data_image0
_chemical_formula_structural       Zn16H184C278N60O64
_chemical_formula_sum              "Zn16 H184 C278 N60 O64"
_cell_length_a       17.88168
_cell_length_b       20.67482
_cell_length_c       27.52619
_cell_angle_alpha    81.94902
_cell_angle_beta     72.85298
_cell_angle_gamma    84.38428

_symmetry_space_group_name_H-M    'P 1'
_symmetry_Int_Tables_number       1

loop_
  _symmetry_equiv_pos_as_xyz
  'x,y,z'

loop_
  _atom_site_type_symbol
  _atom_site_label
  _atom_site_symmetry_multiplicity
  _atom_site_fract_x
  _atom_site_fract_y
  _atom_site_fract_z
  _atom_site_occupancy
  Zn  Zn1       1.0  0.08221999999999996  0.7294599999999999  0.77035  1.0000
  Zn  Zn2       1.0  0.6725700000000001  0.06919000000000002  0.5300499999999999  1.0000
  Zn  Zn3       1.0  0.61664  0.25566  0.27501  1.0000
  Zn  Zn4       1.0  0.05468999999999998  0.21258000000000005  0.78007  1.0000
  Zn  Zn5       1.0  0.36994000000000016  0.22313000000000002  0.9295599999999998  1.0000
  Zn  Zn6       1.0  0.20313999999999996  0.59859  0.02352  1.0000
  Zn  Zn7       1.0  0.8997999999999999  0.72612  0.4172499999999999  1.0000
  Zn  Zn8       1.0  0.5818500000000001  0.7392599999999999  0.2797  1.0000
  Zn  Zn9       1.0  0.9177800000000002  0.27054  0.22966  1.0000
  Zn  Zn10      1.0  0.32743  0.9308  0.46995  1.0000
  Zn  Zn11      1.0  0.38336000000000003  0.7443300000000002  0.7249899999999998  1.0000
  Zn  Zn12      1.0  0.9453099999999999  0.78742  0.21993999999999994  1.0000
  Zn  Zn13      1.0  0.63006  0.7768600000000001  0.07043999999999999  1.0000
  Zn  Zn14      1.0  0.79686  0.40141  0.97648  1.0000
  Zn  Zn15      1.0  0.10019999999999998  0.27386999999999995  0.58276  1.0000
  Zn  Zn16      1.0  0.41815  0.26073  0.7203  1.0000
  H   H1        1.0  0.90192  0.40819  0.12262999999999999  1.0000
  H   H2        1.0  0.68358  0.51284  0.18923  1.0000
  H   H3        1.0  0.8941499999999999  0.61781  0.12254  1.0000
  H   H4        1.0  0.79261  0.35341  0.09796999999999999  1.0000
  H   H5        1.0  0.71491  0.24747  0.15878  1.0000
  H   H6        1.0  0.69263  0.39881999999999995  0.25117  1.0000
  H   H7        1.0  0.99568  0.42913000000000007  0.04837  1.0000
  H   H8        1.0  0.15053  0.46442  0.00909  1.0000
  H   H9        1.0  0.02698  0.59594  0.11355  1.0000
  H   H10       1.0  0.69699  0.7878  0.17063999999999993  1.0000
  H   H11       1.0  0.8021699999999999  0.70226  0.11193  1.0000
  H   H12       1.0  0.65761  0.5965599999999999  0.24533  1.0000
  H   H13       1.0  0.13307000000000002  0.62637  0.21659999999999996  1.0000
  H   H14       1.0  0.20679  0.6771800000000001  0.34065  1.0000
  H   H15       1.0  0.3731900000000001  0.67604  0.19043  1.0000
  H   H16       1.0  0.07188000000000004  0.7344499999999999  0.34996  1.0000
  H   H17       1.0  0.9152199999999999  0.58634  0.3706399999999999  1.0000
  H   H18       1.0  0.05222000000000001  0.55531  0.29605  1.0000
  H   H19       1.0  0.15801  0.63825  0.13659  1.0000
  H   H20       1.0  0.37955000000000005  0.60291  0.03242  1.0000
  H   H21       1.0  0.4026199999999999  0.6259300000000001  0.12442999999999999  1.0000
  H   H22       1.0  0.46015  0.69225  0.22368  1.0000
  H   H23       1.0  0.28266000000000013  0.7318  0.3603699999999999  1.0000
  H   H24       1.0  0.4249899999999999  0.76704  0.36507999999999996  1.0000
  H   H25       1.0  0.7706000000000001  0.7963099999999999  0.8645999999999998  1.0000
  H   H26       1.0  0.54493  0.74017  0.86293  1.0000
  H   H27       1.0  0.7449799999999999  0.7245799999999999  0.73066  1.0000
  H   H28       1.0  0.9008599999999999  0.7246899999999998  0.83076  1.0000
  H   H29       1.0  0.8440799999999997  0.80278  0.6937  1.0000
  H   H30       1.0  0.006330000000000013  0.79004  0.67567  1.0000
  H   H31       1.0  0.49332000000000015  0.78425  0.78488  1.0000
  H   H32       1.0  0.6608100000000001  0.63136  0.73011  1.0000
  H   H33       1.0  0.53039  0.63151  0.69261  1.0000
  H   H34       1.0  0.7059400000000001  0.7380500000000001  0.9570799999999999  1.0000
  H   H35       1.0  0.513  0.83958  0.9137699999999997  1.0000
  H   H36       1.0  0.48974999999999996  0.84003  0.01807  1.0000
  H   H37       1.0  0.15397999999999998  0.98674  0.6883  1.0000
  H   H38       1.0  0.3649000000000001  0.09045  0.61952  1.0000
  H   H39       1.0  0.37047  0.8811399999999999  0.61904  1.0000
  H   H40       1.0  0.15346999999999997  0.87348  0.7467  1.0000
  H   H41       1.0  0.26555000000000006  0.8274699999999999  0.5949299999999998  1.0000
  H   H42       1.0  0.18374  0.72157  0.65377  1.0000
  H   H43       1.0  0.13126  0.06979999999999997  0.74497  1.0000
  H   H44       1.0  0.1676  0.2612  0.67028  1.0000
  H   H45       1.0  0.2708400000000001  0.17578  0.6097  1.0000
  H   H46       1.0  0.49697  0.06676  0.61167  1.0000
  H   H47       1.0  0.46441000000000004  0.90226  0.54395  1.0000
  H   H48       1.0  0.6210600000000001  0.9335399999999999  0.50889  1.0000
  H   H49       1.0  0.67278  0.16128000000000003  0.8478399999999998  1.0000
  H   H50       1.0  0.8373  0.15056  0.69816  1.0000
  H   H51       1.0  0.5947  0.10736000000000001  0.7263299999999999  1.0000
  H   H52       1.0  0.5034  0.05115999999999999  0.80159  1.0000
  H   H53       1.0  0.37038  0.08935999999999998  0.87631  1.0000
  H   H54       1.0  0.5455000000000001  0.21933999999999998  0.8604299999999998  1.0000
  H   H55       1.0  0.62076  0.10616999999999997  0.64712  1.0000
  H   H56       1.0  0.86542  0.1036  0.63331  1.0000
  H   H57       1.0  0.8439500000000001  0.07376000000000002  0.5436499999999999  1.0000
  H   H58       1.0  0.92608  0.16734  0.72858  1.0000
  H   H59       1.0  0.9013599999999999  0.23578999999999997  0.8707799999999999  1.0000
  H   H60       1.0  0.7557400000000001  0.20599  0.8683799999999998  1.0000
  H   H61       1.0  0.72707  0.88835  0.20984  1.0000
  H   H62       1.0  0.8050499999999999  0.9871099999999999  0.17711999999999997  1.0000
  H   H63       1.0  0.74664  0.09596  0.20401  1.0000
  H   H64       1.0  0.53388  0.007909999999999999  0.29303  1.0000
  H   H65       1.0  0.58414  0.51422  0.39756999999999987  1.0000
  H   H66       1.0  0.65007  0.45752999999999994  0.46188999999999997  1.0000
  H   H67       1.0  0.7473300000000002  0.51674  0.48637999999999987  1.0000
  H   H68       1.0  0.6960799999999999  0.68977  0.39261  1.0000
  H   H69       1.0  0.42000999999999994  0.61088  0.8562699999999998  1.0000
  H   H70       1.0  0.5050300000000001  0.54982  0.7855  1.0000
  H   H71       1.0  0.51396  0.4276  0.79733  1.0000
  H   H72       1.0  0.3392000000000001  0.42918  0.9431899999999999  1.0000
  H   H73       1.0  0.028529999999999993  0.8251  0.04817999999999999  1.0000
  H   H74       1.0  0.9687100000000003  0.9130099999999999  0.99672  1.0000
  H   H75       1.0  0.9823800000000003  0.9036799999999999  0.9047499999999999  1.0000
  H   H76       1.0  0.11128000000000011  0.7193999999999999  0.9170199999999997  1.0000
  H   H77       1.0  0.9107300000000002  0.11090999999999998  0.38293  1.0000
  H   H78       1.0  0.021649999999999992  0.065  0.31426  1.0000
  H   H79       1.0  0.047540000000000054  0.94386  0.3168399999999999  1.0000
  H   H80       1.0  0.8473500000000002  0.9164899999999999  0.4489899999999999  1.0000
  H   H81       1.0  0.51854  0.30368999999999996  0.5667199999999999  1.0000
  H   H82       1.0  0.48973  0.40848  0.5163  1.0000
  H   H83       1.0  0.5228100000000001  0.4161900000000001  0.42082999999999987  1.0000
  H   H84       1.0  0.61097  0.21629999999999996  0.42698  1.0000
  H   H85       1.0  0.19166000000000027  0.36189  0.7089099999999998  1.0000
  H   H86       1.0  0.26999000000000006  0.46038999999999997  0.67558  1.0000
  H   H87       1.0  0.21316000000000007  0.56893  0.70351  1.0000
  H   H88       1.0  0.001309999999999999  0.4814499999999999  0.79485  1.0000
  H   H89       1.0  0.1731800000000001  0.17468999999999998  0.8941099999999997  1.0000
  H   H90       1.0  0.06221000000000013  0.99659  0.9045899999999998  1.0000
  H   H91       1.0  0.12135000000000008  0.94683  0.9737599999999998  1.0000
  H   H92       1.0  0.21247  0.01129  6.999999999999998e-05  1.0000
  H   H93       1.0  0.09809000000000001  0.5918  0.87738  1.0000
  H   H94       1.0  0.31643  0.48715  0.81078  1.0000
  H   H95       1.0  0.10584999999999999  0.3821800000000001  0.87746  1.0000
  H   H96       1.0  0.20738999999999994  0.6465900000000001  0.90204  1.0000
  H   H97       1.0  0.2851000000000001  0.7525199999999999  0.84122  1.0000
  H   H98       1.0  0.30737  0.60117  0.74883  1.0000
  H   H99       1.0  0.004320000000000006  0.57087  0.95163  1.0000
  H   H100      1.0  0.84947  0.5355699999999999  0.9909099999999997  1.0000
  H   H101      1.0  0.9730200000000004  0.40404999999999996  0.8864499999999997  1.0000
  H   H102      1.0  0.3030100000000002  0.21218999999999996  0.8293599999999998  1.0000
  H   H103      1.0  0.19784000000000015  0.29773000000000005  0.8880799999999999  1.0000
  H   H104      1.0  0.3423899999999999  0.40343  0.7546699999999998  1.0000
  H   H105      1.0  0.86693  0.37363  0.78341  1.0000
  H   H106      1.0  0.7932100000000002  0.32281000000000004  0.6593499999999999  1.0000
  H   H107      1.0  0.6268100000000001  0.32395000000000007  0.8095699999999998  1.0000
  H   H108      1.0  0.9281199999999998  0.26555  0.6500499999999999  1.0000
  H   H109      1.0  0.08478000000000001  0.41366  0.62937  1.0000
  H   H110      1.0  0.9477799999999998  0.44469  0.7039499999999997  1.0000
  H   H111      1.0  0.84199  0.36173999999999995  0.8634099999999999  1.0000
  H   H112      1.0  0.6204599999999999  0.39709  0.96759  1.0000
  H   H113      1.0  0.59738  0.37406000000000006  0.87557  1.0000
  H   H114      1.0  0.5398500000000002  0.30774  0.77632  1.0000
  H   H115      1.0  0.7173399999999999  0.26819  0.63964  1.0000
  H   H116      1.0  0.57501  0.23295  0.63493  1.0000
  H   H117      1.0  0.2294  0.20368  0.1354  1.0000
  H   H118      1.0  0.4550700000000001  0.25981999999999994  0.13706999999999997  1.0000
  H   H119      1.0  0.25501999999999986  0.27541  0.26935  1.0000
  H   H120      1.0  0.09914000000000008  0.27531  0.16923999999999995  1.0000
  H   H121      1.0  0.15592000000000003  0.19721  0.30630999999999997  1.0000
  H   H122      1.0  0.99367  0.20995  0.32434  1.0000
  H   H123      1.0  0.50668  0.21573999999999996  0.21512  1.0000
  H   H124      1.0  0.3392  0.36864  0.2698999999999999  1.0000
  H   H125      1.0  0.46961  0.3684799999999999  0.3073899999999999  1.0000
  H   H126      1.0  0.29406  0.26194  0.04291999999999999  1.0000
  H   H127      1.0  0.48699999999999993  0.16041  0.08623999999999998  1.0000
  H   H128      1.0  0.5102500000000002  0.15996000000000002  0.9819299999999997  1.0000
  H   H129      1.0  0.84602  0.01326000000000001  0.3116999999999999  1.0000
  H   H130      1.0  0.6351000000000001  0.9095499999999999  0.38048  1.0000
  H   H131      1.0  0.62954  0.11884999999999997  0.38096  1.0000
  H   H132      1.0  0.8465299999999999  0.12651  0.2533  1.0000
  H   H133      1.0  0.7344499999999999  0.17252000000000003  0.40507  1.0000
  H   H134      1.0  0.8162599999999999  0.27843  0.34623  1.0000
  H   H135      1.0  0.8687499999999999  0.9301899999999997  0.25503  1.0000
  H   H136      1.0  0.8324  0.7387999999999999  0.3297199999999999  1.0000
  H   H137      1.0  0.72916  0.82421  0.3902999999999999  1.0000
  H   H138      1.0  0.50303  0.93324  0.38833  1.0000
  H   H139      1.0  0.53559  0.09772999999999998  0.45605  1.0000
  H   H140      1.0  0.37894  0.06644999999999998  0.49112  1.0000
  H   H141      1.0  0.32722000000000007  0.83871  0.15217  1.0000
  H   H142      1.0  0.16269999999999996  0.84943  0.30184  1.0000
  H   H143      1.0  0.4053  0.89264  0.27368  1.0000
  H   H144      1.0  0.49660000000000004  0.94883  0.19842  1.0000
  H   H145      1.0  0.62962  0.9106299999999999  0.12369999999999998  1.0000
  H   H146      1.0  0.45450000000000007  0.78066  0.13956999999999997  1.0000
  H   H147      1.0  0.3792400000000001  0.89382  0.35289  1.0000
  H   H148      1.0  0.13458  0.89639  0.36669999999999997  1.0000
  H   H149      1.0  0.1560600000000001  0.92623  0.45635  1.0000
  H   H150      1.0  0.07391999999999997  0.83266  0.27142  1.0000
  H   H151      1.0  0.09863999999999999  0.76421  0.12922  1.0000
  H   H152      1.0  0.24426000000000003  0.794  0.13162  1.0000
  H   H153      1.0  0.2729300000000001  0.11164000000000002  0.7901599999999999  1.0000
  H   H154      1.0  0.1949500000000001  0.01288000000000004  0.8228799999999997  1.0000
  H   H155      1.0  0.25336  0.9040399999999998  0.79599  1.0000
  H   H156      1.0  0.4661200000000005  0.9920799999999999  0.7069699999999999  1.0000
  H   H157      1.0  0.41586  0.4857699999999999  0.60244  1.0000
  H   H158      1.0  0.34992999999999996  0.54247  0.53811  1.0000
  H   H159      1.0  0.25267000000000006  0.48325999999999997  0.5136299999999999  1.0000
  H   H160      1.0  0.30392  0.31022  0.6073899999999999  1.0000
  H   H161      1.0  0.5799900000000001  0.38911999999999997  0.14373  1.0000
  H   H162      1.0  0.49496999999999997  0.45017  0.21451  1.0000
  H   H163      1.0  0.48604  0.57239  0.20267  1.0000
  H   H164      1.0  0.6608  0.57081  0.05680999999999999  1.0000
  H   H165      1.0  0.97148  0.17489000000000002  0.9518299999999997  1.0000
  H   H166      1.0  0.031290000000000005  0.08698999999999998  0.003289999999999999  1.0000
  H   H167      1.0  0.017619999999999997  0.09633000000000001  0.09525999999999998  1.0000
  H   H168      1.0  0.8887200000000001  0.2806  0.08298  1.0000
  H   H169      1.0  0.08927999999999998  0.88908  0.61707  1.0000
  H   H170      1.0  0.9783499999999998  0.9349899999999997  0.68574  1.0000
  H   H171      1.0  0.9524600000000001  0.056139999999999995  0.68316  1.0000
  H   H172      1.0  0.1526599999999999  0.08350000000000002  0.55101  1.0000
  H   H173      1.0  0.48146  0.69631  0.43328  1.0000
  H   H174      1.0  0.51027  0.5915099999999999  0.48371  1.0000
  H   H175      1.0  0.47720000000000007  0.5838  0.57917  1.0000
  H   H176      1.0  0.38903  0.78369  0.57302  1.0000
  H   H177      1.0  0.8083399999999998  0.6381  0.29109  1.0000
  H   H178      1.0  0.7300200000000001  0.5396  0.3244199999999999  1.0000
  H   H179      1.0  0.78684  0.43107  0.29649  1.0000
  H   H180      1.0  0.9986900000000001  0.51855  0.20514999999999994  1.0000
  H   H181      1.0  0.82682  0.82531  0.10588999999999998  1.0000
  H   H182      1.0  0.93779  0.0034000000000000007  0.09542  1.0000
  H   H183      1.0  0.8786499999999999  0.05316  0.026239999999999992  1.0000
  H   H184      1.0  0.7875300000000001  0.9887  0.9999399999999999  1.0000
  C   C1        1.0  0.86905  0.45457  0.13016  1.0000
  C   C2        1.0  0.7895400000000001  0.4553  0.15674  1.0000
  C   C3        1.0  0.7463600000000001  0.51306  0.17085999999999996  1.0000
  C   C4        1.0  0.78519  0.57125  0.1587  1.0000
  C   C5        1.0  0.86473  0.57226  0.13149  1.0000
  C   C6        1.0  0.90579  0.51362  0.11699999999999998  1.0000
  C   C7        1.0  0.76187  0.34632  0.13845  1.0000
  C   C8        1.0  0.72228  0.29488999999999993  0.16852  1.0000
  C   C9        1.0  0.70862  0.37196  0.21815999999999994  1.0000
  C   C10       1.0  0.025700000000000004  0.46763999999999994  0.05613  1.0000
  C   C11       1.0  0.10149  0.48537  0.03711  1.0000
  C   C12       1.0  0.039900000000000026  0.5561299999999999  0.0899  1.0000
  C   C13       1.0  0.7047  0.73509  0.17699  1.0000
  C   C14       1.0  0.75814  0.69329  0.14827  1.0000
  C   C15       1.0  0.68109  0.63639  0.21646  1.0000
  C   C16       1.0  0.18032  0.63907  0.23042999999999997  1.0000
  C   C17       1.0  0.16431  0.6511  0.28103  1.0000
  C   C18       1.0  0.22116000000000002  0.6710399999999999  0.30038999999999993  1.0000
  C   C19       1.0  0.29617  0.68107  0.26739  1.0000
  C   C20       1.0  0.31468  0.6688099999999999  0.21626  1.0000
  C   C21       1.0  0.25672  0.64724  0.19859  1.0000
  C   C22       1.0  0.04993000000000004  0.68842  0.34718999999999994  1.0000
  C   C23       1.0  0.96878  0.61179  0.35544  1.0000
  C   C24       1.0  0.03613  0.5956900000000002  0.31889  1.0000
  C   C25       1.0  0.22094  0.62978  0.12116  1.0000
  C   C26       1.0  0.33779  0.61255  0.06851  1.0000
  C   C27       1.0  0.3495600000000001  0.62417  0.11335  1.0000
  C   C28       1.0  0.43176  0.70789  0.26121  1.0000
  C   C29       1.0  0.34007000000000004  0.7279900000000001  0.3332999999999999  1.0000
  C   C30       1.0  0.41076999999999997  0.7456599999999999  0.3351  1.0000
  C   C31       1.0  0.7345900000000001  0.77608  0.8454299999999999  1.0000
  C   C32       1.0  0.65441  0.7696399999999999  0.86894  1.0000
  C   C33       1.0  0.6063600000000001  0.7478099999999999  0.84349  1.0000
  C   C34       1.0  0.6396300000000001  0.73274  0.79339  1.0000
  C   C35       1.0  0.7196700000000001  0.73722  0.76939  1.0000
  C   C36       1.0  0.7666099999999999  0.75862  0.79579  1.0000
  C   C37       1.0  0.9081799999999998  0.74586  0.79148  1.0000
  C   C38       1.0  0.8802099999999999  0.78488  0.71862  1.0000
  C   C39       1.0  0.9598000000000001  0.77874  0.7105599999999997  1.0000
  C   C40       1.0  0.5191700000000001  0.74139  0.7661599999999998  1.0000
  C   C41       1.0  0.6074200000000001  0.66239  0.7352199999999999  1.0000
  C   C42       1.0  0.5434500000000001  0.6626300000000002  0.7173299999999998  1.0000
  C   C43       1.0  0.6504600000000001  0.76578  0.96031  1.0000
  C   C44       1.0  0.548  0.81819  0.9386099999999998  1.0000
  C   C45       1.0  0.5376500000000001  0.81803  0.9899699999999998  1.0000
  C   C46       1.0  0.21658  0.98648  0.66932  1.0000
  C   C47       1.0  0.2558300000000001  0.04442999999999999  0.6567899999999998  1.0000
  C   C48       1.0  0.33503  0.04508  0.62882  1.0000
  C   C49       1.0  0.37532000000000004  0.9862299999999999  0.6140899999999999  1.0000
  C   C50       1.0  0.33799  0.9274699999999999  0.6273099999999999  1.0000
  C   C51       1.0  0.25872000000000006  0.92858  0.65442  1.0000
  C   C52       1.0  0.17276  0.8464099999999999  0.71377  1.0000
  C   C53       1.0  0.23221  0.81989  0.63489  1.0000
  C   C54       1.0  0.19006000000000006  0.76909  0.66383  1.0000
  C   C55       1.0  0.15338000000000004  0.10966999999999998  0.71576  1.0000
  C   C56       1.0  0.17478000000000005  0.20835  0.6758099999999999  1.0000
  C   C57       1.0  0.22749000000000005  0.16662999999999997  0.64633  1.0000
  C   C58       1.0  0.5097600000000001  0.026800000000000018  0.5881699999999999  1.0000
  C   C59       1.0  0.49507999999999996  0.93926  0.55334  1.0000
  C   C60       1.0  0.57156  0.9556099999999998  0.53589  1.0000
  C   C61       1.0  0.6277000000000003  0.13442000000000004  0.7895799999999997  1.0000
  C   C62       1.0  0.6863999999999999  0.15292999999999998  0.80808  1.0000
  C   C63       1.0  0.7620000000000001  0.15900000000000003  0.77494  1.0000
  C   C64       1.0  0.77898  0.14468999999999999  0.72443  1.0000
  C   C65       1.0  0.71961  0.12371999999999998  0.70772  1.0000
  C   C66       1.0  0.6427700000000001  0.11930000000000003  0.7397699999999998  1.0000
  C   C67       1.0  0.49269  0.09001000000000002  0.82575  1.0000
  C   C68       1.0  0.42739  0.10974999999999994  0.86246  1.0000
  C   C69       1.0  0.5179100000000001  0.17653  0.85705  1.0000
  C   C70       1.0  0.6839000000000001  0.09916999999999998  0.63167  1.0000
  C   C71       1.0  0.81233  0.09844999999999998  0.62335  1.0000
  C   C72       1.0  0.80127  0.08336  0.57934  1.0000
  C   C73       1.0  0.89992  0.1818  0.76665  1.0000
  C   C74       1.0  0.8845200000000001  0.2167  0.84087  1.0000
  C   C75       1.0  0.8120199999999999  0.20187  0.84015  1.0000
  C   C76       1.0  0.57815  0.88187  0.27282  1.0000
  C   C77       1.0  0.62508  0.94156  0.25303  1.0000
  C   C78       1.0  0.7020300000000002  0.9362399999999999  0.22044  1.0000
  C   C79       1.0  0.7457299999999999  0.9914999999999999  0.20245  1.0000
  C   C80       1.0  0.71342  0.052360000000000004  0.21738999999999997  1.0000
  C   C81       1.0  0.63712  0.05825  0.25036  1.0000
  C   C82       1.0  0.6029899999999999  0.12284999999999999  0.26866  1.0000
  C   C83       1.0  0.59307  0.0028599999999999962  0.26757  1.0000
  C   C84       1.0  0.60076  0.63861  0.3508  1.0000
  C   C85       1.0  0.63531  0.60546  0.39202  1.0000
  C   C86       1.0  0.62269  0.53984  0.41147  1.0000
  C   C87       1.0  0.66082  0.50834  0.44671  1.0000
  C   C88       1.0  0.71423  0.5413600000000001  0.46098  1.0000
  C   C89       1.0  0.7274800000000001  0.6070299999999998  0.4413  1.0000
  C   C90       1.0  0.68622  0.63906  0.4080099999999999  1.0000
  C   C91       1.0  0.7913199999999996  0.6411  0.4501899999999999  1.0000
  C   C92       1.0  0.32551000000000013  0.56216  0.9463099999999999  1.0000
  C   C93       1.0  0.37553  0.524  0.90435  1.0000
  C   C94       1.0  0.42264  0.55767  0.85972  1.0000
  C   C95       1.0  0.4705600000000002  0.52321  0.8206099999999997  1.0000
  C   C96       1.0  0.47499  0.45482  0.82698  1.0000
  C   C97       1.0  0.42828000000000016  0.42051  0.87155  1.0000
  C   C98       1.0  0.3769100000000001  0.4555499999999999  0.9092999999999999  1.0000
  C   C99       1.0  0.4359199999999999  0.3469999999999999  0.87938  1.0000
  C   C100      1.0  0.11361000000000002  0.7141599999999999  0.014789999999999998  1.0000
  C   C101      1.0  0.07563000000000011  0.76731  0.9854699999999997  1.0000
  C   C102      1.0  0.03438000000000001  0.82191  0.00806  1.0000
  C   C103      1.0  0.0007500000000001137  0.87082  0.9791199999999998  1.0000
  C   C104      1.0  0.007800000000000001  0.8657699999999999  0.92781  1.0000
  C   C105      1.0  0.047360000000000096  0.81058  0.9053499999999998  1.0000
  C   C106      1.0  0.08073000000000001  0.7619399999999998  0.9345  1.0000
  C   C107      1.0  0.05490000000000007  0.8026399999999999  0.8507499999999998  1.0000
  C   C108      1.0  0.8049  0.04649999999999999  0.45849999999999996  1.0000
  C   C109      1.0  0.87241  0.016790000000000003  0.41957999999999995  1.0000
  C   C110      1.0  0.9227200000000001  0.058379999999999994  0.3820699999999999  1.0000
  C   C111      1.0  0.98471  0.0325  0.34444  1.0000
  C   C112      1.0  0.9991500000000003  0.9647500000000003  0.3456999999999999  1.0000
  C   C113      1.0  0.9509399999999999  0.9226499999999997  0.38425999999999993  1.0000
  C   C114      1.0  0.8863100000000002  0.94898  0.4202399999999999  1.0000
  C   C115      1.0  0.96916  0.8501999999999998  0.38657  1.0000
  C   C116      1.0  0.58971  0.18986999999999996  0.52769  1.0000
  C   C117      1.0  0.5683900000000001  0.25337  0.4998899999999999  1.0000
  C   C118      1.0  0.5335  0.30788  0.52514  1.0000
  C   C119      1.0  0.5174700000000001  0.36646000000000006  0.4966899999999999  1.0000
  C   C120      1.0  0.5355699999999999  0.3711  0.44334  1.0000
  C   C121      1.0  0.56949  0.3165  0.41804  1.0000
  C   C122      1.0  0.58522  0.25839  0.4466999999999999  1.0000
  C   C123      1.0  0.5876400000000002  0.31784  0.36122999999999994  1.0000
  C   C124      1.0  0.04495000000000014  0.3551199999999999  0.7733299999999997  1.0000
  C   C125      1.0  0.09124000000000014  0.41514  0.7535399999999998  1.0000
  C   C126      1.0  0.16745000000000013  0.40970999999999996  0.7200299999999997  1.0000
  C   C127      1.0  0.21134  0.46473  0.70174  1.0000
  C   C128      1.0  0.17988000000000004  0.52544  0.7171999999999998  1.0000
  C   C129      1.0  0.10423  0.5316  0.75099  1.0000
  C   C130      1.0  0.059960000000000034  0.47638999999999987  0.76867  1.0000
  C   C131      1.0  0.07240000000000008  0.59677  0.7691099999999998  1.0000
  C   C132      1.0  0.2578800000000001  0.13308  0.9612099999999999  1.0000
  C   C133      1.0  0.19898000000000005  0.09661000000000002  0.9484599999999997  1.0000
  C   C134      1.0  0.16251000000000002  0.12476999999999999  0.91148  1.0000
  C   C135      1.0  0.1135000000000001  0.08895000000000006  0.8955399999999998  1.0000
  C   C136      1.0  0.09936  0.024420000000000025  0.9179299999999999  1.0000
  C   C137      1.0  0.13361  0.99662  0.95619  1.0000
  C   C138      1.0  0.18383000000000002  0.032290000000000034  0.9711599999999998  1.0000
  C   C139      1.0  0.08110000000000002  0.11898000000000002  0.85254  1.0000
  C   C140      1.0  0.13094999999999998  0.54542  0.86984  1.0000
  C   C141      1.0  0.21045999999999995  0.5447  0.84326  1.0000
  C   C142      1.0  0.25364  0.48693999999999993  0.8291399999999999  1.0000
  C   C143      1.0  0.21481  0.42874  0.8413  1.0000
  C   C144      1.0  0.1352800000000001  0.42774  0.8685099999999998  1.0000
  C   C145      1.0  0.09422000000000008  0.4863700000000001  0.8829999999999998  1.0000
  C   C146      1.0  0.23812999999999998  0.65367  0.86155  1.0000
  C   C147      1.0  0.2777199999999999  0.7050999999999997  0.83148  1.0000
  C   C148      1.0  0.29138  0.62803  0.78184  1.0000
  C   C149      1.0  0.9743  0.53235  0.94388  1.0000
  C   C150      1.0  0.89851  0.51463  0.9628899999999999  1.0000
  C   C151      1.0  0.9600999999999998  0.44387  0.9100999999999999  1.0000
  C   C152      1.0  0.2953  0.2649  0.82301  1.0000
  C   C153      1.0  0.24185999999999996  0.3067099999999999  0.85174  1.0000
  C   C154      1.0  0.3189100000000001  0.36359999999999987  0.78354  1.0000
  C   C155      1.0  0.8196799999999999  0.36092  0.7695699999999999  1.0000
  C   C156      1.0  0.8356900000000003  0.34889000000000003  0.7189699999999998  1.0000
  C   C157      1.0  0.7788399999999999  0.32895  0.69962  1.0000
  C   C158      1.0  0.70383  0.31892000000000004  0.7326099999999999  1.0000
  C   C159      1.0  0.6853200000000002  0.3311799999999999  0.78375  1.0000
  C   C160      1.0  0.74328  0.35275999999999996  0.80142  1.0000
  C   C161      1.0  0.95007  0.31157  0.65281  1.0000
  C   C162      1.0  0.03121999999999998  0.3882  0.64457  1.0000
  C   C163      1.0  0.9638700000000001  0.4043  0.6811199999999998  1.0000
  C   C164      1.0  0.77907  0.37020999999999993  0.87884  1.0000
  C   C165      1.0  0.6622100000000002  0.38744  0.9314899999999998  1.0000
  C   C166      1.0  0.6504400000000001  0.37582000000000004  0.8866499999999999  1.0000
  C   C167      1.0  0.5682400000000001  0.2920999999999999  0.7387999999999998  1.0000
  C   C168      1.0  0.6599299999999999  0.272  0.6667  1.0000
  C   C169      1.0  0.58923  0.25434  0.6649099999999999  1.0000
  C   C170      1.0  0.26541  0.22390999999999997  0.15457  1.0000
  C   C171      1.0  0.34559  0.23034999999999994  0.13107  1.0000
  C   C172      1.0  0.39364000000000005  0.25218  0.15651  1.0000
  C   C173      1.0  0.3603700000000001  0.26725  0.20661  1.0000
  C   C174      1.0  0.28034000000000003  0.26278  0.23060999999999995  1.0000
  C   C175      1.0  0.23339999999999997  0.24136999999999997  0.20421  1.0000
  C   C176      1.0  0.09182999999999997  0.25414  0.20852  1.0000
  C   C177      1.0  0.11979000000000002  0.21511  0.28137999999999996  1.0000
  C   C178      1.0  0.04020000000000001  0.22126  0.28945  1.0000
  C   C179      1.0  0.4808299999999999  0.25861000000000006  0.23383999999999996  1.0000
  C   C180      1.0  0.39258  0.33761  0.26478  1.0000
  C   C181      1.0  0.45655  0.33736  0.28267  1.0000
  C   C182      1.0  0.34954  0.23422  0.03969  1.0000
  C   C183      1.0  0.45199999999999996  0.18181  0.06139  1.0000
  C   C184      1.0  0.4623499999999999  0.18196  0.010029999999999999  1.0000
  C   C185      1.0  0.7834199999999999  0.013509999999999993  0.33068  1.0000
  C   C186      1.0  0.74417  0.9555699999999999  0.34320999999999996  1.0000
  C   C187      1.0  0.6649699999999998  0.95491  0.37118  1.0000
  C   C188      1.0  0.62468  0.013770000000000001  0.38591  1.0000
  C   C189      1.0  0.6620100000000002  0.07251999999999997  0.37269  1.0000
  C   C190      1.0  0.74128  0.07141999999999998  0.34558  1.0000
  C   C191      1.0  0.82724  0.15359  0.28623  1.0000
  C   C192      1.0  0.7678  0.1801  0.36512  1.0000
  C   C193      1.0  0.80995  0.2309  0.33617  1.0000
  C   C194      1.0  0.8466200000000002  0.89032  0.28424  1.0000
  C   C195      1.0  0.8252199999999998  0.7916399999999999  0.32419  1.0000
  C   C196      1.0  0.77251  0.8333599999999999  0.35367  1.0000
  C   C197      1.0  0.49024  0.9732  0.41183  1.0000
  C   C198      1.0  0.50492  0.06074000000000001  0.44666  1.0000
  C   C199      1.0  0.42844  0.04438  0.46411  1.0000
  C   C200      1.0  0.3723  0.8655699999999998  0.21043  1.0000
  C   C201      1.0  0.3136  0.84707  0.19191999999999995  1.0000
  C   C202      1.0  0.23799999999999996  0.841  0.22506  1.0000
  C   C203      1.0  0.22103  0.8553  0.27557  1.0000
  C   C204      1.0  0.28039  0.8762699999999998  0.29228  1.0000
  C   C205      1.0  0.35722999999999994  0.88069  0.26024  1.0000
  C   C206      1.0  0.50731  0.90998  0.17425999999999994  1.0000
  C   C207      1.0  0.57261  0.89024  0.13754  1.0000
  C   C208      1.0  0.48210000000000003  0.82346  0.14295  1.0000
  C   C209      1.0  0.3161000000000001  0.9008299999999999  0.3683299999999999  1.0000
  C   C210      1.0  0.18767000000000003  0.90154  0.37665  1.0000
  C   C211      1.0  0.19873  0.91664  0.42067  1.0000
  C   C212      1.0  0.10007999999999999  0.81819  0.23335  1.0000
  C   C213      1.0  0.11547999999999999  0.7833  0.15913  1.0000
  C   C214      1.0  0.18798000000000004  0.79812  0.15984999999999996  1.0000
  C   C215      1.0  0.42185000000000006  0.11813000000000003  0.7271799999999998  1.0000
  C   C216      1.0  0.3749200000000001  0.058430000000000024  0.7469699999999998  1.0000
  C   C217      1.0  0.29797000000000007  0.06375999999999997  0.77956  1.0000
  C   C218      1.0  0.25427000000000005  0.008489999999999984  0.79755  1.0000
  C   C219      1.0  0.28658  0.94763  0.7826199999999999  1.0000
  C   C220      1.0  0.3628800000000001  0.94174  0.74964  1.0000
  C   C221      1.0  0.39701000000000014  0.8771499999999998  0.7313399999999999  1.0000
  C   C222      1.0  0.40692999999999996  0.99714  0.73243  1.0000
  C   C223      1.0  0.39924000000000015  0.36138  0.6492099999999998  1.0000
  C   C224      1.0  0.36469999999999997  0.39452999999999994  0.60799  1.0000
  C   C225      1.0  0.3773100000000001  0.46015000000000006  0.5885299999999999  1.0000
  C   C226      1.0  0.3391799999999999  0.49165  0.55329  1.0000
  C   C227      1.0  0.28576999999999997  0.45863  0.53903  1.0000
  C   C228      1.0  0.27252000000000004  0.39296000000000003  0.5586999999999999  1.0000
  C   C229      1.0  0.31378000000000017  0.36092999999999986  0.592  1.0000
  C   C230      1.0  0.20868000000000003  0.3589  0.5498199999999999  1.0000
  C   C231      1.0  0.67449  0.43782999999999994  0.05368999999999999  1.0000
  C   C232      1.0  0.62447  0.47599  0.09564999999999997  1.0000
  C   C233      1.0  0.57736  0.44231999999999994  0.14029  1.0000
  C   C234      1.0  0.52944  0.4767799999999999  0.17939  1.0000
  C   C235      1.0  0.52502  0.54517  0.17302  1.0000
  C   C236      1.0  0.57172  0.57949  0.12846  1.0000
  C   C237      1.0  0.6230999999999999  0.54444  0.09071  1.0000
  C   C238      1.0  0.56408  0.65299  0.12061999999999998  1.0000
  C   C239      1.0  0.8864  0.2858399999999999  0.9852099999999998  1.0000
  C   C240      1.0  0.92437  0.23269  0.01453  1.0000
  C   C241      1.0  0.9656199999999999  0.17809  0.9919399999999999  1.0000
  C   C242      1.0  0.99925  0.12918  0.020879999999999992  1.0000
  C   C243      1.0  0.9922  0.13424  0.07219  1.0000
  C   C244      1.0  0.95264  0.18942999999999996  0.09464999999999997  1.0000
  C   C245      1.0  0.91927  0.23807  0.0655  1.0000
  C   C246      1.0  0.9450999999999999  0.19738  0.14925  1.0000
  C   C247      1.0  0.19510000000000002  0.9534999999999999  0.5415  1.0000
  C   C248      1.0  0.12760000000000002  0.98321  0.5804199999999999  1.0000
  C   C249      1.0  0.07727999999999996  0.94161  0.61794  1.0000
  C   C250      1.0  0.015290000000000104  0.9674999999999999  0.6555699999999998  1.0000
  C   C251      1.0  0.0008500000000000777  0.03525000000000001  0.6542999999999999  1.0000
  C   C252      1.0  0.049069999999999975  0.07735  0.61575  1.0000
  C   C253      1.0  0.11368999999999996  0.05100999999999999  0.57976  1.0000
  C   C254      1.0  0.030840000000000093  0.14979  0.6134299999999998  1.0000
  C   C255      1.0  0.41030000000000005  0.81012  0.47230999999999995  1.0000
  C   C256      1.0  0.43161000000000027  0.7466299999999999  0.50012  1.0000
  C   C257      1.0  0.4665  0.69211  0.4748599999999999  1.0000
  C   C258      1.0  0.4825300000000001  0.63353  0.50332  1.0000
  C   C259      1.0  0.46444  0.6288899999999998  0.55666  1.0000
  C   C260      1.0  0.43052  0.6835  0.58197  1.0000
  C   C261      1.0  0.41479000000000005  0.74161  0.5533  1.0000
  C   C262      1.0  0.41236  0.68215  0.63878  1.0000
  C   C263      1.0  0.95505  0.64488  0.22667  1.0000
  C   C264      1.0  0.90876  0.58486  0.24646999999999997  1.0000
  C   C265      1.0  0.83255  0.5902800000000001  0.27997999999999995  1.0000
  C   C266      1.0  0.7886599999999999  0.53527  0.29826  1.0000
  C   C267      1.0  0.82012  0.47455  0.28281  1.0000
  C   C268      1.0  0.89577  0.4683899999999999  0.24900999999999995  1.0000
  C   C269      1.0  0.9400400000000001  0.5236100000000001  0.23133  1.0000
  C   C270      1.0  0.9276100000000002  0.4032299999999999  0.23089  1.0000
  C   C271      1.0  0.74212  0.8669199999999999  0.0388  1.0000
  C   C272      1.0  0.80102  0.9033899999999999  0.05153999999999999  1.0000
  C   C273      1.0  0.83749  0.87522  0.08852999999999997  1.0000
  C   C274      1.0  0.8865  0.9110399999999998  0.10445999999999997  1.0000
  C   C275      1.0  0.90064  0.9755699999999999  0.08208  1.0000
  C   C276      1.0  0.86639  0.0033800000000000006  0.04381  1.0000
  C   C277      1.0  0.8161699999999998  0.96771  0.02884  1.0000
  C   C278      1.0  0.9189  0.88102  0.14746  1.0000
  N   N1        1.0  0.65711  0.69916  0.21918999999999997  1.0000
  N   N2        1.0  0.74294  0.63061  0.17354  1.0000
  N   N3        1.0  0.7528  0.39492  0.17031  1.0000
  N   N4        1.0  0.68978  0.31144999999999995  0.21786  1.0000
  N   N5        1.0  0.9866600000000001  0.5129499999999999  0.08947  1.0000
  N   N6        1.0  0.1096  0.5403799999999999  0.058439999999999985  1.0000
  N   N7        1.0  0.25783000000000006  0.61615  0.07404999999999999  1.0000
  N   N8        1.0  0.27483  0.6348399999999998  0.14687  1.0000
  N   N9        1.0  0.9782199999999999  0.66983  0.37248  1.0000
  N   N10       1.0  0.08719  0.64443  0.31437  1.0000
  N   N11       1.0  0.46684  0.73289  0.28993  1.0000
  N   N12       1.0  0.35322000000000003  0.7040699999999999  0.28620999999999996  1.0000
  N   N13       1.0  0.9758900000000001  0.7542099999999998  0.75601  1.0000
  N   N14       1.0  0.84755  0.7642899999999999  0.77051  1.0000
  N   N15       1.0  0.5911200000000002  0.71238  0.76674  1.0000
  N   N16       1.0  0.48968999999999996  0.7121899999999999  0.7368  1.0000
  N   N17       1.0  0.60136  0.78489  0.0028899999999999998  1.0000
  N   N18       1.0  0.62036  0.78506  0.91989  1.0000
  N   N19       1.0  0.15354000000000004  0.78622  0.7126499999999999  1.0000
  N   N20       1.0  0.2210200000000001  0.86859  0.6669799999999998  1.0000
  N   N21       1.0  0.2136800000000001  0.10392999999999997  0.67196  1.0000
  N   N22       1.0  0.12885999999999997  0.17228000000000002  0.71871  1.0000
  N   N23       1.0  0.45609  0.9848600000000001  0.5864899999999998  1.0000
  N   N24       1.0  0.57991  0.009969999999999996  0.55784  1.0000
  N   N25       1.0  0.72146  0.084  0.58505  1.0000
  N   N26       1.0  0.7373699999999999  0.10818  0.65684  1.0000
  N   N27       1.0  0.8216000000000002  0.17969000000000002  0.7928199999999997  1.0000
  N   N28       1.0  0.93827  0.20396999999999998  0.79482  1.0000
  N   N29       1.0  0.55011  0.13254999999999997  0.82289  1.0000
  N   N30       1.0  0.44396  0.16387999999999994  0.8813499999999999  1.0000
  N   N31       1.0  0.34289000000000003  0.30084  0.7808099999999999  1.0000
  N   N32       1.0  0.25705999999999996  0.3693799999999999  0.82647  1.0000
  N   N33       1.0  0.2472  0.60507  0.8296899999999998  1.0000
  N   N34       1.0  0.31021999999999994  0.68854  0.78214  1.0000
  N   N35       1.0  0.013340000000000072  0.48704  0.9105299999999997  1.0000
  N   N36       1.0  0.8904  0.45962  0.9415599999999997  1.0000
  N   N37       1.0  0.74217  0.38384000000000007  0.92596  1.0000
  N   N38       1.0  0.72517  0.36515999999999993  0.85313  1.0000
  N   N39       1.0  0.02178000000000004  0.3301699999999999  0.62752  1.0000
  N   N40       1.0  0.91281  0.35556000000000004  0.6856299999999997  1.0000
  N   N41       1.0  0.5331600000000001  0.26711  0.7100799999999999  1.0000
  N   N42       1.0  0.6467800000000001  0.29592999999999997  0.7137899999999998  1.0000
  N   N43       1.0  0.02411  0.24577999999999997  0.24399  1.0000
  N   N44       1.0  0.15245000000000003  0.23570999999999998  0.22949  1.0000
  N   N45       1.0  0.40887999999999985  0.28762  0.23326  1.0000
  N   N46       1.0  0.51031  0.28781  0.2632  1.0000
  N   N47       1.0  0.39864000000000005  0.2151  0.99711  1.0000
  N   N48       1.0  0.37964  0.21492999999999995  0.08011999999999998  1.0000
  N   N49       1.0  0.84646  0.21377999999999997  0.28734999999999994  1.0000
  N   N50       1.0  0.77898  0.13141  0.33302  1.0000
  N   N51       1.0  0.7863200000000001  0.89606  0.3280399999999999  1.0000
  N   N52       1.0  0.8711400000000001  0.82772  0.28129  1.0000
  N   N53       1.0  0.54391  0.015129999999999992  0.41351  1.0000
  N   N54       1.0  0.42009  0.9900199999999999  0.44216  1.0000
  N   N55       1.0  0.27854  0.916  0.41494999999999993  1.0000
  N   N56       1.0  0.26263000000000003  0.8918099999999999  0.34316  1.0000
  N   N57       1.0  0.17841  0.8202999999999999  0.20717999999999998  1.0000
  N   N58       1.0  0.06173000000000003  0.79603  0.20517999999999997  1.0000
  N   N59       1.0  0.44988999999999996  0.86744  0.17710999999999996  1.0000
  N   N60       1.0  0.55604  0.83612  0.11865  1.0000
  O   O1        1.0  0.62475  0.14558  0.4975299999999999  1.0000
  O   O2        1.0  0.57525  0.18145999999999995  0.57542  1.0000
  O   O3        1.0  0.57992  0.3697  0.33314999999999995  1.0000
  O   O4        1.0  0.61039  0.2604  0.34526  1.0000
  O   O5        1.0  0.74737  0.009670000000000008  0.4828599999999999  1.0000
  O   O6        1.0  0.80685  0.10464000000000001  0.4660599999999999  1.0000
  O   O7        1.0  0.9172800000000001  0.81502  0.42107  1.0000
  O   O8        1.0  0.031050000000000015  0.8278799999999998  0.35689  1.0000
  O   O9        1.0  0.08689000000000005  0.1822  0.8415999999999999  1.0000
  O   O10       1.0  0.053510000000000044  0.08440000000000002  0.8288499999999999  1.0000
  O   O11       1.0  0.29553000000000007  0.10694999999999999  0.991  1.0000
  O   O12       1.0  0.26828  0.19228  0.93615  1.0000
  O   O13       1.0  0.9779700000000001  0.35807  0.8048999999999997  1.0000
  O   O14       1.0  0.08134  0.3027  0.75449  1.0000
  O   O15       1.0  0.006090000000000001  0.60364  0.79998  1.0000
  O   O16       1.0  0.12138  0.64315  0.75002  1.0000
  O   O17       1.0  0.2624600000000001  0.53487  0.9756099999999999  1.0000
  O   O18       1.0  0.34534  0.61664  0.9513  1.0000
  O   O19       1.0  0.37514  0.31854  0.9095  1.0000
  O   O20       1.0  0.50017  0.31823999999999997  0.8573599999999998  1.0000
  O   O21       1.0  0.15493000000000012  0.6694899999999998  0.9869699999999999  1.0000
  O   O22       1.0  0.10525000000000001  0.7135799999999999  0.06165  1.0000
  O   O23       1.0  0.0715900000000001  0.7418899999999998  0.8403399999999999  1.0000
  O   O24       1.0  0.04590000000000004  0.8504099999999999  0.81936  1.0000
  O   O25       1.0  0.6174399999999999  0.82796  0.25938  1.0000
  O   O26       1.0  0.50787  0.88673  0.29955  1.0000
  O   O27       1.0  0.64783  0.17181  0.24766999999999997  1.0000
  O   O28       1.0  0.53786  0.12693999999999997  0.30116999999999994  1.0000
  O   O29       1.0  0.7938100000000001  0.70395  0.43224999999999997  1.0000
  O   O30       1.0  0.8418000000000001  0.6114599999999999  0.46948999999999996  1.0000
  O   O31       1.0  0.60635  0.7018799999999997  0.34264  1.0000
  O   O32       1.0  0.57233  0.60626  0.32611  1.0000
  O   O33       1.0  0.37524999999999986  0.85442  0.50247  1.0000
  O   O34       1.0  0.42475  0.8185299999999999  0.42458  1.0000
  O   O35       1.0  0.4200800000000001  0.6302899999999999  0.6668499999999998  1.0000
  O   O36       1.0  0.38960999999999996  0.73959  0.65475  1.0000
  O   O37       1.0  0.25263  0.9903199999999999  0.51714  1.0000
  O   O38       1.0  0.19315000000000002  0.8953499999999999  0.53395  1.0000
  O   O39       1.0  0.08272  0.18497  0.57893  1.0000
  O   O40       1.0  0.96895  0.17210999999999996  0.64312  1.0000
  O   O41       1.0  0.91311  0.8178  0.1584  1.0000
  O   O42       1.0  0.9464900000000002  0.9155899999999999  0.17115  1.0000
  O   O43       1.0  0.7044800000000001  0.8930399999999998  0.009  1.0000
  O   O44       1.0  0.73172  0.80771  0.06386  1.0000
  O   O45       1.0  0.02203000000000003  0.64193  0.19510999999999995  1.0000
  O   O46       1.0  0.9186599999999999  0.69729  0.24551  1.0000
  O   O47       1.0  0.99391  0.39636  0.20002  1.0000
  O   O48       1.0  0.87862  0.35684  0.24998  1.0000
  O   O49       1.0  0.73754  0.46513  0.024389999999999995  1.0000
  O   O50       1.0  0.65466  0.38335  0.0487  1.0000
  O   O51       1.0  0.62486  0.68145  0.0905  1.0000
  O   O52       1.0  0.49983  0.6817499999999999  0.14265  1.0000
  O   O53       1.0  0.84508  0.33051  0.01303  1.0000
  O   O54       1.0  0.8947600000000001  0.28641  0.9383499999999999  1.0000
  O   O55       1.0  0.9284200000000002  0.25812  0.15965999999999997  1.0000
  O   O56       1.0  0.9541  0.14961  0.18064  1.0000
  O   O57       1.0  0.38255999999999996  0.17203000000000002  0.7406199999999997  1.0000
  O   O58       1.0  0.49213  0.11326000000000001  0.7004499999999998  1.0000
  O   O59       1.0  0.3521699999999998  0.82818  0.75233  1.0000
  O   O60       1.0  0.46214000000000005  0.8730499999999999  0.6988399999999999  1.0000
  O   O61       1.0  0.20619000000000007  0.2960499999999999  0.56775  1.0000
  O   O62       1.0  0.1582  0.38854  0.53052  1.0000
  O   O63       1.0  0.39365000000000006  0.29810999999999993  0.65736  1.0000
  O   O64       1.0  0.4276800000000002  0.39374  0.6738899999999998  1.0000
