data_image0
_chemical_formula_structural       Co48H288C480N384
_chemical_formula_sum              "Co48 H288 C480 N384"
_cell_length_a       32.88874
_cell_length_b       32.88951
_cell_length_c       32.88252
_cell_angle_alpha    59.87811
_cell_angle_beta     59.86055999999999
_cell_angle_gamma    59.85602999999999

_space_group_name_H-M_alt    "P 1"
_space_group_IT_number       1

loop_
  _space_group_symop_operation_xyz
  'x, y, z'

loop_
  _atom_site_type_symbol
  _atom_site_label
  _atom_site_symmetry_multiplicity
  _atom_site_fract_x
  _atom_site_fract_y
  _atom_site_fract_z
  _atom_site_occupancy
  Co  Co1       1.0  0.025710000000000226  0.8436199999999996  0.65645  1.0000
  Co  Co2       1.0  0.84349  0.025730000000000003  0.47408  1.0000
  Co  Co3       1.0  0.4738300000000001  0.6565699999999995  0.84385  1.0000
  Co  Co4       1.0  0.6568800000000001  0.4741599999999999  0.02547  1.0000
  Co  Co5       1.0  0.4741600000000001  0.025529999999999997  0.65678  1.0000
  Co  Co6       1.0  0.65649  0.84402  0.47373  1.0000
  Co  Co7       1.0  0.025800000000000135  0.4739099999999998  0.84368  1.0000
  Co  Co8       1.0  0.8436400000000002  0.6564799999999998  0.02572  1.0000
  Co  Co9       1.0  0.8439500000000003  0.47379999999999994  0.6565699999999998  1.0000
  Co  Co10      1.0  0.025500000000000172  0.6568299999999998  0.4741699999999999  1.0000
  Co  Co11      1.0  0.65641  0.025719999999999986  0.84369  1.0000
  Co  Co12      1.0  0.47399000000000013  0.8435399999999997  0.02579  1.0000
  Co  Co13      1.0  0.9742399999999999  0.15639  0.52598  1.0000
  Co  Co14      1.0  0.1564000000000002  0.9742199999999998  0.3435599999999999  1.0000
  Co  Co15      1.0  0.52595  0.34313999999999983  0.97442  1.0000
  Co  Co16      1.0  0.3434500000000001  0.5262399999999998  0.15605  1.0000
  Co  Co17      1.0  0.5260800000000001  0.9741699999999998  0.15637  1.0000
  Co  Co18      1.0  0.34352  0.15636999999999995  0.9742899999999999  1.0000
  Co  Co19      1.0  0.9745100000000001  0.52594  0.34308  1.0000
  Co  Co20      1.0  0.15604999999999997  0.3434499999999999  0.52623  1.0000
  Co  Co21      1.0  0.15639000000000003  0.526  0.9741999999999998  1.0000
  Co  Co22      1.0  0.9742799999999999  0.34357  0.15643999999999997  1.0000
  Co  Co23      1.0  0.34319000000000016  0.9744199999999996  0.52586  1.0000
  Co  Co24      1.0  0.52605  0.15619  0.34334999999999993  1.0000
  Co  Co25      1.0  0.97423  0.15631999999999988  0.34357  1.0000
  Co  Co26      1.0  0.15638000000000019  0.9741999999999995  0.52603  1.0000
  Co  Co27      1.0  0.5262900000000001  0.34343000000000007  0.15602999999999997  1.0000
  Co  Co28      1.0  0.34317000000000003  0.5258699999999997  0.97451  1.0000
  Co  Co29      1.0  0.5258800000000002  0.9745199999999998  0.34309  1.0000
  Co  Co30      1.0  0.3433999999999999  0.15605000000000002  0.52618  1.0000
  Co  Co31      1.0  0.97429  0.52604  0.15633  1.0000
  Co  Co32      1.0  0.15642000000000011  0.34349999999999986  0.97433  1.0000
  Co  Co33      1.0  0.15611000000000008  0.5261399999999998  0.34346  1.0000
  Co  Co34      1.0  0.9745200000000002  0.3432  0.52579  1.0000
  Co  Co35      1.0  0.34357000000000004  0.97431  0.15631  1.0000
  Co  Co36      1.0  0.52597  0.15633999999999998  0.97434  1.0000
  Co  Co37      1.0  0.025760000000000102  0.8435999999999998  0.47396  1.0000
  Co  Co38      1.0  0.8436100000000001  0.025759999999999988  0.65648  1.0000
  Co  Co39      1.0  0.47408  0.65688  0.025429999999999994  1.0000
  Co  Co40      1.0  0.6565999999999999  0.47383000000000003  0.8438899999999999  1.0000
  Co  Co41      1.0  0.47402000000000016  0.025679999999999984  0.84362  1.0000
  Co  Co42      1.0  0.6565200000000002  0.8435899999999997  0.02569  1.0000
  Co  Co43      1.0  0.025509999999999963  0.47411000000000003  0.65694  1.0000
  Co  Co44      1.0  0.8438800000000001  0.65662  0.47378  1.0000
  Co  Co45      1.0  0.84365  0.47394999999999987  0.02579  1.0000
  Co  Co46      1.0  0.025710000000000118  0.6564599999999999  0.84356  1.0000
  Co  Co47      1.0  0.65676  0.025559999999999982  0.47402  1.0000
  Co  Co48      1.0  0.4738700000000001  0.84393  0.65656  1.0000
  H   H1        1.0  0.92596  0.8079699999999997  0.7075699999999999  1.0000
  H   H2        1.0  0.1320399999999999  0.7626000000000001  0.61688  1.0000
  H   H3        1.0  0.13668000000000025  0.8202099999999996  0.74429  1.0000
  H   H4        1.0  0.010139999999999925  0.86118  0.75717  1.0000
  H   H5        1.0  0.80782  0.9262399999999997  0.5587  1.0000
  H   H6        1.0  0.7623999999999999  0.13212  0.48827  1.0000
  H   H7        1.0  0.82027  0.13696  0.29824  1.0000
  H   H8        1.0  0.8611900000000001  0.010160000000000002  0.37139  1.0000
  H   H9        1.0  0.5583300000000001  0.7075099999999998  0.8080299999999999  1.0000
  H   H10       1.0  0.48841  0.61701  0.7626899999999999  1.0000
  H   H11       1.0  0.2984200000000002  0.7444499999999998  0.8203199999999998  1.0000
  H   H12       1.0  0.3709799999999999  0.75706  0.86163  1.0000
  H   H13       1.0  0.7077399999999999  0.55868  0.92579  1.0000
  H   H14       1.0  0.6169700000000001  0.48837999999999987  0.13182  1.0000
  H   H15       1.0  0.74452  0.29835  0.13675  1.0000
  H   H16       1.0  0.75754  0.3712999999999999  0.00991  1.0000
  H   H17       1.0  0.5587099999999999  0.9258099999999999  0.70774  1.0000
  H   H18       1.0  0.48821999999999993  0.13187999999999997  0.61703  1.0000
  H   H19       1.0  0.29835999999999996  0.13656999999999997  0.74458  1.0000
  H   H20       1.0  0.3712899999999999  0.009880000000000014  0.75759  1.0000
  H   H21       1.0  0.7074699999999999  0.8080099999999998  0.55824  1.0000
  H   H22       1.0  0.6169900000000001  0.76261  0.48835  1.0000
  H   H23       1.0  0.7444799999999997  0.82037  0.29839  1.0000
  H   H24       1.0  0.75712  0.8617  0.3709099999999999  1.0000
  H   H25       1.0  0.9261500000000001  0.5586199999999999  0.80787  1.0000
  H   H26       1.0  0.13221000000000002  0.48816999999999994  0.76248  1.0000
  H   H27       1.0  0.13692999999999997  0.29821999999999993  0.82028  1.0000
  H   H28       1.0  0.010190000000000152  0.37126999999999977  0.86115  1.0000
  H   H29       1.0  0.8078900000000001  0.7076399999999998  0.9258999999999997  1.0000
  H   H30       1.0  0.7626199999999999  0.61679  0.13208  1.0000
  H   H31       1.0  0.8201900000000001  0.7442499999999997  0.13671  1.0000
  H   H32       1.0  0.8612  0.7571499999999999  0.01017  1.0000
  H   H33       1.0  0.80797  0.5583599999999997  0.70743  1.0000
  H   H34       1.0  0.76265  0.48839000000000005  0.61706  1.0000
  H   H35       1.0  0.8202200000000001  0.29841999999999996  0.74438  1.0000
  H   H36       1.0  0.8615900000000001  0.37099999999999994  0.7571899999999999  1.0000
  H   H37       1.0  0.9258099999999999  0.70771  0.55868  1.0000
  H   H38       1.0  0.13180999999999998  0.6170599999999999  0.48827  1.0000
  H   H39       1.0  0.13663000000000006  0.7447099999999998  0.29826  1.0000
  H   H40       1.0  0.009910000000000016  0.75764  0.37122999999999995  1.0000
  H   H41       1.0  0.7075599999999999  0.9259800000000001  0.80795  1.0000
  H   H42       1.0  0.6168  0.13207999999999998  0.76262  1.0000
  H   H43       1.0  0.7444  0.13656000000000004  0.8202899999999997  1.0000
  H   H44       1.0  0.7571900000000001  0.010160000000000018  0.86123  1.0000
  H   H45       1.0  0.55863  0.8079099999999999  0.92629  1.0000
  H   H46       1.0  0.4882400000000002  0.7624899999999998  0.13209  1.0000
  H   H47       1.0  0.2982600000000001  0.8201399999999999  0.13702  1.0000
  H   H48       1.0  0.3712100000000001  0.8613299999999998  0.01026  1.0000
  H   H49       1.0  0.07378000000000005  0.19213999999999992  0.44128  1.0000
  H   H50       1.0  0.86781  0.23757999999999999  0.51179  1.0000
  H   H51       1.0  0.8630600000000002  0.17973  0.7017199999999998  1.0000
  H   H52       1.0  0.98982  0.1387  0.62868  1.0000
  H   H53       1.0  0.19202999999999998  0.07401  0.29245  1.0000
  H   H54       1.0  0.23744000000000032  0.8678999999999997  0.38316  1.0000
  H   H55       1.0  0.17967000000000005  0.8634699999999997  0.25569  1.0000
  H   H56       1.0  0.13877999999999993  0.98985  0.24282  1.0000
  H   H57       1.0  0.44147000000000003  0.29228  0.07408  1.0000
  H   H58       1.0  0.5118200000000002  0.3829499999999998  0.86808  1.0000
  H   H59       1.0  0.7016699999999999  0.25535  0.86347  1.0000
  H   H60       1.0  0.62881  0.24236999999999997  0.99009  1.0000
  H   H61       1.0  0.2924900000000001  0.4416199999999999  0.19202  1.0000
  H   H62       1.0  0.38299  0.51164  0.23726  1.0000
  H   H63       1.0  0.2556600000000001  0.7015299999999998  0.17966  1.0000
  H   H64       1.0  0.2428900000000001  0.6290799999999998  0.13835  1.0000
  H   H65       1.0  0.44139000000000006  0.07372999999999999  0.19214  1.0000
  H   H66       1.0  0.51178  0.8678499999999999  0.23755  1.0000
  H   H67       1.0  0.70186  0.86307  0.17972  1.0000
  H   H68       1.0  0.62868  0.98984  0.13876  1.0000
  H   H69       1.0  0.29242999999999997  0.19204000000000002  0.07401  1.0000
  H   H70       1.0  0.38323  0.23744999999999997  0.8679  1.0000
  H   H71       1.0  0.25570999999999994  0.17979999999999996  0.86334  1.0000
  H   H72       1.0  0.24286000000000005  0.13871999999999995  0.98981  1.0000
  H   H73       1.0  0.0741400000000001  0.4413599999999999  0.29227  1.0000
  H   H74       1.0  0.86812  0.5117399999999999  0.38291  1.0000
  H   H75       1.0  0.8634400000000001  0.70166  0.25536  1.0000
  H   H76       1.0  0.9901200000000001  0.6287899999999997  0.24235999999999996  1.0000
  H   H77       1.0  0.19199999999999998  0.29257999999999995  0.44165  1.0000
  H   H78       1.0  0.23733000000000012  0.3829499999999999  0.51157  1.0000
  H   H79       1.0  0.17967999999999998  0.2555  0.70157  1.0000
  H   H80       1.0  0.13835000000000008  0.24282999999999996  0.62905  1.0000
  H   H81       1.0  0.19211999999999999  0.44138  0.07371  1.0000
  H   H82       1.0  0.23759000000000016  0.5118099999999998  0.8678  1.0000
  H   H83       1.0  0.1798700000000001  0.7017399999999997  0.86288  1.0000
  H   H84       1.0  0.13868000000000003  0.6287399999999999  0.98979  1.0000
  H   H85       1.0  0.07408000000000008  0.29244999999999993  0.19207999999999995  1.0000
  H   H86       1.0  0.8679700000000001  0.3831999999999999  0.23737  1.0000
  H   H87       1.0  0.8634899999999999  0.25558  0.17964999999999998  1.0000
  H   H88       1.0  0.98985  0.24295  0.1388  1.0000
  H   H89       1.0  0.29225000000000007  0.07413999999999998  0.44138  1.0000
  H   H90       1.0  0.38302000000000014  0.86808  0.51172  1.0000
  H   H91       1.0  0.25533  0.86333  0.70169  1.0000
  H   H92       1.0  0.24247000000000027  0.9900699999999997  0.62871  1.0000
  H   H93       1.0  0.44158  0.19202999999999998  0.29251  1.0000
  H   H94       1.0  0.5116000000000002  0.23722  0.3828899999999999  1.0000
  H   H95       1.0  0.70166  0.17957999999999996  0.25554  1.0000
  H   H96       1.0  0.62897  0.13843  0.2428  1.0000
  H   H97       1.0  0.07407000000000002  0.19197  0.2924  1.0000
  H   H98       1.0  0.8678900000000003  0.23736000000000002  0.3831299999999999  1.0000
  H   H99       1.0  0.8635  0.17966999999999994  0.25564  1.0000
  H   H100      1.0  0.9898000000000001  0.13871999999999995  0.24296999999999996  1.0000
  H   H101      1.0  0.19212000000000004  0.07379  0.44135  1.0000
  H   H102      1.0  0.23756999999999998  0.8678  0.51181  1.0000
  H   H103      1.0  0.17970999999999993  0.8630500000000001  0.7017499999999999  1.0000
  H   H104      1.0  0.13874000000000022  0.9897699999999999  0.6287  1.0000
  H   H105      1.0  0.4417400000000001  0.29258999999999996  0.19192  1.0000
  H   H106      1.0  0.51168  0.38296  0.23729  1.0000
  H   H107      1.0  0.70157  0.2555699999999999  0.17971  1.0000
  H   H108      1.0  0.6290500000000001  0.2429499999999999  0.13831  1.0000
  H   H109      1.0  0.29222  0.4412999999999999  0.07432  1.0000
  H   H110      1.0  0.3830200000000002  0.51168  0.8681699999999999  1.0000
  H   H111      1.0  0.25537  0.70167  0.8633799999999998  1.0000
  H   H112      1.0  0.24249000000000018  0.6287  0.9901099999999999  1.0000
  H   H113      1.0  0.44135  0.07419  0.29222  1.0000
  H   H114      1.0  0.5116400000000002  0.8682499999999997  0.38294  1.0000
  H   H115      1.0  0.7017000000000002  0.8634299999999998  0.25538  1.0000
  H   H116      1.0  0.6287499999999999  0.99014  0.24238  1.0000
  H   H117      1.0  0.2925  0.19196000000000002  0.4417  1.0000
  H   H118      1.0  0.38293999999999995  0.23733000000000004  0.51156  1.0000
  H   H119      1.0  0.25559999999999994  0.17964  0.70155  1.0000
  H   H120      1.0  0.24284000000000008  0.13832999999999998  0.62906  1.0000
  H   H121      1.0  0.07375000000000008  0.4414199999999999  0.19211999999999996  1.0000
  H   H122      1.0  0.8678300000000001  0.51171  0.23759999999999995  1.0000
  H   H123      1.0  0.8629300000000001  0.7017999999999998  0.1798  1.0000
  H   H124      1.0  0.98978  0.6287699999999998  0.13873  1.0000
  H   H125      1.0  0.19204999999999997  0.29242  0.07406  1.0000
  H   H126      1.0  0.23740000000000014  0.38319999999999976  0.86802  1.0000
  H   H127      1.0  0.17972  0.25567  0.86343  1.0000
  H   H128      1.0  0.13874  0.24282  0.9898  1.0000
  H   H129      1.0  0.19206000000000012  0.4416199999999999  0.29253  1.0000
  H   H130      1.0  0.23736000000000002  0.5115799999999999  0.38294  1.0000
  H   H131      1.0  0.17959  0.70163  0.2555  1.0000
  H   H132      1.0  0.13840999999999998  0.62896  0.24288999999999997  1.0000
  H   H133      1.0  0.07423000000000005  0.2922299999999999  0.44131  1.0000
  H   H134      1.0  0.8681500000000001  0.3830199999999999  0.51165  1.0000
  H   H135      1.0  0.8632900000000001  0.25536  0.70168  1.0000
  H   H136      1.0  0.9900999999999998  0.24241  0.6287  1.0000
  H   H137      1.0  0.29248  0.07400999999999999  0.19205  1.0000
  H   H138      1.0  0.3831900000000001  0.8679299999999998  0.23744  1.0000
  H   H139      1.0  0.25563  0.86335  0.17976  1.0000
  H   H140      1.0  0.24286000000000008  0.9898699999999999  0.13876  1.0000
  H   H141      1.0  0.44138000000000005  0.19207999999999995  0.07368  1.0000
  H   H142      1.0  0.5117500000000003  0.23755999999999997  0.86793  1.0000
  H   H143      1.0  0.70184  0.17980999999999997  0.86295  1.0000
  H   H144      1.0  0.6287899999999998  0.1387  0.98985  1.0000
  H   H145      1.0  0.9261800000000001  0.8079399999999998  0.55865  1.0000
  H   H146      1.0  0.1321000000000001  0.7624999999999997  0.48822  1.0000
  H   H147      1.0  0.1369400000000001  0.8202499999999998  0.29828  1.0000
  H   H148      1.0  0.010150000000000095  0.8612999999999997  0.37127999999999994  1.0000
  H   H149      1.0  0.80793  0.9259499999999999  0.70763  1.0000
  H   H150      1.0  0.7626  0.13206000000000004  0.6168499999999999  1.0000
  H   H151      1.0  0.8202900000000002  0.13659000000000004  0.7442999999999997  1.0000
  H   H152      1.0  0.8612  0.010110000000000032  0.7571899999999999  1.0000
  H   H153      1.0  0.55859  0.7077999999999999  0.92578  1.0000
  H   H154      1.0  0.48834000000000016  0.61702  0.13179  1.0000
  H   H155      1.0  0.29834000000000005  0.7445399999999998  0.13673  1.0000
  H   H156      1.0  0.37124000000000007  0.75761  0.00986  1.0000
  H   H157      1.0  0.7074600000000001  0.5583699999999998  0.80802  1.0000
  H   H158      1.0  0.6171100000000003  0.4883799999999999  0.76271  1.0000
  H   H159      1.0  0.7444800000000001  0.29839999999999994  0.82049  1.0000
  H   H160      1.0  0.7570900000000002  0.37083999999999995  0.86173  1.0000
  H   H161      1.0  0.5586400000000004  0.9262799999999997  0.80786  1.0000
  H   H162      1.0  0.48827000000000004  0.13206  0.76249  1.0000
  H   H163      1.0  0.29815  0.13699999999999998  0.82023  1.0000
  H   H164      1.0  0.3712600000000001  0.010140000000000048  0.8612899999999998  1.0000
  H   H165      1.0  0.7076000000000002  0.8079399999999999  0.9259299999999998  1.0000
  H   H166      1.0  0.6167900000000002  0.7625599999999998  0.13203  1.0000
  H   H167      1.0  0.7443400000000001  0.8202699999999999  0.13657  1.0000
  H   H168      1.0  0.75712  0.8612799999999998  0.01016  1.0000
  H   H169      1.0  0.92583  0.5586099999999999  0.7077299999999999  1.0000
  H   H170      1.0  0.13179000000000002  0.4883  0.61703  1.0000
  H   H171      1.0  0.13649000000000003  0.29825999999999997  0.74475  1.0000
  H   H172      1.0  0.009899999999999982  0.37119  0.75763  1.0000
  H   H173      1.0  0.80796  0.70748  0.55838  1.0000
  H   H174      1.0  0.76276  0.61701  0.48843  1.0000
  H   H175      1.0  0.82037  0.7444699999999997  0.29836  1.0000
  H   H176      1.0  0.8616199999999999  0.75711  0.37106  1.0000
  H   H177      1.0  0.80799  0.5585500000000001  0.9263399999999999  1.0000
  H   H178      1.0  0.7624100000000001  0.48816  0.13221  1.0000
  H   H179      1.0  0.8202400000000004  0.2981899999999999  0.13688  1.0000
  H   H180      1.0  0.86136  0.3712799999999999  0.01017  1.0000
  H   H181      1.0  0.9260100000000001  0.70742  0.80805  1.0000
  H   H182      1.0  0.13203000000000012  0.6168399999999998  0.76263  1.0000
  H   H183      1.0  0.13655000000000006  0.74437  0.8202899999999997  1.0000
  H   H184      1.0  0.010150000000000095  0.7571499999999999  0.86124  1.0000
  H   H185      1.0  0.7077699999999997  0.92587  0.55852  1.0000
  H   H186      1.0  0.61707  0.13195  0.4881599999999999  1.0000
  H   H187      1.0  0.74471  0.13650999999999994  0.2983  1.0000
  H   H188      1.0  0.75748  0.01001  0.37118  1.0000
  H   H189      1.0  0.5584000000000001  0.8080699999999997  0.70743  1.0000
  H   H190      1.0  0.4884000000000003  0.7627299999999999  0.6170799999999997  1.0000
  H   H191      1.0  0.29839000000000004  0.8204299999999998  0.74447  1.0000
  H   H192      1.0  0.37104  0.86161  0.75715  1.0000
  H   H193      1.0  0.06497999999999995  0.84864  0.54302  1.0000
  H   H194      1.0  0.8487  0.06491  0.54309  1.0000
  H   H195      1.0  0.5431099999999999  0.54324  0.8489  1.0000
  H   H196      1.0  0.5432600000000002  0.5433899999999998  0.06466  1.0000
  H   H197      1.0  0.54321  0.06467000000000002  0.54333  1.0000
  H   H198      1.0  0.54314  0.84895  0.54314  1.0000
  H   H199      1.0  0.06498000000000007  0.54289  0.8486499999999999  1.0000
  H   H200      1.0  0.8487  0.54325  0.06497  1.0000
  H   H201      1.0  0.8489199999999999  0.54318  0.54309  1.0000
  H   H202      1.0  0.06473000000000013  0.5432599999999997  0.54332  1.0000
  H   H203      1.0  0.5430400000000001  0.06501999999999994  0.84866  1.0000
  H   H204      1.0  0.54314  0.8486999999999999  0.065  1.0000
  H   H205      1.0  0.93502  0.15132000000000004  0.45691  1.0000
  H   H206      1.0  0.1512400000000001  0.9350999999999999  0.4569499999999999  1.0000
  H   H207      1.0  0.4565900000000001  0.45682999999999996  0.93531  1.0000
  H   H208      1.0  0.45681000000000005  0.45695999999999987  0.15097999999999998  1.0000
  H   H209      1.0  0.45698000000000005  0.9349799999999998  0.15134999999999998  1.0000
  H   H210      1.0  0.4568900000000002  0.15124999999999988  0.935  1.0000
  H   H211      1.0  0.9352500000000001  0.4566699999999999  0.45675  1.0000
  H   H212      1.0  0.15097000000000002  0.4568999999999999  0.45686999999999994  1.0000
  H   H213      1.0  0.15122999999999995  0.45690000000000003  0.9351  1.0000
  H   H214      1.0  0.93503  0.4569499999999999  0.15138  1.0000
  H   H215      1.0  0.4567700000000003  0.9353099999999996  0.45660999999999996  1.0000
  H   H216      1.0  0.45683000000000007  0.15108  0.45681  1.0000
  H   H217      1.0  0.054329999999999955  0.9457499999999999  0.60259  1.0000
  H   H218      1.0  0.9456499999999999  0.05418999999999998  0.3975  1.0000
  H   H219      1.0  0.39712  0.60251  0.94589  1.0000
  H   H220      1.0  0.60296  0.39753  0.05405999999999998  1.0000
  H   H221      1.0  0.39747  0.05418000000000001  0.60277  1.0000
  H   H222      1.0  0.60255  0.9457999999999999  0.39716  1.0000
  H   H223      1.0  0.05433999999999991  0.39732  0.94568  1.0000
  H   H224      1.0  0.9457299999999998  0.60256  0.05442  1.0000
  H   H225      1.0  0.9458499999999999  0.39718999999999993  0.60247  1.0000
  H   H226      1.0  0.05412000000000001  0.60287  0.39751999999999993  1.0000
  H   H227      1.0  0.6025999999999999  0.054339999999999916  0.9457  1.0000
  H   H228      1.0  0.39733000000000007  0.9456699999999998  0.05436  1.0000
  H   H229      1.0  0.9457400000000001  0.054359999999999985  0.60258  1.0000
  H   H230      1.0  0.05428000000000002  0.94571  0.3974099999999999  1.0000
  H   H231      1.0  0.6025700000000003  0.39712000000000003  0.9458599999999999  1.0000
  H   H232      1.0  0.3975000000000001  0.6029299999999999  0.054089999999999985  1.0000
  H   H233      1.0  0.6026800000000002  0.9456099999999997  0.05436  1.0000
  H   H234      1.0  0.39734  0.05439999999999995  0.94569  1.0000
  H   H235      1.0  0.9460000000000001  0.60233  0.39711  1.0000
  H   H236      1.0  0.054150000000000004  0.3974599999999998  0.60281  1.0000
  H   H237      1.0  0.054329999999999955  0.60259  0.94575  1.0000
  H   H238      1.0  0.9456800000000002  0.3973399999999999  0.05429  1.0000
  H   H239      1.0  0.39709999999999984  0.94594  0.60246  1.0000
  H   H240      1.0  0.6029  0.05403999999999999  0.39753  1.0000
  H   H241      1.0  0.0031700000000001363  0.7358699999999998  0.73579  1.0000
  H   H242      1.0  0.73582  0.0030400000000000114  0.52525  1.0000
  H   H243      1.0  0.5252000000000001  0.7358799999999998  0.73597  1.0000
  H   H244      1.0  0.7360300000000001  0.52529  0.0030799999999999994  1.0000
  H   H245      1.0  0.5253  0.0030400000000000114  0.7358  1.0000
  H   H246      1.0  0.73585  0.7359099999999997  0.52516  1.0000
  H   H247      1.0  0.003070000000000059  0.52528  0.73592  1.0000
  H   H248      1.0  0.7358100000000002  0.7358699999999998  0.0031299999999999995  1.0000
  H   H249      1.0  0.73592  0.52518  0.73588  1.0000
  H   H250      1.0  0.0030800000000001204  0.7358499999999998  0.52533  1.0000
  H   H251      1.0  0.73586  0.0031500000000000286  0.73583  1.0000
  H   H252      1.0  0.5253500000000001  0.7359499999999998  0.00299  1.0000
  H   H253      1.0  0.99692  0.26407  0.47465  1.0000
  H   H254      1.0  0.2640800000000001  0.9968699999999998  0.26419  1.0000
  H   H255      1.0  0.47468  0.26416  0.99694  1.0000
  H   H256      1.0  0.26403000000000004  0.47485  0.26406  1.0000
  H   H257      1.0  0.4747100000000002  0.9969299999999999  0.26408  1.0000
  H   H258      1.0  0.26417  0.26417  0.99686  1.0000
  H   H259      1.0  0.9969100000000002  0.47471999999999986  0.26421  1.0000
  H   H260      1.0  0.26411  0.2640699999999999  0.47481  1.0000
  H   H261      1.0  0.26404  0.47473  0.99697  1.0000
  H   H262      1.0  0.99685  0.264  0.2643  1.0000
  H   H263      1.0  0.26406000000000024  0.9968999999999998  0.47471999999999986  1.0000
  H   H264      1.0  0.47482000000000013  0.2641599999999999  0.264  1.0000
  H   H265      1.0  0.9294500000000002  0.9294299999999998  0.62783  1.0000
  H   H266      1.0  0.9295200000000002  0.9294699999999998  0.5132  1.0000
  H   H267      1.0  0.5132800000000001  0.62781  0.92948  1.0000
  H   H268      1.0  0.62785  0.51331  0.92942  1.0000
  H   H269      1.0  0.51328  0.9294  0.62777  1.0000
  H   H270      1.0  0.6278000000000004  0.9295199999999997  0.51326  1.0000
  H   H271      1.0  0.92962  0.5131399999999998  0.92939  1.0000
  H   H272      1.0  0.9294599999999998  0.62779  0.92947  1.0000
  H   H273      1.0  0.92956  0.5131399999999998  0.62777  1.0000
  H   H274      1.0  0.9296299999999996  0.6277900000000001  0.51323  1.0000
  H   H275      1.0  0.6278300000000001  0.9294999999999999  0.92939  1.0000
  H   H276      1.0  0.5132099999999999  0.9294  0.92948  1.0000
  H   H277      1.0  0.07060000000000002  0.07043  0.4868  1.0000
  H   H278      1.0  0.07054999999999999  0.07051  0.3722  1.0000
  H   H279      1.0  0.4867699999999999  0.37220999999999993  0.07046  1.0000
  H   H280      1.0  0.37223  0.4867199999999999  0.07053  1.0000
  H   H281      1.0  0.48683999999999994  0.07053000000000001  0.07048  1.0000
  H   H282      1.0  0.37219  0.07058999999999997  0.07051  1.0000
  H   H283      1.0  0.07048000000000011  0.4867799999999999  0.37217999999999996  1.0000
  H   H284      1.0  0.07051000000000014  0.3722199999999999  0.4868  1.0000
  H   H285      1.0  0.07046  0.4868399999999999  0.07057  1.0000
  H   H286      1.0  0.07072999999999999  0.37216  0.07045  1.0000
  H   H287      1.0  0.37221000000000004  0.07051999999999999  0.48671  1.0000
  H   H288      1.0  0.4867000000000001  0.07061999999999996  0.37216  1.0000
  C   C1        1.0  0.96732  0.82012  0.6277499999999999  1.0000
  C   C2        1.0  0.9295400000000001  0.80788  0.67277  1.0000
  C   C3        1.0  0.13071  0.8390299999999998  0.58995  1.0000
  C   C4        1.0  0.15275000000000008  0.7886699999999999  0.59406  1.0000
  C   C5        1.0  0.07333  0.77793  0.73476  1.0000
  C   C6        1.0  0.11866000000000011  0.7954799999999997  0.75261  1.0000
  C   C7        1.0  0.9549500000000002  0.9120599999999998  0.7191199999999998  1.0000
  C   C8        1.0  0.9767100000000001  0.89377  0.75484  1.0000
  C   C9        1.0  0.8199900000000001  0.9673999999999999  0.58499  1.0000
  C   C10       1.0  0.8078099999999996  0.9296500000000001  0.59006  1.0000
  C   C11       1.0  0.8389000000000003  0.13073  0.44020999999999993  1.0000
  C   C12       1.0  0.78852  0.15275  0.46443  1.0000
  C   C13       1.0  0.77801  0.07334999999999998  0.41375  1.0000
  C   C14       1.0  0.7956500000000001  0.11876  0.3328  1.0000
  C   C15       1.0  0.9121200000000003  0.9550199999999998  0.41372999999999993  1.0000
  C   C16       1.0  0.8937500000000002  0.9766999999999998  0.37459  1.0000
  C   C17       1.0  0.5847400000000004  0.6277099999999998  0.8201599999999998  1.0000
  C   C18       1.0  0.5896899999999998  0.6726600000000001  0.80799  1.0000
  C   C19       1.0  0.4402500000000002  0.5899799999999995  0.83921  1.0000
  C   C20       1.0  0.46448999999999996  0.5941800000000002  0.7888299999999999  1.0000
  C   C21       1.0  0.4137700000000002  0.7350099999999998  0.7781  1.0000
  C   C22       1.0  0.3329100000000004  0.7527999999999996  0.79566  1.0000
  C   C23       1.0  0.41345000000000015  0.7190900000000001  0.91234  1.0000
  C   C24       1.0  0.37418000000000007  0.7548800000000001  0.89407  1.0000
  C   C25       1.0  0.6279000000000001  0.58508  0.9670599999999998  1.0000
  C   C26       1.0  0.6729100000000001  0.59007  0.9292999999999999  1.0000
  C   C27       1.0  0.59011  0.44026  0.13051  1.0000
  C   C28       1.0  0.59419  0.4644  0.15252  1.0000
  C   C29       1.0  0.7349900000000001  0.41377  0.07325  1.0000
  C   C30       1.0  0.7527500000000001  0.33285999999999993  0.11869999999999997  1.0000
  C   C31       1.0  0.7192700000000001  0.41359999999999997  0.95498  1.0000
  C   C32       1.0  0.75518  0.37438000000000005  0.97659  1.0000
  C   C33       1.0  0.5850100000000001  0.9671499999999998  0.62789  1.0000
  C   C34       1.0  0.59002  0.9293500000000001  0.67286  1.0000
  C   C35       1.0  0.44020999999999993  0.13055  0.59002  1.0000
  C   C36       1.0  0.46435  0.15253  0.59414  1.0000
  C   C37       1.0  0.41386  0.07328  0.73494  1.0000
  C   C38       1.0  0.33285999999999993  0.11863999999999998  0.75283  1.0000
  C   C39       1.0  0.41361000000000003  0.9549499999999999  0.71927  1.0000
  C   C40       1.0  0.37439000000000017  0.9765799999999999  0.7551999999999998  1.0000
  C   C41       1.0  0.6276700000000001  0.8201499999999998  0.58474  1.0000
  C   C42       1.0  0.67264  0.8079899999999999  0.58965  1.0000
  C   C43       1.0  0.5899900000000001  0.83918  0.44016  1.0000
  C   C44       1.0  0.5941800000000002  0.7888099999999998  0.4644  1.0000
  C   C45       1.0  0.73494  0.77812  0.41375  1.0000
  C   C46       1.0  0.75279  0.79567  0.33288  1.0000
  C   C47       1.0  0.7190600000000005  0.9124099999999996  0.41338  1.0000
  C   C48       1.0  0.7549099999999999  0.89416  0.37410999999999994  1.0000
  C   C49       1.0  0.9674099999999999  0.58484  0.82002  1.0000
  C   C50       1.0  0.92969  0.5899099999999998  0.8078  1.0000
  C   C51       1.0  0.13078999999999996  0.44015999999999994  0.83901  1.0000
  C   C52       1.0  0.15283000000000005  0.46429  0.7886099999999998  1.0000
  C   C53       1.0  0.07325000000000002  0.41372999999999993  0.77809  1.0000
  C   C54       1.0  0.11871000000000001  0.33276999999999995  0.79567  1.0000
  C   C55       1.0  0.9551100000000003  0.41361000000000003  0.9121299999999999  1.0000
  C   C56       1.0  0.9767600000000002  0.3744699999999998  0.89375  1.0000
  C   C57       1.0  0.8200399999999999  0.62781  0.96737  1.0000
  C   C58       1.0  0.8078700000000001  0.6728  0.9295299999999999  1.0000
  C   C59       1.0  0.8390300000000002  0.58988  0.13077  1.0000
  C   C60       1.0  0.78867  0.59403  0.1528  1.0000
  C   C61       1.0  0.7778700000000001  0.7347599999999997  0.07336  1.0000
  C   C62       1.0  0.7954900000000003  0.7525799999999998  0.11866  1.0000
  C   C63       1.0  0.9120900000000002  0.7191000000000001  0.95498  1.0000
  C   C64       1.0  0.89379  0.75485  0.97672  1.0000
  C   C65       1.0  0.8201000000000002  0.58475  0.62768  1.0000
  C   C66       1.0  0.8079800000000003  0.5897299999999998  0.6726099999999999  1.0000
  C   C67       1.0  0.83918  0.4401899999999998  0.59  1.0000
  C   C68       1.0  0.78881  0.4644599999999998  0.59421  1.0000
  C   C69       1.0  0.7781600000000003  0.41370999999999986  0.73501  1.0000
  C   C70       1.0  0.7956399999999999  0.33289  0.7528  1.0000
  C   C71       1.0  0.9123599999999998  0.41340999999999994  0.71914  1.0000
  C   C72       1.0  0.8940400000000001  0.3741799999999998  0.75499  1.0000
  C   C73       1.0  0.9671300000000002  0.6278999999999999  0.58507  1.0000
  C   C74       1.0  0.92933  0.6728899999999998  0.59007  1.0000
  C   C75       1.0  0.13052000000000002  0.5901099999999999  0.44023  1.0000
  C   C76       1.0  0.15256000000000003  0.59419  0.46435  1.0000
  C   C77       1.0  0.07327000000000006  0.73494  0.41377999999999987  1.0000
  C   C78       1.0  0.11867000000000022  0.7528299999999997  0.33283  1.0000
  C   C79       1.0  0.95497  0.7193100000000001  0.41359  1.0000
  C   C80       1.0  0.9766  0.7552099999999999  0.37438  1.0000
  C   C81       1.0  0.62775  0.9673600000000001  0.82008  1.0000
  C   C82       1.0  0.6727700000000001  0.92956  0.80787  1.0000
  C   C83       1.0  0.58993  0.13072000000000003  0.83906  1.0000
  C   C84       1.0  0.5940300000000001  0.15274000000000001  0.78872  1.0000
  C   C85       1.0  0.7346999999999996  0.07340000000000006  0.7778999999999999  1.0000
  C   C86       1.0  0.75261  0.11863000000000005  0.7955299999999997  1.0000
  C   C87       1.0  0.7191000000000002  0.9549799999999996  0.91212  1.0000
  C   C88       1.0  0.7548500000000001  0.97672  0.89382  1.0000
  C   C89       1.0  0.5849200000000002  0.8200299999999996  0.96746  1.0000
  C   C90       1.0  0.5899800000000003  0.80785  0.9297199999999999  1.0000
  C   C91       1.0  0.4401900000000001  0.8389899999999999  0.13078  1.0000
  C   C92       1.0  0.4643900000000002  0.7885899999999998  0.15277  1.0000
  C   C93       1.0  0.4137300000000001  0.7779799999999998  0.07338  1.0000
  C   C94       1.0  0.33281000000000005  0.7955199999999998  0.11886  1.0000
  C   C95       1.0  0.4136300000000001  0.9121600000000001  0.9550599999999999  1.0000
  C   C96       1.0  0.37447  0.89383  0.97675  1.0000
  C   C97       1.0  0.03257999999999998  0.17996000000000004  0.41502  1.0000
  C   C98       1.0  0.07030000000000004  0.1921599999999999  0.40997  1.0000
  C   C99       1.0  0.86923  0.16105000000000003  0.5598  1.0000
  C   C100      1.0  0.84721  0.21144  0.53563  1.0000
  C   C101      1.0  0.92667  0.22197  0.58623  1.0000
  C   C102      1.0  0.88118  0.20439999999999997  0.66717  1.0000
  C   C103      1.0  0.04499000000000002  0.08780000000000002  0.58631  1.0000
  C   C104      1.0  0.023290000000000012  0.10614000000000003  0.6254699999999999  1.0000
  C   C105      1.0  0.1799  0.03266000000000001  0.37225  1.0000
  C   C106      1.0  0.19209  0.07046000000000002  0.3272399999999999  1.0000
  C   C107      1.0  0.1609700000000002  0.8692899999999998  0.41006  1.0000
  C   C108      1.0  0.21132000000000004  0.8472600000000001  0.4059799999999999  1.0000
  C   C109      1.0  0.22213  0.9266399999999999  0.26523  1.0000
  C   C110      1.0  0.20447999999999997  0.8814  0.24737  1.0000
  C   C111      1.0  0.08789000000000002  0.04499000000000001  0.28093  1.0000
  C   C112      1.0  0.10619  0.02327  0.24516  1.0000
  C   C113      1.0  0.4149900000000001  0.3721099999999999  0.03288  1.0000
  C   C114      1.0  0.41002999999999995  0.32709  0.07064  1.0000
  C   C115      1.0  0.55984  0.4099399999999999  0.86944  1.0000
  C   C116      1.0  0.5357100000000002  0.40581999999999996  0.84745  1.0000
  C   C117      1.0  0.5862100000000002  0.2650099999999999  0.9266999999999999  1.0000
  C   C118      1.0  0.6671600000000001  0.24716999999999997  0.8813299999999997  1.0000
  C   C119      1.0  0.5864500000000001  0.2807099999999999  0.04501  1.0000
  C   C120      1.0  0.62567  0.24479999999999993  0.02339  1.0000
  C   C121      1.0  0.37233  0.41526999999999986  0.17982  1.0000
  C   C122      1.0  0.32737  0.4102899999999999  0.192  1.0000
  C   C123      1.0  0.41004999999999997  0.5598  0.16074  1.0000
  C   C124      1.0  0.4058300000000001  0.53556  0.21110999999999996  1.0000
  C   C125      1.0  0.26497  0.58626  0.22184999999999996  1.0000
  C   C126      1.0  0.24722000000000005  0.6670899999999998  0.20429999999999995  1.0000
  C   C127      1.0  0.28094  0.5865599999999999  0.08764  1.0000
  C   C128      1.0  0.24511  0.62584  0.10591  1.0000
  C   C129      1.0  0.41511  0.032540000000000006  0.18  1.0000
  C   C130      1.0  0.41006999999999993  0.07029999999999997  0.19215  1.0000
  C   C131      1.0  0.5597999999999999  0.8692  0.16104  1.0000
  C   C132      1.0  0.5356500000000001  0.8471799999999998  0.21145  1.0000
  C   C133      1.0  0.58626  0.9266399999999999  0.22196999999999997  1.0000
  C   C134      1.0  0.66727  0.8812699999999999  0.20433999999999997  1.0000
  C   C135      1.0  0.58636  0.04496000000000001  0.08785  1.0000
  C   C136      1.0  0.62554  0.023289999999999998  0.10618  1.0000
  C   C137      1.0  0.37225  0.17992  0.03262  1.0000
  C   C138      1.0  0.3272300000000001  0.19209999999999994  0.07042  1.0000
  C   C139      1.0  0.41008000000000006  0.16099  0.86925  1.0000
  C   C140      1.0  0.40597000000000005  0.2113199999999999  0.84725  1.0000
  C   C141      1.0  0.26524999999999993  0.22209999999999996  0.92665  1.0000
  C   C142      1.0  0.24738999999999997  0.20452  0.88136  1.0000
  C   C143      1.0  0.28091000000000005  0.08788999999999997  0.04501  1.0000
  C   C144      1.0  0.24516999999999997  0.10618  0.02327  1.0000
  C   C145      1.0  0.03286999999999995  0.4149900000000001  0.37207  1.0000
  C   C146      1.0  0.07069000000000011  0.4099599999999999  0.32707999999999987  1.0000
  C   C147      1.0  0.8694800000000001  0.55978  0.40989  1.0000
  C   C148      1.0  0.8475200000000002  0.5356199999999998  0.40578  1.0000
  C   C149      1.0  0.92674  0.58619  0.26502  1.0000
  C   C150      1.0  0.8813400000000001  0.66715  0.24715999999999994  1.0000
  C   C151      1.0  0.04505000000000026  0.5864299999999996  0.28072  1.0000
  C   C152      1.0  0.023420000000000017  0.6256  0.24481  1.0000
  C   C153      1.0  0.1799300000000001  0.37233999999999995  0.41518999999999995  1.0000
  C   C154      1.0  0.19201999999999997  0.32739999999999997  0.41026  1.0000
  C   C155      1.0  0.16078000000000012  0.4099899999999998  0.55979  1.0000
  C   C156      1.0  0.21116  0.40575999999999995  0.53553  1.0000
  C   C157      1.0  0.22191000000000013  0.26501999999999987  0.58621  1.0000
  C   C158      1.0  0.20437000000000008  0.24719  0.66706  1.0000
  C   C159      1.0  0.08767000000000003  0.2808499999999999  0.58654  1.0000
  C   C160      1.0  0.10591000000000005  0.24505000000000002  0.6258199999999999  1.0000
  C   C161      1.0  0.17998000000000008  0.4150799999999999  0.03257  1.0000
  C   C162      1.0  0.19216  0.41003  0.0703  1.0000
  C   C163      1.0  0.1610300000000001  0.5598699999999999  0.86921  1.0000
  C   C164      1.0  0.21142000000000005  0.53566  0.84721  1.0000
  C   C165      1.0  0.22191000000000025  0.5863399999999999  0.9267299999999998  1.0000
  C   C166      1.0  0.20441999999999996  0.66722  0.88117  1.0000
  C   C167      1.0  0.08779000000000009  0.5863699999999997  0.04495  1.0000
  C   C168      1.0  0.10614000000000012  0.6255099999999998  0.02328  1.0000
  C   C169      1.0  0.032669999999999984  0.37228  0.17995  1.0000
  C   C170      1.0  0.07049000000000004  0.3272699999999999  0.1921  1.0000
  C   C171      1.0  0.86931  0.41003  0.16097  1.0000
  C   C172      1.0  0.84729  0.40599  0.2113  1.0000
  C   C173      1.0  0.9265300000000002  0.26536  0.22213999999999995  1.0000
  C   C174      1.0  0.8813900000000001  0.24742999999999998  0.20441  1.0000
  C   C175      1.0  0.04507000000000001  0.28093  0.08788  1.0000
  C   C176      1.0  0.02331000000000004  0.24519999999999995  0.10618999999999998  1.0000
  C   C177      1.0  0.37209  0.03287999999999998  0.41493  1.0000
  C   C178      1.0  0.32707  0.07064999999999998  0.40997999999999996  1.0000
  C   C179      1.0  0.4099200000000001  0.86949  0.55976  1.0000
  C   C180      1.0  0.4058500000000002  0.8474499999999998  0.53563  1.0000
  C   C181      1.0  0.26503000000000004  0.9267299999999998  0.58621  1.0000
  C   C182      1.0  0.24717999999999998  0.8813  0.66715  1.0000
  C   C183      1.0  0.2807200000000001  0.04503000000000002  0.58639  1.0000
  C   C184      1.0  0.24482999999999994  0.02339  0.6256  1.0000
  C   C185      1.0  0.41520000000000007  0.1798899999999999  0.3723  1.0000
  C   C186      1.0  0.4102300000000001  0.19203999999999988  0.32736  1.0000
  C   C187      1.0  0.5598200000000001  0.16078999999999996  0.40992  1.0000
  C   C188      1.0  0.53553  0.2111599999999999  0.40575  1.0000
  C   C189      1.0  0.58623  0.22188  0.26514  1.0000
  C   C190      1.0  0.66711  0.20425999999999997  0.24731999999999996  1.0000
  C   C191      1.0  0.58649  0.08772  0.28083  1.0000
  C   C192      1.0  0.6257600000000001  0.10596999999999995  0.24504  1.0000
  C   C193      1.0  0.032670000000000005  0.17986  0.3722  1.0000
  C   C194      1.0  0.07050000000000003  0.19204000000000002  0.3271899999999999  1.0000
  C   C195      1.0  0.8692299999999996  0.16092  0.41007  1.0000
  C   C196      1.0  0.8472100000000001  0.21126999999999996  0.4059799999999999  1.0000
  C   C197      1.0  0.9266100000000002  0.2221399999999999  0.26523  1.0000
  C   C198      1.0  0.8814200000000001  0.2044999999999999  0.24731  1.0000
  C   C199      1.0  0.045019999999999984  0.08784000000000002  0.28096  1.0000
  C   C200      1.0  0.023260000000000055  0.10615999999999999  0.24522999999999995  1.0000
  C   C201      1.0  0.17998000000000003  0.032580000000000005  0.41507  1.0000
  C   C202      1.0  0.19218  0.07031  0.41002  1.0000
  C   C203      1.0  0.16103000000000003  0.8692199999999999  0.55983  1.0000
  C   C204      1.0  0.21143000000000023  0.8471999999999997  0.53565  1.0000
  C   C205      1.0  0.2219400000000001  0.9266799999999997  0.58628  1.0000
  C   C206      1.0  0.20438000000000006  0.8811999999999998  0.6672  1.0000
  C   C207      1.0  0.08783999999999999  0.04492000000000001  0.58633  1.0000
  C   C208      1.0  0.10619000000000006  0.023240000000000014  0.6254699999999999  1.0000
  C   C209      1.0  0.4152600000000001  0.3723799999999999  0.17979  1.0000
  C   C210      1.0  0.41033  0.3274099999999999  0.19197  1.0000
  C   C211      1.0  0.55981  0.41004999999999997  0.16075  1.0000
  C   C212      1.0  0.5355800000000001  0.40580999999999984  0.21114  1.0000
  C   C213      1.0  0.5862800000000001  0.26494999999999996  0.22189999999999993  1.0000
  C   C214      1.0  0.6671200000000002  0.24715999999999988  0.20439  1.0000
  C   C215      1.0  0.58657  0.28090999999999994  0.08762  1.0000
  C   C216      1.0  0.62584  0.24511999999999995  0.10587999999999999  1.0000
  C   C217      1.0  0.37205000000000005  0.4149899999999999  0.0329  1.0000
  C   C218      1.0  0.32707000000000014  0.4099599999999999  0.07072  1.0000
  C   C219      1.0  0.4099400000000002  0.5597699999999998  0.86947  1.0000
  C   C220      1.0  0.40582999999999997  0.53563  0.84749  1.0000
  C   C221      1.0  0.26506999999999986  0.5862100000000001  0.92668  1.0000
  C   C222      1.0  0.24720000000000003  0.66715  0.88131  1.0000
  C   C223      1.0  0.2807700000000001  0.5863899999999997  0.04505  1.0000
  C   C224      1.0  0.24487000000000003  0.62559  0.023419999999999996  1.0000
  C   C225      1.0  0.41500999999999993  0.032880000000000006  0.37204  1.0000
  C   C226      1.0  0.40999  0.07068000000000002  0.32707  1.0000
  C   C227      1.0  0.5597200000000001  0.86949  0.40991  1.0000
  C   C228      1.0  0.5355500000000003  0.84751  0.40581  1.0000
  C   C229      1.0  0.5861800000000001  0.9267699999999998  0.26502  1.0000
  C   C230      1.0  0.6671799999999999  0.8814  0.24715999999999994  1.0000
  C   C231      1.0  0.5864  0.04508999999999999  0.28069  1.0000
  C   C232      1.0  0.62562  0.023440000000000016  0.24477999999999994  1.0000
  C   C233      1.0  0.3722900000000002  0.17986  0.41521  1.0000
  C   C234      1.0  0.32732999999999995  0.19204000000000002  0.41028  1.0000
  C   C235      1.0  0.40993000000000007  0.16085  0.55978  1.0000
  C   C236      1.0  0.40576000000000007  0.21120999999999993  0.53551  1.0000
  C   C237      1.0  0.26504000000000005  0.22182  0.58622  1.0000
  C   C238      1.0  0.24730000000000008  0.20428  0.6670499999999999  1.0000
  C   C239      1.0  0.28090000000000004  0.08763  0.58653  1.0000
  C   C240      1.0  0.24507999999999996  0.10588999999999997  0.62581  1.0000
  C   C241      1.0  0.032610000000000014  0.4150999999999999  0.17999  1.0000
  C   C242      1.0  0.07034999999999998  0.41003  0.19219999999999998  1.0000
  C   C243      1.0  0.86925  0.5597499999999997  0.16108  1.0000
  C   C244      1.0  0.8472100000000001  0.5356099999999998  0.21147  1.0000
  C   C245      1.0  0.92673  0.5862700000000001  0.22191  1.0000
  C   C246      1.0  0.88119  0.66721  0.20436  1.0000
  C   C247      1.0  0.04494000000000007  0.5863799999999998  0.08781  1.0000
  C   C248      1.0  0.02326000000000011  0.6255199999999997  0.1062  1.0000
  C   C249      1.0  0.17995000000000003  0.3722399999999999  0.03266  1.0000
  C   C250      1.0  0.19211999999999996  0.32722  0.07047  1.0000
  C   C251      1.0  0.16097999999999993  0.41009  0.86934  1.0000
  C   C252      1.0  0.2113300000000001  0.40597999999999995  0.84732  1.0000
  C   C253      1.0  0.22209  0.2652600000000001  0.9266699999999998  1.0000
  C   C254      1.0  0.20446999999999999  0.24743  0.88138  1.0000
  C   C255      1.0  0.08792000000000003  0.28092  0.04499  1.0000
  C   C256      1.0  0.10619000000000002  0.24519  0.02325  1.0000
  C   C257      1.0  0.1799600000000001  0.4152399999999999  0.37229  1.0000
  C   C258      1.0  0.19203000000000003  0.41027999999999987  0.32738  1.0000
  C   C259      1.0  0.16079000000000004  0.5597899999999998  0.41001  1.0000
  C   C260      1.0  0.21117000000000002  0.53552  0.4057699999999999  1.0000
  C   C261      1.0  0.22188000000000013  0.58624  0.26511  1.0000
  C   C262      1.0  0.20428000000000007  0.6671199999999998  0.24721  1.0000
  C   C263      1.0  0.08766000000000015  0.5865699999999998  0.28087  1.0000
  C   C264      1.0  0.10592999999999995  0.62583  0.24504  1.0000
  C   C265      1.0  0.03284000000000006  0.3720899999999999  0.41494999999999993  1.0000
  C   C266      1.0  0.07064  0.32709  0.4099999999999999  1.0000
  C   C267      1.0  0.86946  0.40987  0.55978  1.0000
  C   C268      1.0  0.8474500000000001  0.40582999999999986  0.53561  1.0000
  C   C269      1.0  0.92672  0.2650499999999999  0.58617  1.0000
  C   C270      1.0  0.88129  0.24718  0.66714  1.0000
  C   C271      1.0  0.04506000000000003  0.28068999999999994  0.5864  1.0000
  C   C272      1.0  0.023409999999999983  0.2448  0.62559  1.0000
  C   C273      1.0  0.37227  0.03260999999999998  0.17997999999999997  1.0000
  C   C274      1.0  0.32726  0.07046  0.19211  1.0000
  C   C275      1.0  0.4100400000000001  0.8692999999999997  0.161  1.0000
  C   C276      1.0  0.40593  0.84727  0.21134999999999998  1.0000
  C   C277      1.0  0.26531  0.9266  0.22207  1.0000
  C   C278      1.0  0.24739999999999998  0.88138  0.20444  1.0000
  C   C279      1.0  0.28091  0.04505000000000001  0.08785999999999997  1.0000
  C   C280      1.0  0.24515000000000003  0.023320000000000007  0.10616999999999997  1.0000
  C   C281      1.0  0.41508000000000006  0.17998  0.03251  1.0000
  C   C282      1.0  0.41003000000000006  0.19214999999999993  0.07025  1.0000
  C   C283      1.0  0.5598100000000001  0.16105000000000003  0.8692599999999999  1.0000
  C   C284      1.0  0.53561  0.21144000000000002  0.8472699999999999  1.0000
  C   C285      1.0  0.5863200000000001  0.22190000000000001  0.9266699999999998  1.0000
  C   C286      1.0  0.6672600000000001  0.2043799999999999  0.88118  1.0000
  C   C287      1.0  0.58634  0.08781999999999997  0.04502  1.0000
  C   C288      1.0  0.62548  0.10618  0.02331  1.0000
  C   C289      1.0  0.9673800000000001  0.8200799999999999  0.58491  1.0000
  C   C290      1.0  0.9296600000000002  0.80786  0.58998  1.0000
  C   C291      1.0  0.13076999999999994  0.83897  0.44016  1.0000
  C   C292      1.0  0.15277000000000027  0.7885899999999998  0.46437  1.0000
  C   C293      1.0  0.07328000000000007  0.7780299999999998  0.41374  1.0000
  C   C294      1.0  0.11874000000000011  0.79562  0.33281  1.0000
  C   C295      1.0  0.9549899999999998  0.91219  0.41369  1.0000
  C   C296      1.0  0.9766800000000001  0.89383  0.37454  1.0000
  C   C297      1.0  0.8200400000000002  0.9673499999999996  0.62781  1.0000
  C   C298      1.0  0.8078700000000002  0.9295499999999997  0.67282  1.0000
  C   C299      1.0  0.8390300000000002  0.13074  0.58994  1.0000
  C   C300      1.0  0.78867  0.15276999999999996  0.59406  1.0000
  C   C301      1.0  0.7779200000000001  0.07331000000000007  0.7347799999999998  1.0000
  C   C302      1.0  0.7955399999999999  0.11859999999999998  0.7526  1.0000
  C   C303      1.0  0.9121000000000004  0.95493  0.7191199999999998  1.0000
  C   C304      1.0  0.8938100000000005  0.9766799999999995  0.75486  1.0000
  C   C305      1.0  0.5850000000000003  0.6279799999999998  0.9670599999999998  1.0000
  C   C306      1.0  0.5899900000000002  0.67299  0.9292999999999999  1.0000
  C   C307      1.0  0.44024  0.59012  0.13049  1.0000
  C   C308      1.0  0.46438  0.59421  0.15249999999999997  1.0000
  C   C309      1.0  0.4138  0.73494  0.07325  1.0000
  C   C310      1.0  0.33287000000000005  0.7527399999999999  0.11872  1.0000
  C   C311      1.0  0.41358000000000017  0.71927  0.95495  1.0000
  C   C312      1.0  0.3743699999999999  0.7551900000000001  0.97655  1.0000
  C   C313      1.0  0.62766  0.58481  0.82015  1.0000
  C   C314      1.0  0.67263  0.58976  0.80795  1.0000
  C   C315      1.0  0.5900500000000001  0.4402299999999998  0.83921  1.0000
  C   C316      1.0  0.59426  0.4644899999999999  0.7888299999999999  1.0000
  C   C317      1.0  0.7349400000000004  0.41377  0.77812  1.0000
  C   C318      1.0  0.7527199999999998  0.33291000000000004  0.79573  1.0000
  C   C319      1.0  0.71912  0.41345  0.91235  1.0000
  C   C320      1.0  0.7548700000000002  0.37415  0.89413  1.0000
  C   C321      1.0  0.5849199999999998  0.96743  0.82005  1.0000
  C   C322      1.0  0.58998  0.9297  0.80783  1.0000
  C   C323      1.0  0.44023999999999996  0.13073999999999997  0.83896  1.0000
  C   C324      1.0  0.46442999999999995  0.15274999999999994  0.78857  1.0000
  C   C325      1.0  0.41378  0.07334000000000006  0.7780299999999999  1.0000
  C   C326      1.0  0.33277  0.11880999999999996  0.79563  1.0000
  C   C327      1.0  0.4136300000000002  0.9550099999999996  0.91221  1.0000
  C   C328      1.0  0.3744800000000002  0.9766899999999995  0.89384  1.0000
  C   C329      1.0  0.6277699999999999  0.82006  0.96736  1.0000
  C   C330      1.0  0.6727800000000002  0.8078899999999999  0.92955  1.0000
  C   C331      1.0  0.58991  0.8389999999999999  0.1307  1.0000
  C   C332      1.0  0.5940300000000001  0.7886499999999997  0.15271  1.0000
  C   C333      1.0  0.7346399999999998  0.77785  0.07347  1.0000
  C   C334      1.0  0.75256  0.7954899999999998  0.11867999999999997  1.0000
  C   C335      1.0  0.7191000000000002  0.9121199999999997  0.95496  1.0000
  C   C336      1.0  0.7548300000000003  0.89384  0.9767099999999997  1.0000
  C   C337      1.0  0.9671499999999997  0.5849800000000002  0.6279399999999999  1.0000
  C   C338      1.0  0.9293300000000003  0.5899799999999997  0.67291  1.0000
  C   C339      1.0  0.13050000000000003  0.44023999999999985  0.59008  1.0000
  C   C340      1.0  0.15250999999999998  0.46437999999999996  0.59417  1.0000
  C   C341      1.0  0.07325000000000008  0.4138199999999999  0.73498  1.0000
  C   C342      1.0  0.11858000000000002  0.33281999999999984  0.75287  1.0000
  C   C343      1.0  0.9549600000000003  0.41354999999999986  0.7193099999999998  1.0000
  C   C344      1.0  0.9766  0.37434  0.75521  1.0000
  C   C345      1.0  0.8201000000000002  0.6276599999999998  0.58478  1.0000
  C   C346      1.0  0.8080000000000002  0.6725999999999998  0.58969  1.0000
  C   C347      1.0  0.8392099999999999  0.59004  0.44017  1.0000
  C   C348      1.0  0.78884  0.59418  0.46445999999999993  1.0000
  C   C349      1.0  0.7780999999999998  0.73496  0.41374  1.0000
  C   C350      1.0  0.7957000000000001  0.7527499999999998  0.33288  1.0000
  C   C351      1.0  0.9123700000000001  0.71911  0.41346999999999995  1.0000
  C   C352      1.0  0.89409  0.7549199999999999  0.37421  1.0000
  C   C353      1.0  0.8200700000000002  0.5849299999999997  0.96745  1.0000
  C   C354      1.0  0.8079200000000001  0.5899399999999998  0.92971  1.0000
  C   C355      1.0  0.8389799999999998  0.44014000000000003  0.13079  1.0000
  C   C356      1.0  0.7885800000000002  0.46433999999999986  0.1528  1.0000
  C   C357      1.0  0.77804  0.4136699999999999  0.07339  1.0000
  C   C358      1.0  0.7955700000000001  0.33276  0.11879999999999998  1.0000
  C   C359      1.0  0.9122200000000001  0.41365999999999997  0.95496  1.0000
  C   C360      1.0  0.89388  0.37451000000000007  0.9766699999999999  1.0000
  C   C361      1.0  0.9673  0.6276499999999998  0.82015  1.0000
  C   C362      1.0  0.9295000000000001  0.6726699999999998  0.80795  1.0000
  C   C363      1.0  0.1306900000000002  0.5899699999999996  0.83904  1.0000
  C   C364      1.0  0.15270999999999998  0.59402  0.7887  1.0000
  C   C365      1.0  0.07338000000000004  0.7347299999999998  0.77788  1.0000
  C   C366      1.0  0.11862000000000013  0.7525799999999998  0.79554  1.0000
  C   C367      1.0  0.9549300000000003  0.71911  0.9120999999999998  1.0000
  C   C368      1.0  0.9767000000000002  0.7548199999999996  0.89382  1.0000
  C   C369      1.0  0.62794  0.96711  0.58501  1.0000
  C   C370      1.0  0.6729599999999998  0.9293199999999999  0.58996  1.0000
  C   C371      1.0  0.59011  0.13052  0.44015  1.0000
  C   C372      1.0  0.5941999999999997  0.15251000000000003  0.4642999999999999  1.0000
  C   C373      1.0  0.7349800000000002  0.07323000000000003  0.41375999999999996  1.0000
  C   C374      1.0  0.75288  0.11861999999999999  0.33282  1.0000
  C   C375      1.0  0.7192300000000003  0.9550199999999998  0.41351999999999994  1.0000
  C   C376      1.0  0.75511  0.9766699999999998  0.37434  1.0000
  C   C377      1.0  0.58477  0.8201299999999999  0.6276599999999998  1.0000
  C   C378      1.0  0.5897500000000003  0.8080299999999998  0.67258  1.0000
  C   C379      1.0  0.44020999999999993  0.8392300000000001  0.58999  1.0000
  C   C380      1.0  0.4644800000000001  0.7888399999999998  0.59422  1.0000
  C   C381      1.0  0.41378999999999994  0.7781299999999999  0.7349  1.0000
  C   C382      1.0  0.33291000000000015  0.7957299999999998  0.7527499999999999  1.0000
  C   C383      1.0  0.4135100000000002  0.9123199999999996  0.71911  1.0000
  C   C384      1.0  0.37426000000000026  0.8940499999999997  0.7549099999999999  1.0000
  C   C385      1.0  0.03109000000000013  0.8391199999999998  0.5648  1.0000
  C   C386      1.0  0.8391100000000001  0.031069999999999983  0.56486  1.0000
  C   C387      1.0  0.56484  0.5649  0.8393  1.0000
  C   C388      1.0  0.56501  0.5651  0.03078  1.0000
  C   C389      1.0  0.56505  0.030859999999999964  0.565  1.0000
  C   C390      1.0  0.5648599999999999  0.8392899999999998  0.56483  1.0000
  C   C391      1.0  0.031100000000000193  0.5646999999999998  0.8391299999999999  1.0000
  C   C392      1.0  0.8391300000000002  0.5649099999999999  0.031119999999999995  1.0000
  C   C393      1.0  0.83928  0.56486  0.56482  1.0000
  C   C394      1.0  0.030880000000000133  0.5650199999999997  0.56504  1.0000
  C   C395      1.0  0.5648  0.031130000000000015  0.8391299999999999  1.0000
  C   C396      1.0  0.56485  0.8391299999999998  0.031139999999999998  1.0000
  C   C397      1.0  0.96889  0.1608699999999999  0.43516  1.0000
  C   C398      1.0  0.16085000000000016  0.9689299999999997  0.43519  1.0000
  C   C399      1.0  0.4349200000000001  0.4350199999999999  0.9691499999999998  1.0000
  C   C400      1.0  0.4351300000000001  0.43519999999999986  0.16065  1.0000
  C   C401      1.0  0.43521000000000015  0.9688499999999999  0.16092  1.0000
  C   C402      1.0  0.43516999999999995  0.16084999999999997  0.96885  1.0000
  C   C403      1.0  0.9691000000000001  0.43495  0.43498  1.0000
  C   C404      1.0  0.16071000000000002  0.43515999999999994  0.43516  1.0000
  C   C405      1.0  0.16083999999999996  0.43516000000000005  0.96893  1.0000
  C   C406      1.0  0.9689100000000002  0.43519999999999986  0.16090999999999997  1.0000
  C   C407      1.0  0.43498000000000014  0.9691599999999998  0.43492  1.0000
  C   C408      1.0  0.43511  0.16069  0.43514  1.0000
  C   C409      1.0  0.08581000000000012  0.9141899999999998  0.59272  1.0000
  C   C410      1.0  0.9141299999999996  0.08575  0.40735  1.0000
  C   C411      1.0  0.4070999999999999  0.59263  0.91439  1.0000
  C   C412      1.0  0.59295  0.40742999999999996  0.08555999999999998  1.0000
  C   C413      1.0  0.40735000000000005  0.08565999999999999  0.59285  1.0000
  C   C414      1.0  0.5926200000000003  0.9143499999999998  0.4071  1.0000
  C   C415      1.0  0.08586999999999997  0.40725  0.91421  1.0000
  C   C416      1.0  0.9141800000000001  0.5926499999999999  0.08586  1.0000
  C   C417      1.0  0.91436  0.4071199999999999  0.5926  1.0000
  C   C418      1.0  0.08563000000000004  0.59288  0.40739  1.0000
  C   C419      1.0  0.59269  0.08583999999999996  0.9141899999999998  1.0000
  C   C420      1.0  0.40728000000000003  0.9141799999999998  0.08586  1.0000
  C   C421      1.0  0.9141800000000001  0.08583999999999999  0.5927  1.0000
  C   C422      1.0  0.08581000000000012  0.9141899999999998  0.40729  1.0000
  C   C423      1.0  0.5926599999999999  0.40708999999999984  0.9143799999999999  1.0000
  C   C424      1.0  0.40739  0.59292  0.08559  1.0000
  C   C425      1.0  0.5927200000000002  0.91411  0.08583  1.0000
  C   C426      1.0  0.4072799999999999  0.08588000000000001  0.91417  1.0000
  C   C427      1.0  0.91442  0.59258  0.40709  1.0000
  C   C428      1.0  0.08559999999999998  0.40739  0.59288  1.0000
  C   C429      1.0  0.08581000000000012  0.5927199999999998  0.9142  1.0000
  C   C430      1.0  0.9142  0.40724  0.08583  1.0000
  C   C431      1.0  0.40709999999999996  0.9144  0.59261  1.0000
  C   C432      1.0  0.59288  0.08562999999999998  0.4073  1.0000
  C   C433      1.0  0.02746000000000007  0.74295  0.74292  1.0000
  C   C434      1.0  0.74299  0.02736000000000001  0.48662999999999995  1.0000
  C   C435      1.0  0.48661000000000026  0.7430799999999997  0.74303  1.0000
  C   C436      1.0  0.74312  0.4866399999999999  0.0274  1.0000
  C   C437      1.0  0.4867000000000002  0.02742000000000004  0.7429799999999998  1.0000
  C   C438      1.0  0.74301  0.74306  0.4865699999999999  1.0000
  C   C439      1.0  0.027400000000000025  0.48667000000000005  0.7430399999999999  1.0000
  C   C440      1.0  0.7428299999999999  0.7429  0.02755  1.0000
  C   C441      1.0  0.7430700000000001  0.48656999999999984  0.74308  1.0000
  C   C442      1.0  0.027360000000000103  0.7430099999999998  0.48667999999999995  1.0000
  C   C443      1.0  0.7429100000000001  0.027480000000000043  0.7429399999999999  1.0000
  C   C444      1.0  0.4866900000000001  0.7430399999999998  0.02732  1.0000
  C   C445      1.0  0.97262  0.2569499999999999  0.51329  1.0000
  C   C446      1.0  0.25711000000000006  0.9724699999999997  0.2571  1.0000
  C   C447      1.0  0.5133500000000004  0.25690999999999997  0.97268  1.0000
  C   C448      1.0  0.2569600000000001  0.5133899999999999  0.25701  1.0000
  C   C449      1.0  0.5133  0.9725299999999998  0.25701  1.0000
  C   C450      1.0  0.2570700000000001  0.25708  0.97254  1.0000
  C   C451      1.0  0.9726499999999997  0.51335  0.25695  1.0000
  C   C452      1.0  0.25694999999999996  0.2569  0.5134  1.0000
  C   C453      1.0  0.25694000000000017  0.5133599999999999  0.9726199999999999  1.0000
  C   C454      1.0  0.97242  0.25710999999999995  0.25716  1.0000
  C   C455      1.0  0.25691999999999976  0.9726500000000001  0.51337  1.0000
  C   C456      1.0  0.51342  0.25692  0.25695  1.0000
  C   C457      1.0  0.9309699999999999  0.93093  0.65921  1.0000
  C   C458      1.0  0.93103  0.93103  0.47875  1.0000
  C   C459      1.0  0.47874  0.6592  0.93102  1.0000
  C   C460      1.0  0.6592400000000003  0.4787799999999998  0.93098  1.0000
  C   C461      1.0  0.47876  0.93101  0.65918  1.0000
  C   C462      1.0  0.6591900000000002  0.9310899999999999  0.47872  1.0000
  C   C463      1.0  0.93108  0.4787  0.93099  1.0000
  C   C464      1.0  0.9310000000000002  0.65918  0.93096  1.0000
  C   C465      1.0  0.9311  0.47865  0.65921  1.0000
  C   C466      1.0  0.93113  0.65921  0.47872  1.0000
  C   C467      1.0  0.6592100000000002  0.9309799999999997  0.93094  1.0000
  C   C468      1.0  0.47873000000000004  0.9309799999999999  0.93106  1.0000
  C   C469      1.0  0.06900999999999989  0.06892  0.52125  1.0000
  C   C470      1.0  0.06902999999999997  0.06897  0.34084  1.0000
  C   C471      1.0  0.52129  0.34080000000000005  0.0689  1.0000
  C   C472      1.0  0.34083  0.52125  0.06896  1.0000
  C   C473      1.0  0.52128  0.06899  0.06897  1.0000
  C   C474      1.0  0.3408  0.06907  0.069  1.0000
  C   C475      1.0  0.06896000000000006  0.5212999999999998  0.34078  1.0000
  C   C476      1.0  0.06894999999999998  0.34078  0.52129  1.0000
  C   C477      1.0  0.06895000000000011  0.5213099999999998  0.06894  1.0000
  C   C478      1.0  0.06914  0.3408  0.06898  1.0000
  C   C479      1.0  0.3408  0.06892  0.52124  1.0000
  C   C480      1.0  0.52124  0.06902000000000001  0.34075999999999995  1.0000
  N   N1        1.0  0.8951100000000002  0.7952199999999998  0.6755699999999999  1.0000
  N   N2        1.0  0.20138000000000006  0.76956  0.57014  1.0000
  N   N3        1.0  0.09583000000000001  0.80925  0.7211399999999999  1.0000
  N   N4        1.0  0.95766  0.9163599999999998  0.78798  1.0000
  N   N5        1.0  0.008169999999999964  0.83254  0.61422  1.0000
  N   N6        1.0  0.08265999999999994  0.86837  0.61047  1.0000
  N   N7        1.0  0.04377000000000003  0.7826799999999999  0.71283  1.0000
  N   N8        1.0  0.96668  0.89721  0.68045  1.0000
  N   N9        1.0  0.7952600000000001  0.8951199999999998  0.6345  1.0000
  N   N10       1.0  0.7694300000000003  0.20127999999999996  0.45906  1.0000
  N   N11       1.0  0.8093100000000001  0.09596999999999997  0.3734199999999999  1.0000
  N   N12       1.0  0.91623  0.95752  0.338  1.0000
  N   N13       1.0  0.83236  0.00827999999999999  0.54505  1.0000
  N   N14       1.0  0.8681699999999999  0.08273000000000003  0.43835999999999997  1.0000
  N   N15       1.0  0.78264  0.04379  0.46063  1.0000
  N   N16       1.0  0.89728  0.9667399999999998  0.45554  1.0000
  N   N17       1.0  0.6340799999999999  0.67531  0.79541  1.0000
  N   N18       1.0  0.4589299999999999  0.57036  0.7697299999999999  1.0000
  N   N19       1.0  0.3734900000000001  0.7213599999999998  0.8094499999999999  1.0000
  N   N20       1.0  0.33756000000000025  0.7882999999999999  0.9164399999999998  1.0000
  N   N21       1.0  0.5449000000000004  0.6143299999999997  0.8325699999999999  1.0000
  N   N22       1.0  0.4382800000000002  0.6105099999999998  0.86851  1.0000
  N   N23       1.0  0.46057000000000003  0.7130499999999999  0.78283  1.0000
  N   N24       1.0  0.4553200000000003  0.6803299999999998  0.89751  1.0000
  N   N25       1.0  0.6756200000000001  0.63449  0.89482  1.0000
  N   N26       1.0  0.5701800000000001  0.4588099999999999  0.20112  1.0000
  N   N27       1.0  0.72134  0.37352999999999986  0.09577  1.0000
  N   N28       1.0  0.78837  0.33762  0.95758  1.0000
  N   N29       1.0  0.6144800000000002  0.5451899999999997  0.00797  1.0000
  N   N30       1.0  0.6107800000000002  0.43848  0.08249  1.0000
  N   N31       1.0  0.7131099999999999  0.46068  0.04359999999999999  1.0000
  N   N32       1.0  0.6806100000000003  0.45556999999999986  0.9665699999999999  1.0000
  N   N33       1.0  0.6344400000000001  0.8948199999999997  0.67556  1.0000
  N   N34       1.0  0.45876999999999996  0.20111  0.57019  1.0000
  N   N35       1.0  0.37358  0.09575999999999997  0.72138  1.0000
  N   N36       1.0  0.3376600000000001  0.9575499999999997  0.7884199999999998  1.0000
  N   N37       1.0  0.54513  0.008059999999999956  0.61446  1.0000
  N   N38       1.0  0.4384100000000001  0.08254999999999998  0.6107  1.0000
  N   N39       1.0  0.4607399999999999  0.04369000000000007  0.7129699999999999  1.0000
  N   N40       1.0  0.45552999999999993  0.9665999999999999  0.68057  1.0000
  N   N41       1.0  0.67529  0.7955299999999997  0.63401  1.0000
  N   N42       1.0  0.5702700000000003  0.7697499999999998  0.45891  1.0000
  N   N43       1.0  0.7213100000000001  0.8094599999999997  0.37347  1.0000
  N   N44       1.0  0.7883100000000001  0.9165299999999996  0.33752999999999994  1.0000
  N   N45       1.0  0.6142699999999998  0.83267  0.54487  1.0000
  N   N46       1.0  0.61049  0.8684499999999998  0.4382499999999999  1.0000
  N   N47       1.0  0.7129300000000001  0.7828399999999998  0.46056999999999987  1.0000
  N   N48       1.0  0.68032  0.8975799999999998  0.45528  1.0000
  N   N49       1.0  0.8951500000000001  0.6343399999999998  0.79523  1.0000
  N   N50       1.0  0.20137000000000005  0.45886000000000005  0.7695099999999998  1.0000
  N   N51       1.0  0.09586000000000008  0.3733699999999998  0.80939  1.0000
  N   N52       1.0  0.9575600000000003  0.33793000000000006  0.9161899999999997  1.0000
  N   N53       1.0  0.008299999999999957  0.54491  0.83239  1.0000
  N   N54       1.0  0.08282000000000007  0.4382400000000001  0.8682699999999998  1.0000
  N   N55       1.0  0.04366999999999998  0.46058  0.7828  1.0000
  N   N56       1.0  0.96682  0.45539999999999997  0.89729  1.0000
  N   N57       1.0  0.79538  0.67547  0.89503  1.0000
  N   N58       1.0  0.7695400000000002  0.5701799999999998  0.20144  1.0000
  N   N59       1.0  0.8092400000000003  0.7211199999999997  0.09584  1.0000
  N   N60       1.0  0.9164  0.78796  0.95769  1.0000
  N   N61       1.0  0.8324200000000002  0.6143399999999998  0.00823  1.0000
  N   N62       1.0  0.8683300000000002  0.6104499999999998  0.08272999999999998  1.0000
  N   N63       1.0  0.78265  0.7128699999999998  0.04375  1.0000
  N   N64       1.0  0.8972900000000004  0.6803999999999998  0.9667099999999997  1.0000
  N   N65       1.0  0.7955900000000002  0.6340699999999998  0.67524  1.0000
  N   N66       1.0  0.7697100000000001  0.45896999999999977  0.57034  1.0000
  N   N67       1.0  0.8094900000000002  0.37343  0.72136  1.0000
  N   N68       1.0  0.9164600000000003  0.33756999999999976  0.78836  1.0000
  N   N69       1.0  0.8325899999999998  0.5449  0.61426  1.0000
  N   N70       1.0  0.8684600000000002  0.43827999999999984  0.6105  1.0000
  N   N71       1.0  0.7828899999999999  0.4605200000000001  0.7130399999999998  1.0000
  N   N72       1.0  0.8976399999999999  0.45518999999999993  0.68029  1.0000
  N   N73       1.0  0.8947499999999999  0.67555  0.6345  1.0000
  N   N74       1.0  0.20114999999999997  0.57014  0.45877  1.0000
  N   N75       1.0  0.09579000000000003  0.72137  0.37348  1.0000
  N   N76       1.0  0.9575799999999999  0.78839  0.33764  1.0000
  N   N77       1.0  0.007989999999999931  0.6144600000000001  0.54515  1.0000
  N   N78       1.0  0.08253000000000012  0.6107999999999998  0.43839  1.0000
  N   N79       1.0  0.043700000000000086  0.71298  0.4606799999999999  1.0000
  N   N80       1.0  0.96664  0.6806599999999997  0.45551  1.0000
  N   N81       1.0  0.6755400000000004  0.8951099999999995  0.79523  1.0000
  N   N82       1.0  0.57013  0.20135  0.7696  1.0000
  N   N83       1.0  0.7210700000000001  0.09590000000000007  0.8092599999999998  1.0000
  N   N84       1.0  0.7880000000000006  0.9576399999999996  0.9164  1.0000
  N   N85       1.0  0.6142100000000001  0.008199999999999959  0.83255  1.0000
  N   N86       1.0  0.61045  0.08269000000000006  0.8683599999999999  1.0000
  N   N87       1.0  0.7127199999999999  0.043910000000000005  0.78262  1.0000
  N   N88       1.0  0.6804600000000003  0.9666999999999997  0.89725  1.0000
  N   N89       1.0  0.6344000000000001  0.7952899999999998  0.89516  1.0000
  N   N90       1.0  0.4588800000000002  0.7694899999999998  0.20134  1.0000
  N   N91       1.0  0.37337999999999993  0.80927  0.09603999999999997  1.0000
  N   N92       1.0  0.33790999999999993  0.91629  0.95756  1.0000
  N   N93       1.0  0.5449900000000002  0.8324399999999997  0.00836  1.0000
  N   N94       1.0  0.43824000000000013  0.8682299999999997  0.08282  1.0000
  N   N95       1.0  0.4605700000000001  0.7826899999999999  0.04381  1.0000
  N   N96       1.0  0.45543000000000017  0.8973099999999999  0.9667999999999999  1.0000
  N   N97       1.0  0.10486000000000002  0.20471000000000003  0.3655399999999999  1.0000
  N   N98       1.0  0.79865  0.23054  0.5411  1.0000
  N   N99       1.0  0.90404  0.19067999999999996  0.62657  1.0000
  N   N100      1.0  0.04245  0.08368000000000002  0.66205  1.0000
  N   N101      1.0  0.9916899999999998  0.16757999999999998  0.45497  1.0000
  N   N102      1.0  0.91721  0.13178  0.5617  1.0000
  N   N103      1.0  0.9562500000000002  0.21725999999999993  0.53938  1.0000
  N   N104      1.0  0.03329999999999999  0.10268000000000001  0.54448  1.0000
  N   N105      1.0  0.20473000000000005  0.10489999999999994  0.32446  1.0000
  N   N106      1.0  0.23041000000000025  0.7986499999999995  0.42991  1.0000
  N   N107      1.0  0.19075000000000011  0.9041899999999998  0.27886  1.0000
  N   N108      1.0  0.08362  0.04236  0.212  1.0000
  N   N109      1.0  0.16750000000000007  0.99179  0.38576  1.0000
  N   N110      1.0  0.13164000000000012  0.9173199999999998  0.38955  1.0000
  N   N111      1.0  0.2173700000000001  0.9561699999999997  0.28719  1.0000
  N   N112      1.0  0.10279  0.03329  0.31954  1.0000
  N   N113      1.0  0.36561000000000005  0.32435999999999987  0.10517  1.0000
  N   N114      1.0  0.54128  0.42983999999999983  0.79886  1.0000
  N   N115      1.0  0.62647  0.27861  0.90423  1.0000
  N   N116      1.0  0.6624  0.21158999999999994  0.04242  1.0000
  N   N117      1.0  0.45487000000000005  0.38558  0.9919799999999999  1.0000
  N   N118      1.0  0.56161  0.38926999999999984  0.91745  1.0000
  N   N119      1.0  0.53932  0.28697  0.9562799999999999  1.0000
  N   N120      1.0  0.54449  0.31932  0.03339  1.0000
  N   N121      1.0  0.32476000000000005  0.36591  0.20452  1.0000
  N   N122      1.0  0.42962000000000006  0.5410999999999998  0.23025  1.0000
  N   N123      1.0  0.2786300000000001  0.6265099999999999  0.19049  1.0000
  N   N124      1.0  0.21171000000000012  0.6624299999999997  0.08352999999999998  1.0000
  N   N125      1.0  0.3856899999999999  0.45512  0.1674  1.0000
  N   N126      1.0  0.38949999999999996  0.56176  0.13148  1.0000
  N   N127      1.0  0.28692  0.53945  0.21712  1.0000
  N   N128      1.0  0.31969999999999993  0.54471  0.10245  1.0000
  N   N129      1.0  0.36565  0.10488999999999996  0.20466999999999996  1.0000
  N   N130      1.0  0.5411200000000002  0.7986399999999998  0.23054999999999995  1.0000
  N   N131      1.0  0.6266500000000002  0.9040399999999997  0.19066  1.0000
  N   N132      1.0  0.6621  0.04246999999999998  0.08372  1.0000
  N   N133      1.0  0.4550500000000002  0.9916499999999998  0.16759  1.0000
  N   N134      1.0  0.56173  0.91716  0.13179  1.0000
  N   N135      1.0  0.53939  0.9561499999999998  0.21731  1.0000
  N   N136      1.0  0.54457  0.03321999999999999  0.10265999999999999  1.0000
  N   N137      1.0  0.3244699999999999  0.20471999999999996  0.10488  1.0000
  N   N138      1.0  0.42990000000000006  0.23041  0.79863  1.0000
  N   N139      1.0  0.2788900000000001  0.19077  0.90414  1.0000
  N   N140      1.0  0.21199  0.08365  0.04234  1.0000
  N   N141      1.0  0.38575000000000004  0.1674799999999999  0.99177  1.0000
  N   N142      1.0  0.38953000000000004  0.13171999999999998  0.91729  1.0000
  N   N143      1.0  0.2872  0.21736  0.95618  1.0000
  N   N144      1.0  0.31954000000000005  0.10276999999999997  0.03329  1.0000
  N   N145      1.0  0.10522000000000002  0.36552999999999997  0.32438  1.0000
  N   N146      1.0  0.7989400000000002  0.5411699999999998  0.42978999999999995  1.0000
  N   N147      1.0  0.9042499999999999  0.62647  0.27859  1.0000
  N   N148      1.0  0.04242000000000012  0.6623399999999998  0.21159999999999995  1.0000
  N   N149      1.0  0.9919600000000001  0.45489  0.38553  1.0000
  N   N150      1.0  0.9174900000000001  0.5615499999999998  0.38922  1.0000
  N   N151      1.0  0.95631  0.5393299999999999  0.28699  1.0000
  N   N152      1.0  0.03341000000000009  0.54451  0.3193599999999999  1.0000
  N   N153      1.0  0.20436000000000012  0.3247899999999999  0.3659  1.0000
  N   N154      1.0  0.23026000000000016  0.42965999999999976  0.54099  1.0000
  N   N155      1.0  0.19057000000000007  0.2786599999999999  0.62649  1.0000
  N   N156      1.0  0.08350000000000006  0.21168  0.66243  1.0000
  N   N157      1.0  0.16732000000000002  0.38575000000000004  0.45509999999999995  1.0000
  N   N158      1.0  0.1315  0.38949000000000006  0.56172  1.0000
  N   N159      1.0  0.21719999999999992  0.28702  0.53939  1.0000
  N   N160      1.0  0.10248  0.31961  0.5447  1.0000
  N   N161      1.0  0.20470999999999998  0.36562  0.10485999999999997  1.0000
  N   N162      1.0  0.23049  0.54102  0.79867  1.0000
  N   N163      1.0  0.19062000000000023  0.6266699999999995  0.90408  1.0000
  N   N164      1.0  0.08371000000000012  0.6620499999999998  0.04251  1.0000
  N   N165      1.0  0.16758  0.455  0.9916899999999998  1.0000
  N   N166      1.0  0.1317700000000001  0.56175  0.9172  1.0000
  N   N167      1.0  0.21717999999999987  0.53951  0.95633  1.0000
  N   N168      1.0  0.10271  0.54452  0.03326  1.0000
  N   N169      1.0  0.10494000000000007  0.3244899999999999  0.20474  1.0000
  N   N170      1.0  0.7986800000000001  0.42992999999999987  0.23041999999999999  1.0000
  N   N171      1.0  0.9040700000000002  0.2789899999999999  0.19075  1.0000
  N   N172      1.0  0.04238  0.21203  0.08360999999999999  1.0000
  N   N173      1.0  0.99178  0.38577999999999996  0.16759  1.0000
  N   N174      1.0  0.9173599999999998  0.38949  0.13166  1.0000
  N   N175      1.0  0.95604  0.2873  0.21745  1.0000
  N   N176      1.0  0.033390000000000024  0.31959  0.10273  1.0000
  N   N177      1.0  0.32438000000000006  0.10519999999999995  0.36556  1.0000
  N   N178      1.0  0.4298400000000004  0.7988599999999996  0.54123  1.0000
  N   N179      1.0  0.27863000000000016  0.9041999999999998  0.62648  1.0000
  N   N180      1.0  0.21160999999999996  0.04241000000000002  0.66235  1.0000
  N   N181      1.0  0.3855400000000001  0.9920299999999999  0.45484  1.0000
  N   N182      1.0  0.38923000000000013  0.9174899999999999  0.56158  1.0000
  N   N183      1.0  0.28699  0.95629  0.53933  1.0000
  N   N184      1.0  0.31937999999999994  0.03339000000000002  0.54444  1.0000
  N   N185      1.0  0.36587000000000003  0.20458000000000004  0.32471  1.0000
  N   N186      1.0  0.54096  0.23024  0.42969  1.0000
  N   N187      1.0  0.6265  0.19052  0.27881  1.0000
  N   N188      1.0  0.66241  0.08354000000000002  0.21167999999999998  1.0000
  N   N189      1.0  0.45504  0.1674599999999999  0.38569  1.0000
  N   N190      1.0  0.56167  0.13151  0.3894499999999999  1.0000
  N   N191      1.0  0.53938  0.21721999999999989  0.28712  1.0000
  N   N192      1.0  0.54465  0.10252  0.31962  1.0000
  N   N193      1.0  0.10492000000000007  0.20470999999999998  0.3244099999999999  1.0000
  N   N194      1.0  0.7986000000000001  0.23037  0.42996  1.0000
  N   N195      1.0  0.90418  0.19076999999999988  0.2788  1.0000
  N   N196      1.0  0.042330000000000007  0.08359999999999998  0.21204  1.0000
  N   N197      1.0  0.9917899999999998  0.16746999999999998  0.38574  1.0000
  N   N198      1.0  0.9172799999999999  0.13157  0.38959  1.0000
  N   N199      1.0  0.9561700000000003  0.21734  0.28718  1.0000
  N   N200      1.0  0.033299999999999996  0.10268999999999999  0.31962  1.0000
  N   N201      1.0  0.2047  0.10487  0.36559  1.0000
  N   N202      1.0  0.23053999999999997  0.79866  0.54108  1.0000
  N   N203      1.0  0.19065000000000015  0.9040599999999998  0.62662  1.0000
  N   N204      1.0  0.08371000000000002  0.042409999999999955  0.66206  1.0000
  N   N205      1.0  0.16756000000000013  0.9917199999999999  0.45501  1.0000
  N   N206      1.0  0.13176000000000002  0.9171999999999999  0.56171  1.0000
  N   N207      1.0  0.21724999999999994  0.9562400000000001  0.53943  1.0000
  N   N208      1.0  0.10271999999999998  0.03321000000000001  0.54451  1.0000
  N   N209      1.0  0.36596  0.32475  0.20448  1.0000
  N   N210      1.0  0.5411299999999999  0.4296  0.23028  1.0000
  N   N211      1.0  0.6265600000000001  0.2785699999999999  0.19055  1.0000
  N   N212      1.0  0.6624800000000002  0.21172999999999995  0.08348999999999998  1.0000
  N   N213      1.0  0.45511999999999997  0.38578  0.1673  1.0000
  N   N214      1.0  0.56179  0.38951  0.13145  1.0000
  N   N215      1.0  0.53949  0.28689999999999993  0.21712  1.0000
  N   N216      1.0  0.5447200000000002  0.3196999999999999  0.10239  1.0000
  N   N217      1.0  0.32441999999999993  0.36552999999999997  0.10522  1.0000
  N   N218      1.0  0.42983  0.5412  0.79889  1.0000
  N   N219      1.0  0.2786700000000001  0.62647  0.90417  1.0000
  N   N220      1.0  0.21164000000000016  0.6623399999999998  0.04244  1.0000
  N   N221      1.0  0.3854500000000001  0.45487999999999995  0.99202  1.0000
  N   N222      1.0  0.3892600000000001  0.5615799999999997  0.91748  1.0000
  N   N223      1.0  0.28704  0.5392899999999998  0.95623  1.0000
  N   N224      1.0  0.3194  0.54443  0.03344  1.0000
  N   N225      1.0  0.36556  0.10516999999999994  0.32437  1.0000
  N   N226      1.0  0.54116  0.7989199999999997  0.42975  1.0000
  N   N227      1.0  0.6264700000000001  0.9043199999999998  0.27859  1.0000
  N   N228      1.0  0.66237  0.04244  0.21158  1.0000
  N   N229      1.0  0.4549  0.9919899999999998  0.38547  1.0000
  N   N230      1.0  0.5615600000000001  0.91748  0.38923  1.0000
  N   N231      1.0  0.5392900000000003  0.9563599999999998  0.28697  1.0000
  N   N232      1.0  0.5445  0.03341  0.3194  1.0000
  N   N233      1.0  0.32469000000000003  0.20452999999999988  0.3659  1.0000
  N   N234      1.0  0.42971  0.23026  0.54096  1.0000
  N   N235      1.0  0.27872  0.19046999999999994  0.62646  1.0000
  N   N236      1.0  0.2117000000000001  0.08351000000000003  0.6624199999999999  1.0000
  N   N237      1.0  0.38569000000000003  0.16731999999999989  0.45509  1.0000
  N   N238      1.0  0.38945000000000013  0.13153999999999993  0.5617  1.0000
  N   N239      1.0  0.287  0.21708999999999998  0.53941  1.0000
  N   N240      1.0  0.31966999999999995  0.10242  0.54468  1.0000
  N   N241      1.0  0.10491  0.36559999999999987  0.20473  1.0000
  N   N242      1.0  0.7986500000000001  0.5411199999999999  0.2306  1.0000
  N   N243      1.0  0.9040800000000001  0.6266099999999998  0.19062  1.0000
  N   N244      1.0  0.04244000000000013  0.6620699999999998  0.08376  1.0000
  N   N245      1.0  0.99175  0.4550499999999999  0.16753  1.0000
  N   N246      1.0  0.9172100000000002  0.5616999999999998  0.13181  1.0000
  N   N247      1.0  0.9563500000000001  0.5394099999999997  0.2172  1.0000
  N   N248      1.0  0.033239999999999964  0.54458  0.10265999999999999  1.0000
  N   N249      1.0  0.2046900000000001  0.3244999999999999  0.10495  1.0000
  N   N250      1.0  0.23048  0.42977999999999994  0.79867  1.0000
  N   N251      1.0  0.19072000000000017  0.2789  0.9041899999999998  1.0000
  N   N252      1.0  0.08363000000000001  0.21203999999999995  0.042329999999999986  1.0000
  N   N253      1.0  0.16751000000000013  0.3857400000000001  0.9918199999999998  1.0000
  N   N254      1.0  0.13169  0.3895  0.91736  1.0000
  N   N255      1.0  0.21735000000000013  0.2871999999999998  0.9562  1.0000
  N   N256      1.0  0.10280000000000007  0.3195499999999999  0.03325  1.0000
  N   N257      1.0  0.20440000000000005  0.36595999999999995  0.3247299999999999  1.0000
  N   N258      1.0  0.23029  0.54101  0.42962  1.0000
  N   N259      1.0  0.19053000000000012  0.6265299999999998  0.27874  1.0000
  N   N260      1.0  0.08353000000000013  0.6624099999999998  0.21165  1.0000
  N   N261      1.0  0.16748000000000005  0.45508999999999994  0.3857  1.0000
  N   N262      1.0  0.13151999999999997  0.56171  0.38949  1.0000
  N   N263      1.0  0.21722000000000002  0.5394  0.28714  1.0000
  N   N264      1.0  0.1025  0.54469  0.31961  1.0000
  N   N265      1.0  0.1052200000000001  0.3243899999999999  0.36556999999999995  1.0000
  N   N266      1.0  0.7988699999999999  0.42986  0.54117  1.0000
  N   N267      1.0  0.90419  0.27863000000000004  0.6264699999999997  1.0000
  N   N268      1.0  0.04239999999999999  0.21160000000000004  0.66235  1.0000
  N   N269      1.0  0.9919500000000002  0.3855  0.45485  1.0000
  N   N270      1.0  0.9174700000000001  0.3891999999999998  0.56159  1.0000
  N   N271      1.0  0.95631  0.287  0.53927  1.0000
  N   N272      1.0  0.03340999999999999  0.3193599999999999  0.54448  1.0000
  N   N273      1.0  0.32452  0.10497  0.20464  1.0000
  N   N274      1.0  0.4298500000000001  0.79867  0.23045  1.0000
  N   N275      1.0  0.27894  0.90412  0.1907  1.0000
  N   N276      1.0  0.21197  0.04241  0.08360999999999999  1.0000
  N   N277      1.0  0.38578999999999997  0.99177  0.16752  1.0000
  N   N278      1.0  0.38951000000000013  0.9173299999999998  0.13169  1.0000
  N   N279      1.0  0.2872600000000002  0.9561199999999997  0.21736  1.0000
  N   N280      1.0  0.31956  0.033349999999999984  0.10271  1.0000
  N   N281      1.0  0.3655999999999999  0.20470999999999995  0.10481  1.0000
  N   N282      1.0  0.54107  0.23053000000000007  0.7987099999999998  1.0000
  N   N283      1.0  0.6267000000000003  0.19061  0.9040299999999998  1.0000
  N   N284      1.0  0.66208  0.08371999999999999  0.04245  1.0000
  N   N285      1.0  0.45501  0.16757999999999995  0.99161  1.0000
  N   N286      1.0  0.5617200000000001  0.13178000000000006  0.9172399999999999  1.0000
  N   N287      1.0  0.53946  0.21721000000000001  0.9562799999999999  1.0000
  N   N288      1.0  0.54454  0.10268  0.03328  1.0000
  N   N289      1.0  0.8951900000000003  0.7951899999999997  0.6344399999999999  1.0000
  N   N290      1.0  0.20130000000000015  0.7694899999999998  0.459  1.0000
  N   N291      1.0  0.0958800000000001  0.8093399999999997  0.37341  1.0000
  N   N292      1.0  0.9574900000000002  0.9162699999999998  0.33799  1.0000
  N   N293      1.0  0.008299999999999957  0.8324  0.54498  1.0000
  N   N294      1.0  0.08278000000000009  0.8682499999999997  0.43827999999999995  1.0000
  N   N295      1.0  0.04371000000000009  0.7827099999999998  0.46061  1.0000
  N   N296      1.0  0.96674  0.8973199999999998  0.45548  1.0000
  N   N297      1.0  0.7953300000000001  0.8950399999999998  0.6756  1.0000
  N   N298      1.0  0.7695599999999999  0.2013799999999999  0.57014  1.0000
  N   N299      1.0  0.80929  0.09578999999999996  0.72113  1.0000
  N   N300      1.0  0.9163900000000004  0.9576199999999997  0.7879999999999998  1.0000
  N   N301      1.0  0.83254  0.00815999999999999  0.61427  1.0000
  N   N302      1.0  0.86836  0.08270000000000001  0.61044  1.0000
  N   N303      1.0  0.78267  0.043759999999999986  0.71285  1.0000
  N   N304      1.0  0.8972600000000002  0.9666699999999996  0.68044  1.0000
  N   N305      1.0  0.6344400000000001  0.67568  0.89481  1.0000
  N   N306      1.0  0.45881000000000005  0.57017  0.20109  1.0000
  N   N307      1.0  0.37353  0.72133  0.09576  1.0000
  N   N308      1.0  0.33763  0.7884  0.9575399999999998  1.0000
  N   N309      1.0  0.54511  0.61456  0.00797  1.0000
  N   N310      1.0  0.4384200000000001  0.6107899999999998  0.08249  1.0000
  N   N311      1.0  0.4607000000000002  0.7130499999999999  0.04356999999999999  1.0000
  N   N312      1.0  0.4555200000000002  0.6806199999999997  0.9665699999999999  1.0000
  N   N313      1.0  0.67527  0.6341299999999997  0.79544  1.0000
  N   N314      1.0  0.5703999999999999  0.45897000000000004  0.7697299999999999  1.0000
  N   N315      1.0  0.7212600000000002  0.3735099999999998  0.80951  1.0000
  N   N316      1.0  0.7882600000000001  0.33753  0.91649  1.0000
  N   N317      1.0  0.61427  0.54495  0.83262  1.0000
  N   N318      1.0  0.61052  0.4383099999999999  0.86852  1.0000
  N   N319      1.0  0.71293  0.4606  0.7828  1.0000
  N   N320      1.0  0.6804000000000001  0.4553199999999998  0.89749  1.0000
  N   N321      1.0  0.63443  0.8951999999999999  0.79518  1.0000
  N   N322      1.0  0.45894  0.20129999999999998  0.76945  1.0000
  N   N323      1.0  0.37339000000000006  0.09597999999999997  0.80933  1.0000
  N   N324      1.0  0.3379300000000002  0.9574999999999997  0.91626  1.0000
  N   N325      1.0  0.54498  0.008330000000000008  0.83242  1.0000
  N   N326      1.0  0.4383000000000001  0.08278  0.86824  1.0000
  N   N327      1.0  0.46064  0.043759999999999986  0.78272  1.0000
  N   N328      1.0  0.45546000000000014  0.9666999999999999  0.8973399999999998  1.0000
  N   N329      1.0  0.6755299999999999  0.7953099999999999  0.89507  1.0000
  N   N330      1.0  0.5702  0.76953  0.20137  1.0000
  N   N331      1.0  0.7210199999999999  0.80921  0.09596  1.0000
  N   N332      1.0  0.7879800000000001  0.91641  0.9576699999999998  1.0000
  N   N333      1.0  0.61427  0.8325099999999998  0.0082  1.0000
  N   N334      1.0  0.61051  0.8682899999999998  0.08268999999999999  1.0000
  N   N335      1.0  0.71268  0.78258  0.04395999999999999  1.0000
  N   N336      1.0  0.6804600000000002  0.8972599999999998  0.96666  1.0000
  N   N337      1.0  0.89481  0.6343799999999998  0.67566  1.0000
  N   N338      1.0  0.20110999999999998  0.45878  0.57016  1.0000
  N   N339      1.0  0.09573000000000004  0.3735300000000001  0.7213999999999998  1.0000
  N   N340      1.0  0.9575499999999999  0.33764000000000005  0.78846  1.0000
  N   N341      1.0  0.00806000000000004  0.5451  0.6144999999999999  1.0000
  N   N342      1.0  0.08249999999999999  0.4384  0.61079  1.0000
  N   N343      1.0  0.04371000000000006  0.4607099999999998  0.713  1.0000
  N   N344      1.0  0.9666  0.45547999999999983  0.68068  1.0000
  N   N345      1.0  0.7956100000000002  0.6752299999999999  0.63405  1.0000
  N   N346      1.0  0.7697800000000001  0.5702399999999997  0.45900999999999986  1.0000
  N   N347      1.0  0.80947  0.72129  0.37347  1.0000
  N   N348      1.0  0.9164800000000001  0.7882899999999998  0.33758  1.0000
  N   N349      1.0  0.8325799999999998  0.6142799999999999  0.5449  1.0000
  N   N350      1.0  0.8685300000000002  0.6104999999999998  0.43827  1.0000
  N   N351      1.0  0.7827999999999998  0.71298  0.46056  1.0000
  N   N352      1.0  0.89763  0.68029  0.45529  1.0000
  N   N353      1.0  0.79538  0.63433  0.89513  1.0000
  N   N354      1.0  0.7695000000000001  0.4589699999999999  0.20134  1.0000
  N   N355      1.0  0.8093300000000001  0.3733099999999999  0.09601  1.0000
  N   N356      1.0  0.9163500000000002  0.33792000000000005  0.9575099999999998  1.0000
  N   N357      1.0  0.83246  0.54502  0.00835  1.0000
  N   N358      1.0  0.8682600000000001  0.4382299999999999  0.08281  1.0000
  N   N359      1.0  0.7827600000000001  0.46050999999999986  0.04388  1.0000
  N   N360      1.0  0.8973500000000001  0.45547  0.9666999999999999  1.0000
  N   N361      1.0  0.8951099999999999  0.6754600000000001  0.79521  1.0000
  N   N362      1.0  0.20132000000000005  0.57008  0.76958  1.0000
  N   N363      1.0  0.09585999999999997  0.7210899999999999  0.80925  1.0000
  N   N364      1.0  0.95764  0.7879599999999999  0.9164099999999998  1.0000
  N   N365      1.0  0.008190000000000086  0.6141199999999998  0.83255  1.0000
  N   N366      1.0  0.08264000000000014  0.6104899999999996  0.86837  1.0000
  N   N367      1.0  0.04390000000000002  0.71276  0.78259  1.0000
  N   N368      1.0  0.9666399999999999  0.68051  0.89717  1.0000
  N   N369      1.0  0.6756299999999998  0.8947499999999997  0.63439  1.0000
  N   N370      1.0  0.57018  0.20109  0.45874999999999994  1.0000
  N   N371      1.0  0.72145  0.0957  0.37347  1.0000
  N   N372      1.0  0.7883700000000001  0.95764  0.3376  1.0000
  N   N373      1.0  0.61449  0.007959999999999986  0.54509  1.0000
  N   N374      1.0  0.61076  0.08253000000000002  0.43832999999999994  1.0000
  N   N375      1.0  0.71302  0.043639999999999984  0.46061  1.0000
  N   N376      1.0  0.6806300000000001  0.9666099999999999  0.45551  1.0000
  N   N377      1.0  0.6341200000000001  0.7955399999999998  0.67521  1.0000
  N   N378      1.0  0.4589900000000003  0.7697199999999997  0.57036  1.0000
  N   N379      1.0  0.3734999999999999  0.80949  0.72128  1.0000
  N   N380      1.0  0.33763000000000015  0.9164599999999998  0.7882899999999998  1.0000
  N   N381      1.0  0.5449300000000001  0.8325499999999999  0.61428  1.0000
  N   N382      1.0  0.43829000000000023  0.8685299999999998  0.61049  1.0000
  N   N383      1.0  0.4606200000000001  0.7828299999999998  0.7129099999999998  1.0000
  N   N384      1.0  0.45534999999999987  0.8975  0.68034  1.0000
