data_image0
_chemical_formula_structural       Cu48H168C360N96O104
_chemical_formula_sum              "Cu48 H168 C360 N96 O104"
_cell_length_a       38.91825
_cell_length_b       38.92401999999999
_cell_length_c       38.92591
_cell_angle_alpha    60.004729999999995
_cell_angle_beta     60.01480000000001
_cell_angle_gamma    60.00697000000001

_space_group_name_H-M_alt    "P 1"
_space_group_IT_number       1

loop_
  _space_group_symop_operation_xyz
  'x, y, z'

loop_
  _atom_site_type_symbol
  _atom_site_label
  _atom_site_symmetry_multiplicity
  _atom_site_fract_x
  _atom_site_fract_y
  _atom_site_fract_z
  _atom_site_occupancy
  Cu  Cu1       1.0  0.99999  0.72822  0.27178  1.0000
  Cu  Cu2       1.0  0.9999699999999999  0.79098  0.20905  1.0000
  Cu  Cu3       1.0  0.7282300000000002  9.999999999939934e-06  0.9999800000000001  1.0000
  Cu  Cu4       1.0  0.79098  3.0000000000000004e-05  0.0  1.0000
  Cu  Cu5       1.0  0.99998  0.27178  0.72824  1.0000
  Cu  Cu6       1.0  0.99998  0.2090299999999999  0.7909900000000002  1.0000
  Cu  Cu7       1.0  0.27177  2e-05  0.0  1.0000
  Cu  Cu8       1.0  0.20901999999999998  0.0  0.9999700000000001  1.0000
  Cu  Cu9       1.0  1.999999999995319e-05  2.999999999996471e-05  0.2717700000000001  1.0000
  Cu  Cu10      1.0  0.99998  9.999999999979455e-06  0.20904000000000006  1.0000
  Cu  Cu11      1.0  0.27179  0.7282100000000001  2e-05  1.0000
  Cu  Cu12      1.0  0.20902  0.79097  2e-05  1.0000
  Cu  Cu13      1.0  0.99998  0.0  0.72824  1.0000
  Cu  Cu14      1.0  2.999999999993234e-05  2.999999999992519e-05  0.7909600000000002  1.0000
  Cu  Cu15      1.0  0.72822  0.27177  1e-05  1.0000
  Cu  Cu16      1.0  0.79099  0.20901  2e-05  1.0000
  Cu  Cu17      1.0  0.72821  0.0  0.2717700000000001  1.0000
  Cu  Cu18      1.0  0.79097  0.0  0.20903000000000005  1.0000
  Cu  Cu19      1.0  9.999999999959389e-06  0.27176999999999996  0.9999900000000002  1.0000
  Cu  Cu20      1.0  0.99998  0.20905  0.9999700000000001  1.0000
  Cu  Cu21      1.0  0.2717999999999998  0.9999900000000002  0.72822  1.0000
  Cu  Cu22      1.0  0.20903  0.0  0.79095  1.0000
  Cu  Cu23      1.0  0.9999800000000003  0.72823  0.9999800000000001  1.0000
  Cu  Cu24      1.0  9.99999999998221e-06  0.79097  0.9999900000000002  1.0000
  Cu  Cu25      1.0  0.30516000000000004  0.38681  0.38683  1.0000
  Cu  Cu26      1.0  0.38738  0.3040400000000001  0.9212  1.0000
  Cu  Cu27      1.0  0.92093  0.38762  0.3874800000000001  1.0000
  Cu  Cu28      1.0  0.38680999999999977  0.92119  0.3052100000000001  1.0000
  Cu  Cu29      1.0  0.9209099999999999  0.30401999999999996  0.38746000000000014  1.0000
  Cu  Cu30      1.0  0.38739999999999997  0.38739999999999997  0.9212100000000002  1.0000
  Cu  Cu31      1.0  0.30399000000000004  0.9209299999999999  0.3874800000000001  1.0000
  Cu  Cu32      1.0  0.38745999999999997  0.3876  0.30402  1.0000
  Cu  Cu33      1.0  0.3876199999999999  0.9209400000000001  0.3874700000000001  1.0000
  Cu  Cu34      1.0  0.3040299999999998  0.38739000000000023  0.9212  1.0000
  Cu  Cu35      1.0  0.38745  0.30401  0.38761  1.0000
  Cu  Cu36      1.0  0.92118  0.38681  0.30520000000000014  1.0000
  Cu  Cu37      1.0  0.69599  0.61253  0.07909000000000002  1.0000
  Cu  Cu38      1.0  0.6123900000000001  0.6960099999999999  0.6125400000000002  1.0000
  Cu  Cu39      1.0  0.07908999999999998  0.61255  0.69597  1.0000
  Cu  Cu40      1.0  0.6126  0.0787799999999999  0.6126000000000003  1.0000
  Cu  Cu41      1.0  0.07881000000000002  0.69481  0.61319  1.0000
  Cu  Cu42      1.0  0.61319  0.6131899999999999  0.6948100000000003  1.0000
  Cu  Cu43      1.0  0.6959700000000002  0.0788  0.61261  1.0000
  Cu  Cu44      1.0  0.6123799999999999  0.61253  0.07907  1.0000
  Cu  Cu45      1.0  0.6126200000000003  0.07880000000000002  0.69595  1.0000
  Cu  Cu46      1.0  0.696  0.6123899999999999  0.6125400000000002  1.0000
  Cu  Cu47      1.0  0.61319  0.69481  0.07882  1.0000
  Cu  Cu48      1.0  0.07905999999999998  0.61252  0.6123800000000003  1.0000
  H   H1        1.0  0.13146999999999992  0.6550300000000002  0.24279000000000006  1.0000
  H   H2        1.0  0.20475999999999994  0.5371300000000001  0.31583  1.0000
  H   H3        1.0  0.16423999999999994  0.6036400000000002  0.27547  1.0000
  H   H4        1.0  0.65494  0.13154999999999997  0.97069  1.0000
  H   H5        1.0  0.537  0.20515999999999993  0.9422200000000002  1.0000
  H   H6        1.0  0.60348  0.16439999999999988  0.9567200000000002  1.0000
  H   H7        1.0  0.97068  0.2427899999999999  0.6549800000000002  1.0000
  H   H8        1.0  0.9422999999999996  0.31557  0.5370100000000002  1.0000
  H   H9        1.0  0.9567599999999999  0.27531999999999995  0.6035200000000002  1.0000
  H   H10       1.0  0.2428099999999999  0.9707100000000001  0.13147000000000006  1.0000
  H   H11       1.0  0.31584999999999996  0.9422700000000002  0.20483  1.0000
  H   H12       1.0  0.2754999999999999  0.9566400000000002  0.16424000000000005  1.0000
  H   H13       1.0  0.97066  0.13165000000000002  0.24277  1.0000
  H   H14       1.0  0.94225  0.20552999999999993  0.3153800000000001  1.0000
  H   H15       1.0  0.95662  0.16467000000000004  0.2753  1.0000
  H   H16       1.0  0.2427999999999999  0.65499  0.9707000000000002  1.0000
  H   H17       1.0  0.31561000000000006  0.53702  0.94225  1.0000
  H   H18       1.0  0.27536000000000005  0.60348  0.95674  1.0000
  H   H19       1.0  0.13156  0.9706800000000002  0.65495  1.0000
  H   H20       1.0  0.20511999999999997  0.9423100000000001  0.53699  1.0000
  H   H21       1.0  0.1643799999999999  0.95677  0.6035000000000003  1.0000
  H   H22       1.0  0.6549700000000002  0.24279  0.13157  1.0000
  H   H23       1.0  0.5369899999999999  0.31558  0.20514000000000004  1.0000
  H   H24       1.0  0.6035100000000001  0.27535  0.16440000000000005  1.0000
  H   H25       1.0  0.65494  0.97067  0.24277  1.0000
  H   H26       1.0  0.5369  0.94226  0.3153700000000001  1.0000
  H   H27       1.0  0.6034199999999998  0.9566300000000001  0.27528  1.0000
  H   H28       1.0  0.1315600000000001  0.24277  0.97069  1.0000
  H   H29       1.0  0.20516000000000006  0.3156  0.94223  1.0000
  H   H30       1.0  0.16439999999999996  0.27533999999999986  0.9567300000000002  1.0000
  H   H31       1.0  0.24279  0.13165000000000002  0.6549  1.0000
  H   H32       1.0  0.31539  0.20547999999999997  0.53687  1.0000
  H   H33       1.0  0.27531999999999995  0.16466000000000003  0.60339  1.0000
  H   H34       1.0  0.9707100000000003  0.6549899999999997  0.13147000000000006  1.0000
  H   H35       1.0  0.94227  0.53709  0.20479000000000006  1.0000
  H   H36       1.0  0.9566300000000001  0.6036100000000002  0.16423  1.0000
  H   H37       1.0  0.86844  0.34505  0.029320000000000006  1.0000
  H   H38       1.0  0.7948800000000001  0.46301999999999993  0.057680000000000016  1.0000
  H   H39       1.0  0.8356300000000001  0.3965  0.04323  1.0000
  H   H40       1.0  0.34507  0.86835  0.75725  1.0000
  H   H41       1.0  0.46311000000000013  0.79451  0.68463  1.0000
  H   H42       1.0  0.39658000000000004  0.8353299999999999  0.72471  1.0000
  H   H43       1.0  0.029339999999999793  0.7572200000000001  0.8683600000000002  1.0000
  H   H44       1.0  0.05774999999999996  0.68461  0.79447  1.0000
  H   H45       1.0  0.04338000000000006  0.7246899999999998  0.8353400000000002  1.0000
  H   H46       1.0  0.7572  0.029300000000000003  0.34501  1.0000
  H   H47       1.0  0.6843899999999999  0.057759999999999964  0.4629600000000001  1.0000
  H   H48       1.0  0.72463  0.043279999999999944  0.3965100000000001  1.0000
  H   H49       1.0  0.029289999999999882  0.8685300000000004  0.34501  1.0000
  H   H50       1.0  0.057730000000000045  0.7952099999999999  0.4629000000000001  1.0000
  H   H51       1.0  0.04337000000000003  0.83578  0.39639  1.0000
  H   H52       1.0  0.7571800000000004  0.34498999999999996  0.86854  1.0000
  H   H53       1.0  0.6841500000000003  0.46290000000000014  0.79522  1.0000
  H   H54       1.0  0.72449  0.39638  0.83576  1.0000
  H   H55       1.0  0.86843  0.029309999999999996  0.75725  1.0000
  H   H56       1.0  0.7948299999999998  0.05777000000000001  0.68441  1.0000
  H   H57       1.0  0.8355900000000002  0.04326999999999993  0.7246700000000003  1.0000
  H   H58       1.0  0.3450699999999999  0.7572200000000002  0.029330000000000005  1.0000
  H   H59       1.0  0.46310999999999986  0.6846200000000002  0.05775000000000002  1.0000
  H   H60       1.0  0.39657999999999993  0.7247100000000001  0.043380000000000016  1.0000
  H   H61       1.0  0.34506  0.029309999999999944  0.8684500000000003  1.0000
  H   H62       1.0  0.4629999999999999  0.05777999999999987  0.7948400000000002  1.0000
  H   H63       1.0  0.39652999999999994  0.04327999999999997  0.83559  1.0000
  H   H64       1.0  0.86843  0.75721  0.3450400000000001  1.0000
  H   H65       1.0  0.7948900000000001  0.6844199999999999  0.46300000000000013  1.0000
  H   H66       1.0  0.8356100000000001  0.72466  0.39649  1.0000
  H   H67       1.0  0.75719  0.86854  0.029290000000000007  1.0000
  H   H68       1.0  0.6841399999999999  0.7951900000000002  0.05773000000000001  1.0000
  H   H69       1.0  0.7245  0.83577  0.04336  1.0000
  H   H70       1.0  0.02931000000000003  0.34501  0.75722  1.0000
  H   H71       1.0  0.05769000000000007  0.46298  0.68444  1.0000
  H   H72       1.0  0.043229999999999914  0.3964699999999999  0.7247000000000002  1.0000
  H   H73       1.0  0.8683399999999999  0.34507999999999994  0.7572400000000002  1.0000
  H   H74       1.0  0.7945199999999999  0.46311  0.6846200000000002  1.0000
  H   H75       1.0  0.83532  0.39658999999999994  0.7247200000000003  1.0000
  H   H76       1.0  0.345  0.86854  0.029300000000000007  1.0000
  H   H77       1.0  0.46292000000000005  0.79521  0.05773000000000001  1.0000
  H   H78       1.0  0.39637999999999995  0.83577  0.04336  1.0000
  H   H79       1.0  0.029329999999999856  0.7572200000000002  0.3450800000000001  1.0000
  H   H80       1.0  0.057729999999999906  0.6846200000000001  0.4631200000000001  1.0000
  H   H81       1.0  0.04336  0.72472  0.39661  1.0000
  H   H82       1.0  0.7571999999999999  0.029309999999999944  0.8684400000000002  1.0000
  H   H83       1.0  0.68438  0.05776999999999999  0.79481  1.0000
  H   H84       1.0  0.7246299999999999  0.04326999999999998  0.83559  1.0000
  H   H85       1.0  0.029289999999999792  0.8685300000000004  0.75722  1.0000
  H   H86       1.0  0.05773999999999975  0.7951900000000003  0.68417  1.0000
  H   H87       1.0  0.04337999999999988  0.8357500000000001  0.7245200000000003  1.0000
  H   H88       1.0  0.75719  0.34501  0.029320000000000006  1.0000
  H   H89       1.0  0.68441  0.46299  0.05771000000000001  1.0000
  H   H90       1.0  0.7246500000000001  0.3964800000000001  0.043260000000000014  1.0000
  H   H91       1.0  0.86845  0.029320000000000002  0.34505  1.0000
  H   H92       1.0  0.7948599999999999  0.05776999999999999  0.4629900000000001  1.0000
  H   H93       1.0  0.8355999999999998  0.04327999999999997  0.3965300000000001  1.0000
  H   H94       1.0  0.3449799999999999  0.75718  0.8685500000000003  1.0000
  H   H95       1.0  0.4628999999999999  0.6841500000000001  0.79522  1.0000
  H   H96       1.0  0.3963800000000001  0.72449  0.83576  1.0000
  H   H97       1.0  0.3449999999999999  0.02928999999999996  0.7572300000000002  1.0000
  H   H98       1.0  0.46295  0.05776000000000002  0.68441  1.0000
  H   H99       1.0  0.39647999999999994  0.04325999999999988  0.7246700000000003  1.0000
  H   H100      1.0  0.8683400000000001  0.75723  0.029330000000000005  1.0000
  H   H101      1.0  0.7944799999999997  0.6846200000000002  0.05775000000000002  1.0000
  H   H102      1.0  0.83535  0.7247100000000001  0.04336  1.0000
  H   H103      1.0  0.7572100000000002  0.86843  0.34505  1.0000
  H   H104      1.0  0.68443  0.7948799999999999  0.46300000000000013  1.0000
  H   H105      1.0  0.7246500000000001  0.83562  0.39649  1.0000
  H   H106      1.0  0.029319999999999805  0.34506000000000003  0.8684300000000003  1.0000
  H   H107      1.0  0.05769999999999992  0.46302000000000004  0.79486  1.0000
  H   H108      1.0  0.0432399999999999  0.39649999999999996  0.8356200000000003  1.0000
  H   H109      1.0  0.13153999999999996  0.65496  0.97069  1.0000
  H   H110      1.0  0.20514000000000013  0.5370199999999999  0.94223  1.0000
  H   H111      1.0  0.1644  0.60348  0.9567200000000002  1.0000
  H   H112      1.0  0.65498  0.13157000000000005  0.24277  1.0000
  H   H113      1.0  0.5370100000000001  0.20511  0.31557  1.0000
  H   H114      1.0  0.60353  0.16437999999999994  0.27533000000000013  1.0000
  H   H115      1.0  0.9707099999999999  0.24279999999999993  0.13146000000000005  1.0000
  H   H116      1.0  0.9422599999999999  0.31583999999999995  0.20482000000000006  1.0000
  H   H117      1.0  0.95662  0.27548999999999996  0.16424000000000005  1.0000
  H   H118      1.0  0.2428099999999999  0.97069  0.6549800000000002  1.0000
  H   H119      1.0  0.3155799999999999  0.9423099999999999  0.5370100000000002  1.0000
  H   H120      1.0  0.2753399999999999  0.95676  0.60351  1.0000
  H   H121      1.0  0.9706699999999999  0.13157999999999992  0.6549400000000002  1.0000
  H   H122      1.0  0.9423  0.20513000000000003  0.53699  1.0000
  H   H123      1.0  0.9567599999999999  0.16436999999999993  0.6035000000000003  1.0000
  H   H124      1.0  0.24278000000000002  0.6549  0.13165  1.0000
  H   H125      1.0  0.31539  0.5368599999999999  0.20551000000000005  1.0000
  H   H126      1.0  0.27532  0.60339  0.16467  1.0000
  H   H127      1.0  0.13165999999999994  0.97067  0.24275000000000005  1.0000
  H   H128      1.0  0.2055199999999999  0.94226  0.3153700000000001  1.0000
  H   H129      1.0  0.16465999999999992  0.9566400000000002  0.2752700000000001  1.0000
  H   H130      1.0  0.6549899999999999  0.2427799999999999  0.9707100000000002  1.0000
  H   H131      1.0  0.5370299999999999  0.31560000000000005  0.94225  1.0000
  H   H132      1.0  0.6035  0.27532999999999996  0.9567500000000002  1.0000
  H   H133      1.0  0.6549899999999997  0.9707100000000001  0.13146000000000005  1.0000
  H   H134      1.0  0.5370699999999998  0.9422700000000005  0.2048  1.0000
  H   H135      1.0  0.6035999999999999  0.9566300000000001  0.16424000000000005  1.0000
  H   H136      1.0  0.13147  0.24281000000000005  0.65502  1.0000
  H   H137      1.0  0.20476  0.3158500000000001  0.53712  1.0000
  H   H138      1.0  0.16425000000000006  0.27548999999999996  0.60363  1.0000
  H   H139      1.0  0.24280000000000004  0.13154999999999997  0.97069  1.0000
  H   H140      1.0  0.31562  0.20518000000000003  0.94223  1.0000
  H   H141      1.0  0.2753699999999999  0.16439999999999988  0.9567300000000002  1.0000
  H   H142      1.0  0.97066  0.6549400000000002  0.24278000000000005  1.0000
  H   H143      1.0  0.9422499999999998  0.5369000000000002  0.3153800000000001  1.0000
  H   H144      1.0  0.95662  0.60342  0.27528  1.0000
  H   H145      1.0  0.12670999999999993  0.75646  0.12663000000000005  1.0000
  H   H146      1.0  0.7564800000000003  0.12666999999999992  0.9902000000000002  1.0000
  H   H147      1.0  0.9901999999999997  0.12668  0.7564700000000002  1.0000
  H   H148      1.0  0.12660999999999992  0.9902200000000001  0.12667  1.0000
  H   H149      1.0  0.9902100000000001  0.12660999999999997  0.12669000000000005  1.0000
  H   H150      1.0  0.12667999999999993  0.7564699999999999  0.9902000000000002  1.0000
  H   H151      1.0  0.12668999999999989  0.9902000000000001  0.7564600000000002  1.0000
  H   H152      1.0  0.75647  0.12667  0.12667  1.0000
  H   H153      1.0  0.7564599999999999  0.99021  0.12671  1.0000
  H   H154      1.0  0.12664999999999996  0.1266299999999999  0.9902100000000003  1.0000
  H   H155      1.0  0.12672000000000005  0.12664  0.75644  1.0000
  H   H156      1.0  0.9902  0.75646  0.12672000000000005  1.0000
  H   H157      1.0  0.8733200000000001  0.24353  0.009800000000000003  1.0000
  H   H158      1.0  0.24354  0.87336  0.8733  1.0000
  H   H159      1.0  0.009789999999999882  0.8733099999999999  0.8733900000000002  1.0000
  H   H160      1.0  0.8733099999999999  0.009809999999999973  0.24354000000000006  1.0000
  H   H161      1.0  0.009789999999999974  0.87328  0.24355000000000004  1.0000
  H   H162      1.0  0.8733500000000002  0.24355000000000007  0.8733  1.0000
  H   H163      1.0  0.87335  0.009790000000000002  0.87337  1.0000
  H   H164      1.0  0.24352999999999989  0.8732900000000002  0.00979  1.0000
  H   H165      1.0  0.2435199999999999  0.009799999999999889  0.8733300000000003  1.0000
  H   H166      1.0  0.8733200000000001  0.87333  0.24355000000000004  1.0000
  H   H167      1.0  0.8733899999999999  0.8733200000000002  0.00979  1.0000
  H   H168      1.0  0.00979000000000002  0.24353000000000005  0.87332  1.0000
  C   C1        1.0  0.12506000000000003  0.70711  0.18698000000000006  1.0000
  C   C2        1.0  0.1482199999999999  0.6689700000000002  0.20999000000000007  1.0000
  C   C3        1.0  0.07908000000000008  0.72663  0.20736  1.0000
  C   C4        1.0  0.22007  0.55173  0.2826400000000001  1.0000
  C   C5        1.0  0.19729000000000002  0.58952  0.2594200000000001  1.0000
  C   C6        1.0  0.7070799999999999  0.12505999999999995  0.9808500000000002  1.0000
  C   C7        1.0  0.6689199999999998  0.14824999999999988  0.9728300000000002  1.0000
  C   C8        1.0  0.72657  0.07908999999999992  0.9869400000000003  1.0000
  C   C9        1.0  0.5517000000000001  0.22036  0.94552  1.0000
  C   C10       1.0  0.5894499999999999  0.19745999999999997  0.9538000000000002  1.0000
  C   C11       1.0  0.9808299999999998  0.18697999999999995  0.7070900000000002  1.0000
  C   C12       1.0  0.9728100000000001  0.20997999999999992  0.6689400000000002  1.0000
  C   C13       1.0  0.98691  0.20737000000000003  0.72659  1.0000
  C   C14       1.0  0.9455700000000004  0.28238  0.55173  1.0000
  C   C15       1.0  0.9538299999999998  0.2592199999999999  0.5894700000000003  1.0000
  C   C16       1.0  0.18697  0.9808600000000001  0.12504  1.0000
  C   C17       1.0  0.21001  0.97283  0.1482  1.0000
  C   C18       1.0  0.20734999999999998  0.9869500000000001  0.07907  1.0000
  C   C19       1.0  0.28265  0.9455600000000001  0.22009000000000006  1.0000
  C   C20       1.0  0.25943999999999995  0.9537700000000001  0.19729000000000005  1.0000
  C   C21       1.0  0.9808400000000002  0.1251  0.18699000000000005  1.0000
  C   C22       1.0  0.9728  0.14833  0.20996000000000006  1.0000
  C   C23       1.0  0.9869399999999998  0.07912  0.20738  1.0000
  C   C24       1.0  0.9455500000000001  0.22066000000000008  0.28218  1.0000
  C   C25       1.0  0.9537600000000003  0.19772  0.25913  1.0000
  C   C26       1.0  0.18699  0.7070799999999999  0.98084  1.0000
  C   C27       1.0  0.20999000000000004  0.6689299999999999  0.9728200000000002  1.0000
  C   C28       1.0  0.20738000000000006  0.7265799999999999  0.9869300000000002  1.0000
  C   C29       1.0  0.2824099999999999  0.5517099999999999  0.9455300000000002  1.0000
  C   C30       1.0  0.2592499999999999  0.5894499999999999  0.9538100000000003  1.0000
  C   C31       1.0  0.12508000000000005  0.98084  0.7070800000000003  1.0000
  C   C32       1.0  0.1482700000000001  0.97281  0.66893  1.0000
  C   C33       1.0  0.07909999999999978  0.9869300000000001  0.7265700000000003  1.0000
  C   C34       1.0  0.22033000000000008  0.94557  0.55172  1.0000
  C   C35       1.0  0.19743999999999975  0.9538300000000001  0.5894700000000003  1.0000
  C   C36       1.0  0.7071  0.187  0.12508  1.0000
  C   C37       1.0  0.66894  0.20997999999999997  0.14826  1.0000
  C   C38       1.0  0.72659  0.20738000000000006  0.0791  1.0000
  C   C39       1.0  0.5517100000000001  0.28238  0.22033  1.0000
  C   C40       1.0  0.5894700000000002  0.25925  0.19746000000000005  1.0000
  C   C41       1.0  0.7070500000000001  0.98083  0.18699000000000005  1.0000
  C   C42       1.0  0.6689  0.9728000000000001  0.20996000000000006  1.0000
  C   C43       1.0  0.7265600000000001  0.98692  0.20738  1.0000
  C   C44       1.0  0.55163  0.9455500000000001  0.28218  1.0000
  C   C45       1.0  0.5894000000000001  0.9537600000000002  0.25911000000000006  1.0000
  C   C46       1.0  0.12506999999999993  0.18695999999999996  0.9808500000000002  1.0000
  C   C47       1.0  0.14826999999999993  0.20994999999999986  0.9728300000000002  1.0000
  C   C48       1.0  0.07908999999999992  0.20734999999999995  0.9869400000000003  1.0000
  C   C49       1.0  0.2203599999999999  0.28239999999999993  0.9455300000000002  1.0000
  C   C50       1.0  0.1974699999999999  0.2592499999999999  0.9538000000000002  1.0000
  C   C51       1.0  0.18702999999999992  0.12510999999999994  0.7070400000000002  1.0000
  C   C52       1.0  0.20997999999999992  0.14833999999999992  0.6688900000000002  1.0000
  C   C53       1.0  0.20742999999999998  0.07912  0.72654  1.0000
  C   C54       1.0  0.28219000000000005  0.22064999999999999  0.55161  1.0000
  C   C55       1.0  0.25914  0.19771000000000008  0.58938  1.0000
  C   C56       1.0  0.9808599999999997  0.7070900000000002  0.12504  1.0000
  C   C57       1.0  0.9728199999999997  0.6689499999999999  0.14821000000000006  1.0000
  C   C58       1.0  0.98695  0.72659  0.07907  1.0000
  C   C59       1.0  0.94556  0.55171  0.22008  1.0000
  C   C60       1.0  0.95377  0.5895  0.19727  1.0000
  C   C61       1.0  0.87493  0.29292  0.01916  1.0000
  C   C62       1.0  0.85174  0.33106000000000013  0.02719  1.0000
  C   C63       1.0  0.9209  0.27343  0.013070000000000003  1.0000
  C   C64       1.0  0.77968  0.4482800000000001  0.05442000000000002  1.0000
  C   C65       1.0  0.8025600000000002  0.41053  0.04617000000000002  1.0000
  C   C66       1.0  0.2929399999999996  0.8748800000000003  0.8130100000000002  1.0000
  C   C67       1.0  0.33108999999999994  0.8516500000000001  0.79005  1.0000
  C   C68       1.0  0.27344  0.92088  0.79261  1.0000
  C   C69       1.0  0.4483699999999999  0.77935  0.71783  1.0000
  C   C70       1.0  0.4106  0.8022800000000001  0.74088  1.0000
  C   C71       1.0  0.019159999999999875  0.8130000000000001  0.87491  1.0000
  C   C72       1.0  0.02719999999999995  0.79003  0.8516800000000002  1.0000
  C   C73       1.0  0.013059999999999999  0.79261  0.9208900000000002  1.0000
  C   C74       1.0  0.054459999999999835  0.71781  0.7793500000000002  1.0000
  C   C75       1.0  0.04623999999999967  0.7408600000000002  0.8022900000000002  1.0000
  C   C76       1.0  0.8130100000000002  0.01915999999999996  0.2929200000000001  1.0000
  C   C77       1.0  0.79001  0.02718  0.33107  1.0000
  C   C78       1.0  0.7926200000000002  0.01308  0.27341  1.0000
  C   C79       1.0  0.71759  0.05446999999999994  0.44829000000000013  1.0000
  C   C80       1.0  0.74075  0.046200000000000005  0.41055  1.0000
  C   C81       1.0  0.01913999999999991  0.8749600000000001  0.29291  1.0000
  C   C82       1.0  0.027179999999999847  0.8517900000000004  0.33105  1.0000
  C   C83       1.0  0.013060000000000046  0.92093  0.27341  1.0000
  C   C84       1.0  0.05444999999999994  0.7799200000000001  0.44829000000000013  1.0000
  C   C85       1.0  0.046230000000000056  0.80273  0.4105  1.0000
  C   C86       1.0  0.81299  0.2928999999999999  0.8749500000000002  1.0000
  C   C87       1.0  0.7899799999999998  0.33103999999999995  0.8517900000000003  1.0000
  C   C88       1.0  0.7926199999999999  0.27337999999999996  0.9209300000000002  1.0000
  C   C89       1.0  0.7173500000000002  0.44829  0.7799200000000002  1.0000
  C   C90       1.0  0.7405499999999999  0.41049999999999986  0.8027200000000002  1.0000
  C   C91       1.0  0.87492  0.01914000000000001  0.81305  1.0000
  C   C92       1.0  0.85173  0.02716999999999994  0.7900600000000002  1.0000
  C   C93       1.0  0.9209  0.013060000000000014  0.79266  1.0000
  C   C94       1.0  0.7796400000000001  0.05446999999999994  0.7176000000000002  1.0000
  C   C95       1.0  0.8025199999999999  0.04619999999999993  0.7407500000000002  1.0000
  C   C96       1.0  0.29294  0.81301  0.01917  1.0000
  C   C97       1.0  0.3311  0.79003  0.027200000000000005  1.0000
  C   C98       1.0  0.27343999999999996  0.79261  0.01309  1.0000
  C   C99       1.0  0.4483700000000001  0.71782  0.054460000000000015  1.0000
  C   C100      1.0  0.41059999999999997  0.7408900000000002  0.04624000000000002  1.0000
  C   C101      1.0  0.29293  0.0191499999999999  0.8749400000000003  1.0000
  C   C102      1.0  0.3310699999999999  0.02716999999999989  0.8517500000000002  1.0000
  C   C103      1.0  0.27342999999999995  0.013059999999999908  0.9209000000000003  1.0000
  C   C104      1.0  0.4483  0.05447999999999999  0.77964  1.0000
  C   C105      1.0  0.41055999999999987  0.04619999999999993  0.8025300000000002  1.0000
  C   C106      1.0  0.87491  0.813  0.2929200000000001  1.0000
  C   C107      1.0  0.85173  0.7900100000000001  0.33107  1.0000
  C   C108      1.0  0.9208899999999999  0.79261  0.2734200000000001  1.0000
  C   C109      1.0  0.7796800000000002  0.71761  0.4482800000000001  1.0000
  C   C110      1.0  0.8025400000000001  0.74075  0.4105300000000001  1.0000
  C   C111      1.0  0.8130200000000002  0.8749600000000001  0.01914  1.0000
  C   C112      1.0  0.7899899999999999  0.8518  0.02718  1.0000
  C   C113      1.0  0.7926500000000003  0.92093  0.01305  1.0000
  C   C114      1.0  0.7173399999999999  0.7799200000000001  0.05445  1.0000
  C   C115      1.0  0.74056  0.8027200000000002  0.04623  1.0000
  C   C116      1.0  0.019169999999999972  0.2929099999999999  0.8130200000000002  1.0000
  C   C117      1.0  0.027190000000000013  0.33105  0.79003  1.0000
  C   C118      1.0  0.013069999999999981  0.27341000000000004  0.79264  1.0000
  C   C119      1.0  0.05442999999999994  0.44827  0.71763  1.0000
  C   C120      1.0  0.046169999999999954  0.41051999999999994  0.7407900000000002  1.0000
  C   C121      1.0  0.87487  0.29295  0.813  1.0000
  C   C122      1.0  0.85165  0.3311  0.79005  1.0000
  C   C123      1.0  0.92086  0.27343999999999996  0.79261  1.0000
  C   C124      1.0  0.77935  0.4483800000000001  0.7178200000000002  1.0000
  C   C125      1.0  0.8022700000000003  0.4106000000000001  0.74088  1.0000
  C   C126      1.0  0.2929  0.8749600000000001  0.01914  1.0000
  C   C127      1.0  0.33104  0.8518  0.02718  1.0000
  C   C128      1.0  0.2734000000000001  0.92093  0.01305  1.0000
  C   C129      1.0  0.44828999999999997  0.7799200000000001  0.054440000000000016  1.0000
  C   C130      1.0  0.4104900000000001  0.80273  0.04623  1.0000
  C   C131      1.0  0.019170000000000083  0.813  0.29296  1.0000
  C   C132      1.0  0.02720000000000004  0.79003  0.33111  1.0000
  C   C133      1.0  0.013089999999999992  0.79261  0.27346  1.0000
  C   C134      1.0  0.05444999999999999  0.71782  0.44838  1.0000
  C   C135      1.0  0.04622999999999992  0.7408900000000003  0.4106200000000001  1.0000
  C   C136      1.0  0.8130199999999999  0.019139999999999907  0.8749400000000003  1.0000
  C   C137      1.0  0.7900199999999997  0.02716999999999989  0.8517500000000002  1.0000
  C   C138      1.0  0.7926300000000002  0.013060000000000014  0.92091  1.0000
  C   C139      1.0  0.7175800000000001  0.05447  0.77964  1.0000
  C   C140      1.0  0.7407200000000002  0.04619999999999993  0.8025300000000002  1.0000
  C   C141      1.0  0.01913999999999991  0.8749499999999998  0.8130400000000002  1.0000
  C   C142      1.0  0.02716999999999991  0.85178  0.7900200000000002  1.0000
  C   C143      1.0  0.013050000000000108  0.9209199999999997  0.7926700000000002  1.0000
  C   C144      1.0  0.05444999999999994  0.7799099999999999  0.7173600000000002  1.0000
  C   C145      1.0  0.04623999999999999  0.8027099999999999  0.7405800000000002  1.0000
  C   C146      1.0  0.8130100000000002  0.29291  0.01917  1.0000
  C   C147      1.0  0.79  0.33106000000000013  0.02719  1.0000
  C   C148      1.0  0.7926200000000002  0.27341  0.01309  1.0000
  C   C149      1.0  0.71761  0.44827  0.054440000000000016  1.0000
  C   C150      1.0  0.7407600000000001  0.41052  0.04618  1.0000
  C   C151      1.0  0.87493  0.019150000000000004  0.29294  1.0000
  C   C152      1.0  0.8517400000000003  0.027179999999999958  0.3310800000000001  1.0000
  C   C153      1.0  0.9209  0.013069999999999967  0.2734400000000001  1.0000
  C   C154      1.0  0.7796400000000003  0.05446999999999997  0.4483000000000001  1.0000
  C   C155      1.0  0.8025300000000001  0.046199999999999956  0.4105600000000001  1.0000
  C   C156      1.0  0.29289000000000004  0.8129999999999998  0.87496  1.0000
  C   C157      1.0  0.33103999999999995  0.78998  0.8518000000000002  1.0000
  C   C158      1.0  0.27338000000000007  0.79263  0.9209300000000002  1.0000
  C   C159      1.0  0.44829  0.71735  0.7799200000000002  1.0000
  C   C160      1.0  0.4104999999999999  0.74055  0.80271  1.0000
  C   C161      1.0  0.29291  0.019159999999999996  0.81303  1.0000
  C   C162      1.0  0.33106  0.02716999999999989  0.7900400000000002  1.0000
  C   C163      1.0  0.2734  0.013070000000000007  0.79264  1.0000
  C   C164      1.0  0.44827  0.05447  0.71761  1.0000
  C   C165      1.0  0.41052999999999995  0.04618999999999993  0.7407700000000003  1.0000
  C   C166      1.0  0.8749000000000001  0.81301  0.01916  1.0000
  C   C167      1.0  0.85166  0.79005  0.027200000000000005  1.0000
  C   C168      1.0  0.9208800000000003  0.79262  0.013060000000000004  1.0000
  C   C169      1.0  0.77935  0.71782  0.05445  1.0000
  C   C170      1.0  0.80229  0.74087  0.04624000000000002  1.0000
  C   C171      1.0  0.8129900000000001  0.87492  0.2929200000000001  1.0000
  C   C172      1.0  0.79002  0.8517300000000001  0.33106  1.0000
  C   C173      1.0  0.7925999999999997  0.9209000000000002  0.2734200000000001  1.0000
  C   C174      1.0  0.7176200000000003  0.77967  0.4482800000000001  1.0000
  C   C175      1.0  0.7407499999999997  0.8025500000000002  0.4105300000000001  1.0000
  C   C176      1.0  0.019159999999999965  0.29291999999999996  0.8749400000000003  1.0000
  C   C177      1.0  0.027180000000000006  0.3310600000000001  0.85174  1.0000
  C   C178      1.0  0.013069999999999913  0.27342999999999995  0.9209000000000003  1.0000
  C   C179      1.0  0.05442999999999989  0.44828  0.7796700000000002  1.0000
  C   C180      1.0  0.04616999999999991  0.41052999999999995  0.8025600000000003  1.0000
  C   C181      1.0  0.12506999999999996  0.7070799999999999  0.9808500000000002  1.0000
  C   C182      1.0  0.14826000000000006  0.6689299999999999  0.9728200000000002  1.0000
  C   C183      1.0  0.07909000000000002  0.72657  0.9869400000000003  1.0000
  C   C184      1.0  0.2203499999999999  0.5517099999999999  0.9455300000000002  1.0000
  C   C185      1.0  0.19745999999999983  0.5894499999999999  0.9538000000000002  1.0000
  C   C186      1.0  0.7071  0.12508  0.18699000000000005  1.0000
  C   C187      1.0  0.6689499999999999  0.14827000000000007  0.20997  1.0000
  C   C188      1.0  0.7266  0.07909999999999998  0.20737000000000005  1.0000
  C   C189      1.0  0.55173  0.22031999999999996  0.28238000000000013  1.0000
  C   C190      1.0  0.58948  0.19744999999999996  0.25924  1.0000
  C   C191      1.0  0.9808600000000001  0.18697  0.12505  1.0000
  C   C192      1.0  0.9728299999999998  0.20999000000000007  0.14821000000000006  1.0000
  C   C193      1.0  0.98695  0.20734  0.07907  1.0000
  C   C194      1.0  0.9455500000000001  0.28264999999999996  0.22009000000000006  1.0000
  C   C195      1.0  0.9537600000000002  0.25944  0.19729000000000005  1.0000
  C   C196      1.0  0.1869999999999999  0.98083  0.7070900000000002  1.0000
  C   C197      1.0  0.20999999999999988  0.9728099999999997  0.6689400000000002  1.0000
  C   C198      1.0  0.20738000000000015  0.98692  0.72659  1.0000
  C   C199      1.0  0.28239000000000003  0.94557  0.55173  1.0000
  C   C200      1.0  0.2592400000000001  0.9538300000000001  0.58948  1.0000
  C   C201      1.0  0.9808400000000002  0.1250699999999999  0.7070800000000003  1.0000
  C   C202      1.0  0.9728100000000001  0.14826  0.66893  1.0000
  C   C203      1.0  0.98693  0.0790999999999999  0.7265700000000003  1.0000
  C   C204      1.0  0.9455700000000004  0.22033000000000003  0.55172  1.0000
  C   C205      1.0  0.9538299999999998  0.19743999999999992  0.5894700000000003  1.0000
  C   C206      1.0  0.18701999999999985  0.70705  0.12510000000000004  1.0000
  C   C207      1.0  0.20998  0.66889  0.14834  1.0000
  C   C208      1.0  0.20741999999999977  0.7265400000000002  0.07912000000000002  1.0000
  C   C209      1.0  0.28219000000000005  0.55161  0.22066  1.0000
  C   C210      1.0  0.25914  0.58938  0.19772  1.0000
  C   C211      1.0  0.12510000000000002  0.98084  0.18698000000000006  1.0000
  C   C212      1.0  0.14833999999999992  0.9728000000000001  0.20994  1.0000
  C   C213      1.0  0.07911999999999993  0.9869400000000002  0.20737000000000005  1.0000
  C   C214      1.0  0.22064999999999996  0.9455499999999999  0.28217  1.0000
  C   C215      1.0  0.19770999999999997  0.9537700000000001  0.25912  1.0000
  C   C216      1.0  0.7070900000000001  0.18697000000000005  0.98084  1.0000
  C   C217      1.0  0.6689399999999999  0.20996999999999985  0.9728200000000002  1.0000
  C   C218      1.0  0.7266  0.20735999999999988  0.9869300000000002  1.0000
  C   C219      1.0  0.5517099999999999  0.28239999999999993  0.9455300000000002  1.0000
  C   C220      1.0  0.5894599999999998  0.25923999999999997  0.9538100000000003  1.0000
  C   C221      1.0  0.7070899999999998  0.9808600000000001  0.12504  1.0000
  C   C222      1.0  0.6689500000000003  0.97282  0.1482  1.0000
  C   C223      1.0  0.7265900000000001  0.9869500000000001  0.07908000000000003  1.0000
  C   C224      1.0  0.5517  0.9455600000000001  0.22009000000000006  1.0000
  C   C225      1.0  0.58949  0.9537700000000001  0.19728000000000007  1.0000
  C   C226      1.0  0.12506999999999996  0.18699  0.7071  1.0000
  C   C227      1.0  0.14821999999999996  0.21000999999999992  0.6689600000000002  1.0000
  C   C228      1.0  0.07908999999999984  0.20736999999999997  0.7266200000000003  1.0000
  C   C229      1.0  0.22008000000000003  0.28265  0.55172  1.0000
  C   C230      1.0  0.19729999999999998  0.25943  0.58951  1.0000
  C   C231      1.0  0.18697999999999995  0.12505999999999995  0.9808600000000002  1.0000
  C   C232      1.0  0.20997999999999992  0.14824999999999988  0.9728300000000002  1.0000
  C   C233      1.0  0.20736999999999994  0.07908999999999992  0.9869400000000003  1.0000
  C   C234      1.0  0.28242  0.22036  0.94552  1.0000
  C   C235      1.0  0.25927999999999995  0.19746999999999995  0.9538000000000002  1.0000
  C   C236      1.0  0.98083  0.70705  0.18699000000000005  1.0000
  C   C237      1.0  0.97279  0.6689  0.20996000000000006  1.0000
  C   C238      1.0  0.98691  0.72655  0.20739000000000005  1.0000
  C   C239      1.0  0.94554  0.55163  0.28218  1.0000
  C   C240      1.0  0.9537600000000002  0.5894  0.25911000000000006  1.0000
  C   C241      1.0  0.14451999999999998  0.72672  0.14449000000000006  1.0000
  C   C242      1.0  0.26291  0.53204  0.2635  1.0000
  C   C243      1.0  0.21600999999999987  0.6092900000000002  0.21628000000000006  1.0000
  C   C244      1.0  0.19135000000000005  0.64931  0.19147  1.0000
  C   C245      1.0  0.28685  0.49178  0.28722  1.0000
  C   C246      1.0  0.7267400000000004  0.14447  0.98428  1.0000
  C   C247      1.0  0.53211  0.26320999999999994  0.94147  1.0000
  C   C248      1.0  0.6093000000000001  0.2161  0.9584600000000002  1.0000
  C   C249      1.0  0.6493100000000002  0.19137999999999986  0.9678900000000003  1.0000
  C   C250      1.0  0.4919000000000001  0.2870599999999999  0.9339900000000002  1.0000
  C   C251      1.0  0.9842700000000001  0.14449000000000006  0.72673  1.0000
  C   C252      1.0  0.94151  0.26317999999999997  0.5321300000000002  1.0000
  C   C253      1.0  0.9584700000000002  0.21610000000000004  0.60931  1.0000
  C   C254      1.0  0.9678800000000001  0.19138999999999998  0.64932  1.0000
  C   C255      1.0  0.93399  0.28703  0.4919500000000001  1.0000
  C   C256      1.0  0.14448000000000005  0.9842900000000001  0.14448  1.0000
  C   C257      1.0  0.2634999999999999  0.94155  0.26291  1.0000
  C   C258      1.0  0.21629000000000004  0.95843  0.21598000000000006  1.0000
  C   C259      1.0  0.19147999999999996  0.96787  0.19133  1.0000
  C   C260      1.0  0.28721  0.9341600000000001  0.2868600000000001  1.0000
  C   C261      1.0  0.98428  0.14447999999999997  0.14449000000000006  1.0000
  C   C262      1.0  0.9415500000000001  0.2635  0.26291  1.0000
  C   C263      1.0  0.9584200000000002  0.21629  0.21599  1.0000
  C   C264      1.0  0.9678699999999998  0.19146999999999997  0.19134000000000007  1.0000
  C   C265      1.0  0.9341599999999998  0.28720999999999997  0.2868600000000001  1.0000
  C   C266      1.0  0.14449000000000006  0.7267300000000001  0.98428  1.0000
  C   C267      1.0  0.2632099999999999  0.5321099999999999  0.9414800000000002  1.0000
  C   C268      1.0  0.21610999999999972  0.6092900000000001  0.9584600000000002  1.0000
  C   C269      1.0  0.19139999999999982  0.64931  0.9678900000000003  1.0000
  C   C270      1.0  0.2870599999999999  0.4918999999999999  0.9339900000000002  1.0000
  C   C271      1.0  0.1445000000000001  0.98427  0.72673  1.0000
  C   C272      1.0  0.2631799999999999  0.94151  0.53214  1.0000
  C   C273      1.0  0.2161100000000001  0.95847  0.60931  1.0000
  C   C274      1.0  0.1914000000000001  0.96788  0.64932  1.0000
  C   C275      1.0  0.28702999999999984  0.9340000000000002  0.4919600000000001  1.0000
  C   C276      1.0  0.72674  0.1445  0.1445  1.0000
  C   C277      1.0  0.5321300000000001  0.26317  0.26318  1.0000
  C   C278      1.0  0.6093099999999999  0.21610999999999997  0.21611000000000005  1.0000
  C   C279      1.0  0.6493299999999999  0.1914000000000001  0.19139  1.0000
  C   C280      1.0  0.49195000000000005  0.28702  0.2870300000000001  1.0000
  C   C281      1.0  0.7267200000000001  0.98428  0.14449000000000006  1.0000
  C   C282      1.0  0.5320400000000001  0.94155  0.26291  1.0000
  C   C283      1.0  0.6093000000000002  0.95843  0.21598000000000006  1.0000
  C   C284      1.0  0.6493199999999998  0.9678600000000002  0.19133  1.0000
  C   C285      1.0  0.4917699999999998  0.93417  0.2868600000000001  1.0000
  C   C286      1.0  0.14448000000000005  0.14446999999999988  0.9842900000000002  1.0000
  C   C287      1.0  0.26321  0.26319999999999993  0.9414800000000002  1.0000
  C   C288      1.0  0.21612999999999993  0.21610999999999997  0.9584600000000002  1.0000
  C   C289      1.0  0.19139999999999996  0.19137999999999986  0.9678900000000003  1.0000
  C   C290      1.0  0.28705000000000014  0.28705999999999987  0.9340000000000003  1.0000
  C   C291      1.0  0.14453000000000016  0.14449999999999996  0.72671  1.0000
  C   C292      1.0  0.26291  0.26349999999999996  0.53204  1.0000
  C   C293      1.0  0.21601  0.21627999999999997  0.60929  1.0000
  C   C294      1.0  0.19135000000000005  0.19148000000000004  0.64931  1.0000
  C   C295      1.0  0.28685  0.28720999999999997  0.4917800000000001  1.0000
  C   C296      1.0  0.98428  0.72672  0.14449000000000006  1.0000
  C   C297      1.0  0.94156  0.53204  0.26291  1.0000
  C   C298      1.0  0.9584200000000004  0.6093  0.21598000000000006  1.0000
  C   C299      1.0  0.9678599999999998  0.6493200000000001  0.19133  1.0000
  C   C300      1.0  0.9341699999999998  0.49178  0.2868600000000001  1.0000
  C   C301      1.0  0.85551  0.2732600000000001  0.01573  1.0000
  C   C302      1.0  0.73682  0.46785999999999994  0.05849000000000001  1.0000
  C   C303      1.0  0.78389  0.39069  0.04153000000000001  1.0000
  C   C304      1.0  0.8086  0.35068  0.03212  1.0000
  C   C305      1.0  0.71297  0.50805  0.06601000000000003  1.0000
  C   C306      1.0  0.27327999999999997  0.8554999999999999  0.8555000000000003  1.0000
  C   C307      1.0  0.4679700000000001  0.7365  0.7370900000000002  1.0000
  C   C308      1.0  0.39070000000000005  0.7836999999999997  0.7840200000000003  1.0000
  C   C309      1.0  0.35068  0.8085100000000001  0.8086700000000002  1.0000
  C   C310      1.0  0.50823  0.71279  0.71315  1.0000
  C   C311      1.0  0.015710000000000033  0.8555  0.8555300000000002  1.0000
  C   C312      1.0  0.058449999999999856  0.73708  0.7365000000000003  1.0000
  C   C313      1.0  0.04157999999999993  0.7839999999999999  0.78373  1.0000
  C   C314      1.0  0.032130000000000034  0.80865  0.80854  1.0000
  C   C315      1.0  0.06583999999999995  0.7131399999999999  0.7127900000000003  1.0000
  C   C316      1.0  0.85551  0.015720000000000005  0.27328  1.0000
  C   C317      1.0  0.7367899999999998  0.05851999999999999  0.4678900000000001  1.0000
  C   C318      1.0  0.78389  0.041540000000000014  0.39071  1.0000
  C   C319      1.0  0.8086  0.03210999999999997  0.3506900000000001  1.0000
  C   C320      1.0  0.7129399999999999  0.06599999999999995  0.5081000000000002  1.0000
  C   C321      1.0  0.01572000000000006  0.8555  0.27329  1.0000
  C   C322      1.0  0.058449999999999995  0.7370899999999999  0.4679700000000001  1.0000
  C   C323      1.0  0.04156999999999999  0.78402  0.39071  1.0000
  C   C324      1.0  0.03213999999999979  0.8086600000000002  0.3506900000000001  1.0000
  C   C325      1.0  0.06584000000000009  0.71314  0.50823  1.0000
  C   C326      1.0  0.85549  0.27327999999999997  0.8555000000000003  1.0000
  C   C327      1.0  0.7364999999999998  0.46795999999999993  0.7370900000000002  1.0000
  C   C328      1.0  0.7836999999999998  0.39070999999999995  0.7840200000000003  1.0000
  C   C329      1.0  0.8085100000000001  0.35068999999999995  0.8086700000000002  1.0000
  C   C330      1.0  0.7127899999999999  0.5082200000000001  0.7131400000000002  1.0000
  C   C331      1.0  0.8555200000000004  0.015710000000000012  0.85554  1.0000
  C   C332      1.0  0.7367899999999998  0.05851999999999996  0.7367900000000002  1.0000
  C   C333      1.0  0.7838699999999998  0.04153999999999994  0.7838900000000002  1.0000
  C   C334      1.0  0.8085999999999999  0.03210999999999988  0.8086300000000002  1.0000
  C   C335      1.0  0.71295  0.06599999999999998  0.7129400000000002  1.0000
  C   C336      1.0  0.27327  0.85551  0.01572  1.0000
  C   C337      1.0  0.46796  0.73709  0.058450000000000016  1.0000
  C   C338      1.0  0.39070000000000005  0.78402  0.04158000000000001  1.0000
  C   C339      1.0  0.35068  0.80867  0.03214  1.0000
  C   C340      1.0  0.5082200000000001  0.71314  0.06584  1.0000
  C   C341      1.0  0.27326000000000006  0.015720000000000005  0.85552  1.0000
  C   C342      1.0  0.46788999999999975  0.05851999999999996  0.7367900000000002  1.0000
  C   C343      1.0  0.39070000000000005  0.04153999999999988  0.7839000000000003  1.0000
  C   C344      1.0  0.35068  0.03210999999999994  0.8086200000000002  1.0000
  C   C345      1.0  0.5081  0.06600999999999997  0.7129400000000002  1.0000
  C   C346      1.0  0.85549  0.8555  0.27328  1.0000
  C   C347      1.0  0.7368300000000001  0.73682  0.46787  1.0000
  C   C348      1.0  0.78388  0.78389  0.3906900000000001  1.0000
  C   C349      1.0  0.8086  0.8086  0.3506800000000001  1.0000
  C   C350      1.0  0.7129799999999998  0.7129699999999999  0.5080500000000002  1.0000
  C   C351      1.0  0.8555200000000001  0.85551  0.01572  1.0000
  C   C352      1.0  0.7365000000000003  0.73709  0.058450000000000016  1.0000
  C   C353      1.0  0.7837100000000001  0.7840100000000001  0.04158000000000001  1.0000
  C   C354      1.0  0.8085200000000001  0.80867  0.03214  1.0000
  C   C355      1.0  0.7127900000000003  0.71314  0.06584  1.0000
  C   C356      1.0  0.01573000000000002  0.27326000000000006  0.85552  1.0000
  C   C357      1.0  0.058489999999999924  0.4678599999999999  0.7368200000000003  1.0000
  C   C358      1.0  0.04152999999999999  0.39067999999999997  0.7839100000000002  1.0000
  C   C359      1.0  0.03212000000000003  0.35066999999999987  0.8086200000000002  1.0000
  C   C360      1.0  0.06600999999999983  0.5080400000000002  0.7129700000000002  1.0000
  N   N1        1.0  0.27072000000000007  0.47017  0.32835  1.0000
  N   N2        1.0  0.30263000000000007  0.4355899999999999  0.33667  1.0000
  N   N3        1.0  0.4706500000000002  0.2705999999999999  0.9305100000000002  1.0000
  N   N4        1.0  0.43592999999999976  0.30216999999999994  0.9248200000000002  1.0000
  N   N5        1.0  0.9304999999999998  0.3282200000000001  0.4707300000000001  1.0000
  N   N6        1.0  0.92479  0.33708  0.4360100000000001  1.0000
  N   N7        1.0  0.32834  0.93075  0.27075  1.0000
  N   N8        1.0  0.33666  0.9251100000000001  0.3026600000000001  1.0000
  N   N9        1.0  0.9307  0.27037  0.3281000000000001  1.0000
  N   N10       1.0  0.9251000000000001  0.30157000000000006  0.3373600000000001  1.0000
  N   N11       1.0  0.3282499999999999  0.47066  0.9305000000000002  1.0000
  N   N12       1.0  0.3370799999999999  0.43595  0.9248200000000002  1.0000
  N   N13       1.0  0.27056  0.9304899999999999  0.4707300000000001  1.0000
  N   N14       1.0  0.3021099999999997  0.9247900000000002  0.43602000000000013  1.0000
  N   N15       1.0  0.4707100000000001  0.32821  0.27058  1.0000
  N   N16       1.0  0.43601000000000006  0.33707  0.30213  1.0000
  N   N17       1.0  0.4708499999999998  0.9307100000000001  0.3280900000000001  1.0000
  N   N18       1.0  0.43596999999999975  0.9251100000000001  0.3373600000000001  1.0000
  N   N19       1.0  0.27058000000000004  0.32824  0.93052  1.0000
  N   N20       1.0  0.3021499999999999  0.3370799999999999  0.9248300000000003  1.0000
  N   N21       1.0  0.32809  0.27036999999999994  0.4708500000000001  1.0000
  N   N22       1.0  0.3373499999999999  0.3015700000000001  0.43598  1.0000
  N   N23       1.0  0.93075  0.47017  0.27074  1.0000
  N   N24       1.0  0.9251000000000001  0.43559  0.30264000000000013  1.0000
  N   N25       1.0  0.7294399999999999  0.52927  0.06951000000000003  1.0000
  N   N26       1.0  0.6978800000000002  0.56398  0.07522000000000002  1.0000
  N   N27       1.0  0.5291499999999998  0.72964  0.67192  1.0000
  N   N28       1.0  0.56402  0.69844  0.6626400000000002  1.0000
  N   N29       1.0  0.06930999999999998  0.6719  0.72963  1.0000
  N   N30       1.0  0.0748999999999998  0.6626500000000002  0.6984200000000003  1.0000
  N   N31       1.0  0.6717499999999998  0.06948999999999998  0.52934  1.0000
  N   N32       1.0  0.66292  0.07517000000000001  0.56405  1.0000
  N   N33       1.0  0.06923999999999975  0.7292700000000003  0.52983  1.0000
  N   N34       1.0  0.07488999999999978  0.6973600000000004  0.56441  1.0000
  N   N35       1.0  0.6716599999999996  0.52983  0.7292600000000002  1.0000
  N   N36       1.0  0.66334  0.5644199999999999  0.6973600000000002  1.0000
  N   N37       1.0  0.72941  0.06948000000000003  0.67176  1.0000
  N   N38       1.0  0.6978400000000001  0.07517000000000001  0.66292  1.0000
  N   N39       1.0  0.52915  0.6719100000000001  0.06930000000000003  1.0000
  N   N40       1.0  0.5640300000000001  0.66264  0.07490000000000002  1.0000
  N   N41       1.0  0.5293499999999998  0.06948999999999994  0.7294000000000003  1.0000
  N   N42       1.0  0.5640599999999998  0.07517999999999993  0.6978200000000002  1.0000
  N   N43       1.0  0.72943  0.67178  0.52928  1.0000
  N   N44       1.0  0.6978700000000002  0.66293  0.56399  1.0000
  N   N45       1.0  0.6716500000000001  0.72926  0.06925  1.0000
  N   N46       1.0  0.66334  0.6973600000000002  0.07489  1.0000
  N   N47       1.0  0.06950999999999999  0.52926  0.67178  1.0000
  N   N48       1.0  0.07521000000000003  0.56398  0.66292  1.0000
  N   N49       1.0  0.7296399999999997  0.5291600000000001  0.6719100000000002  1.0000
  N   N50       1.0  0.6984299999999999  0.5640299999999999  0.6626500000000002  1.0000
  N   N51       1.0  0.5298299999999999  0.7292700000000002  0.06925  1.0000
  N   N52       1.0  0.56442  0.6973600000000002  0.07489  1.0000
  N   N53       1.0  0.06931000000000002  0.6718999999999999  0.5291500000000002  1.0000
  N   N54       1.0  0.07489999999999994  0.66264  0.56402  1.0000
  N   N55       1.0  0.67175  0.06948999999999998  0.72939  1.0000
  N   N56       1.0  0.6629200000000001  0.07517999999999993  0.6978200000000002  1.0000
  N   N57       1.0  0.06924000000000007  0.72927  0.67166  1.0000
  N   N58       1.0  0.07487999999999993  0.69737  0.6633300000000002  1.0000
  N   N59       1.0  0.6717799999999999  0.5292800000000002  0.0695  1.0000
  N   N60       1.0  0.66293  0.5639900000000002  0.07521  1.0000
  N   N61       1.0  0.72941  0.06948999999999994  0.5293500000000002  1.0000
  N   N62       1.0  0.6978400000000001  0.07516999999999993  0.5640600000000002  1.0000
  N   N63       1.0  0.5298299999999997  0.6716500000000001  0.7292600000000002  1.0000
  N   N64       1.0  0.5644099999999996  0.6633399999999999  0.6973600000000002  1.0000
  N   N65       1.0  0.52933  0.06949000000000001  0.67176  1.0000
  N   N66       1.0  0.5640499999999999  0.07518000000000001  0.66292  1.0000
  N   N67       1.0  0.72964  0.6719100000000001  0.06930000000000003  1.0000
  N   N68       1.0  0.6984300000000002  0.66264  0.07490000000000002  1.0000
  N   N69       1.0  0.6717899999999998  0.7294399999999999  0.5292700000000002  1.0000
  N   N70       1.0  0.6629300000000001  0.69788  0.5639800000000003  1.0000
  N   N71       1.0  0.06950999999999985  0.5292800000000003  0.72942  1.0000
  N   N72       1.0  0.07521999999999979  0.5639900000000002  0.6978600000000003  1.0000
  N   N73       1.0  0.27058  0.47064999999999996  0.9305100000000002  1.0000
  N   N74       1.0  0.30214999999999975  0.4359400000000001  0.9248200000000002  1.0000
  N   N75       1.0  0.4707200000000001  0.27056  0.32822  1.0000
  N   N76       1.0  0.4360099999999999  0.3021300000000001  0.33707  1.0000
  N   N77       1.0  0.93075  0.32834  0.27074  1.0000
  N   N78       1.0  0.92511  0.33666999999999997  0.30264000000000013  1.0000
  N   N79       1.0  0.32821999999999973  0.9305000000000003  0.4707300000000001  1.0000
  N   N80       1.0  0.33705999999999975  0.9247900000000002  0.43602000000000013  1.0000
  N   N81       1.0  0.9304900000000004  0.2705699999999999  0.47072000000000014  1.0000
  N   N82       1.0  0.9247799999999999  0.30214  0.4360100000000001  1.0000
  N   N83       1.0  0.3280799999999999  0.47084000000000004  0.2703800000000001  1.0000
  N   N84       1.0  0.33734999999999987  0.43597  0.3015800000000001  1.0000
  N   N85       1.0  0.27035999999999993  0.9307  0.3280900000000001  1.0000
  N   N86       1.0  0.3015600000000001  0.9250999999999999  0.3373700000000001  1.0000
  N   N87       1.0  0.4706599999999998  0.3282500000000001  0.9305000000000002  1.0000
  N   N88       1.0  0.43594999999999984  0.33709000000000017  0.92481  1.0000
  N   N89       1.0  0.4701600000000001  0.93075  0.27075  1.0000
  N   N90       1.0  0.43557999999999986  0.9251099999999999  0.3026500000000001  1.0000
  N   N91       1.0  0.27071999999999996  0.32834000000000013  0.4701700000000001  1.0000
  N   N92       1.0  0.30262  0.33666999999999997  0.4355900000000001  1.0000
  N   N93       1.0  0.32825000000000004  0.2705999999999999  0.9305100000000002  1.0000
  N   N94       1.0  0.33707999999999994  0.30216999999999994  0.9248200000000002  1.0000
  N   N95       1.0  0.9307  0.47085  0.3280900000000001  1.0000
  N   N96       1.0  0.9250999999999999  0.43598  0.3373600000000001  1.0000
  O   O1        1.0  0.0612999999999999  0.7048600000000003  0.24443000000000006  1.0000
  O   O2        1.0  0.06094999999999993  0.7635400000000002  0.18583  1.0000
  O   O3        1.0  0.7048099999999999  0.06128999999999992  0.9894100000000002  1.0000
  O   O4        1.0  0.76347  0.06096999999999995  0.9897100000000002  1.0000
  O   O5        1.0  0.9893999999999997  0.24445  0.70483  1.0000
  O   O6        1.0  0.9896699999999997  0.18584  0.7635000000000002  1.0000
  O   O7        1.0  0.24443  0.98944  0.061300000000000014  1.0000
  O   O8        1.0  0.18581999999999999  0.9897  0.060940000000000015  1.0000
  O   O9        1.0  0.98943  0.061329999999999996  0.24446  1.0000
  O   O10       1.0  0.9897  0.060969999999999996  0.18586  1.0000
  O   O11       1.0  0.24445999999999993  0.70481  0.9894100000000002  1.0000
  O   O12       1.0  0.18583999999999976  0.7634800000000002  0.9897000000000002  1.0000
  O   O13       1.0  0.0612900000000001  0.98939  0.70483  1.0000
  O   O14       1.0  0.060979999999999784  0.98971  0.7634600000000002  1.0000
  O   O15       1.0  0.70483  0.24446000000000004  0.061300000000000014  1.0000
  O   O16       1.0  0.76349  0.18584000000000006  0.06097  1.0000
  O   O17       1.0  0.70479  0.9894000000000001  0.24445000000000006  1.0000
  O   O18       1.0  0.76346  0.9896800000000001  0.18585000000000004  1.0000
  O   O19       1.0  0.06131999999999998  0.24441999999999997  0.9894400000000002  1.0000
  O   O20       1.0  0.06094999999999996  0.18582999999999994  0.9896900000000002  1.0000
  O   O21       1.0  0.24450999999999987  0.06131999999999995  0.7047900000000002  1.0000
  O   O22       1.0  0.18587999999999988  0.06097999999999994  0.7634300000000003  1.0000
  O   O23       1.0  0.9894100000000001  0.70484  0.06127000000000001  1.0000
  O   O24       1.0  0.9897100000000002  0.76349  0.06095000000000001  1.0000
  O   O25       1.0  0.93871  0.29518  0.010600000000000004  1.0000
  O   O26       1.0  0.93903  0.23653000000000002  0.01029  1.0000
  O   O27       1.0  0.29519999999999996  0.9386699999999999  0.7555300000000003  1.0000
  O   O28       1.0  0.23653999999999994  0.9390199999999999  0.8141400000000002  1.0000
  O   O29       1.0  0.010569999999999911  0.75553  0.9386800000000002  1.0000
  O   O30       1.0  0.010299999999999934  0.81413  0.93903  1.0000
  O   O31       1.0  0.75554  0.010610000000000003  0.29517  1.0000
  O   O32       1.0  0.8141599999999999  0.01031  0.23652  1.0000
  O   O33       1.0  0.010599999999999948  0.93873  0.2951600000000001  1.0000
  O   O34       1.0  0.010289999999999997  0.9390499999999999  0.23651000000000005  1.0000
  O   O35       1.0  0.7555400000000001  0.2951499999999999  0.9387200000000002  1.0000
  O   O36       1.0  0.8141600000000003  0.23647999999999997  0.9390500000000003  1.0000
  O   O37       1.0  0.9386700000000001  0.010570000000000006  0.75559  1.0000
  O   O38       1.0  0.93905  0.010309999999999882  0.8141700000000002  1.0000
  O   O39       1.0  0.2952199999999999  0.75553  0.010610000000000003  1.0000
  O   O40       1.0  0.23653000000000002  0.81414  0.01033  1.0000
  O   O41       1.0  0.29519000000000006  0.010589999999999886  0.9387100000000003  1.0000
  O   O42       1.0  0.2365299999999999  0.010289999999999948  0.9390200000000002  1.0000
  O   O43       1.0  0.9387  0.75553  0.29518  1.0000
  O   O44       1.0  0.93903  0.81414  0.23652  1.0000
  O   O45       1.0  0.7555699999999999  0.9387100000000003  0.010560000000000003  1.0000
  O   O46       1.0  0.81418  0.9390600000000002  0.010300000000000004  1.0000
  O   O47       1.0  0.010579999999999938  0.29518000000000005  0.75556  1.0000
  O   O48       1.0  0.010319999999999899  0.2364999999999999  0.8141700000000002  1.0000
  O   O49       1.0  0.9386500000000001  0.29519999999999996  0.7555300000000003  1.0000
  O   O50       1.0  0.9389999999999997  0.23653999999999997  0.8141400000000002  1.0000
  O   O51       1.0  0.29516999999999993  0.93872  0.01058  1.0000
  O   O52       1.0  0.2364900000000001  0.93904  0.01029  1.0000
  O   O53       1.0  0.01062000000000005  0.7555199999999999  0.2952100000000001  1.0000
  O   O54       1.0  0.010309999999999962  0.81414  0.23656000000000005  1.0000
  O   O55       1.0  0.75555  0.010570000000000006  0.93869  1.0000
  O   O56       1.0  0.8141599999999999  0.010299999999999941  0.9390500000000003  1.0000
  O   O57       1.0  0.010559999999999837  0.9387000000000001  0.75559  1.0000
  O   O58       1.0  0.010309999999999962  0.9390499999999999  0.8141900000000002  1.0000
  O   O59       1.0  0.7555400000000001  0.29518  0.010600000000000004  1.0000
  O   O60       1.0  0.8141599999999999  0.23650000000000002  0.010320000000000003  1.0000
  O   O61       1.0  0.9387200000000002  0.010610000000000003  0.29518  1.0000
  O   O62       1.0  0.93902  0.010289999999999988  0.23654000000000006  1.0000
  O   O63       1.0  0.2951499999999999  0.7555400000000001  0.9387300000000002  1.0000
  O   O64       1.0  0.23647999999999975  0.8141600000000001  0.9390600000000002  1.0000
  O   O65       1.0  0.29517999999999994  0.010579999999999893  0.7555700000000002  1.0000
  O   O66       1.0  0.23649000000000003  0.010319999999999926  0.8141600000000002  1.0000
  O   O67       1.0  0.93866  0.75555  0.010570000000000003  1.0000
  O   O68       1.0  0.93903  0.81414  0.010310000000000003  1.0000
  O   O69       1.0  0.7555300000000001  0.9387000000000001  0.29517  1.0000
  O   O70       1.0  0.8141400000000001  0.9390399999999999  0.23651000000000005  1.0000
  O   O71       1.0  0.010599999999999948  0.2951799999999999  0.9387100000000003  1.0000
  O   O72       1.0  0.01028999999999993  0.23653000000000005  0.93903  1.0000
  O   O73       1.0  0.06129000000000001  0.7048199999999999  0.9894  1.0000
  O   O74       1.0  0.06096999999999989  0.76347  0.9897100000000002  1.0000
  O   O75       1.0  0.7048399999999999  0.06129999999999998  0.24445000000000006  1.0000
  O   O76       1.0  0.7635  0.06095999999999999  0.18585000000000004  1.0000
  O   O77       1.0  0.98944  0.24442000000000003  0.06129000000000001  1.0000
  O   O78       1.0  0.9897  0.18582  0.060940000000000015  1.0000
  O   O79       1.0  0.24446999999999985  0.9894000000000001  0.70483  1.0000
  O   O80       1.0  0.18584999999999988  0.9896800000000001  0.76349  1.0000
  O   O81       1.0  0.9893999999999997  0.06128999999999995  0.7048200000000002  1.0000
  O   O82       1.0  0.9897099999999999  0.06096999999999995  0.7634700000000002  1.0000
  O   O83       1.0  0.24450000000000002  0.70478  0.06133  1.0000
  O   O84       1.0  0.18587999999999988  0.7634500000000002  0.06099  1.0000
  O   O85       1.0  0.061349999999999905  0.9894300000000001  0.24444000000000005  1.0000
  O   O86       1.0  0.06097000000000003  0.98969  0.18586  1.0000
  O   O87       1.0  0.7048200000000002  0.24442999999999995  0.9894100000000002  1.0000
  O   O88       1.0  0.76351  0.18582999999999994  0.9896900000000002  1.0000
  O   O89       1.0  0.70483  0.9894200000000001  0.061280000000000015  1.0000
  O   O90       1.0  0.76349  0.98972  0.060960000000000014  1.0000
  O   O91       1.0  0.06128999999999985  0.24444999999999995  0.7048600000000003  1.0000
  O   O92       1.0  0.060960000000000014  0.18583  0.76351  1.0000
  O   O93       1.0  0.24444999999999995  0.061299999999999966  0.9894300000000003  1.0000
  O   O94       1.0  0.18583999999999992  0.06094999999999991  0.9896900000000002  1.0000
  O   O95       1.0  0.9893900000000001  0.70479  0.24447000000000005  1.0000
  O   O96       1.0  0.9896799999999998  0.76346  0.18586  1.0000
  O   O97       1.0  0.3636499999999999  0.36343  0.3634300000000001  1.0000
  O   O98       1.0  0.36281000000000013  0.36282  0.91159  1.0000
  O   O99       1.0  0.9094599999999998  0.36343999999999993  0.3636900000000001  1.0000
  O   O100      1.0  0.36343000000000003  0.9094599999999999  0.36370000000000013  1.0000
  O   O101      1.0  0.6365600000000002  0.63631  0.09055000000000003  1.0000
  O   O102      1.0  0.6365799999999999  0.63658  0.6363300000000002  1.0000
  O   O103      1.0  0.09054000000000005  0.6363099999999999  0.63656  1.0000
  O   O104      1.0  0.6371899999999998  0.08839999999999994  0.6371800000000002  1.0000
