data_image0
_chemical_formula_structural       Cd12H384C456N192
_chemical_formula_sum              "Cd12 H384 C456 N192"
_cell_length_a       27.44353
_cell_length_b       27.442590000000003
_cell_length_c       27.44265
_cell_angle_alpha    109.53424
_cell_angle_beta     109.54506
_cell_angle_gamma    109.54511

_space_group_name_H-M_alt    "P 1"
_space_group_IT_number       1

loop_
  _space_group_symop_operation_xyz
  'x, y, z'

loop_
  _atom_site_type_symbol
  _atom_site_label
  _atom_site_symmetry_multiplicity
  _atom_site_fract_x
  _atom_site_fract_y
  _atom_site_fract_z
  _atom_site_occupancy
  Cd  Cd1       1.0  0.6253200000000002  0.87493  0.2499  1.0000
  Cd  Cd2       1.0  0.87491  0.6253200000000001  0.7499099999999999  1.0000
  Cd  Cd3       1.0  0.37492  0.7499100000000002  0.62531  1.0000
  Cd  Cd4       1.0  0.12533000000000005  0.24991000000000008  0.87493  1.0000
  Cd  Cd5       1.0  0.7499100000000002  0.37492  0.12532  1.0000
  Cd  Cd6       1.0  0.24991000000000008  0.12532000000000001  0.37492  1.0000
  Cd  Cd7       1.0  0.6250899999999999  0.25009  0.37468999999999997  1.0000
  Cd  Cd8       1.0  0.8746800000000002  0.7501  0.12507  1.0000
  Cd  Cd9       1.0  0.37468000000000007  0.12507999999999989  0.7500999999999999  1.0000
  Cd  Cd10      1.0  0.12509  0.37469  0.25009  1.0000
  Cd  Cd11      1.0  0.7501  0.87469  0.62509  1.0000
  Cd  Cd12      1.0  0.2501  0.62509  0.8746899999999999  1.0000
  H   H1        1.0  0.7507000000000003  0.050940000000000006  0.22271  1.0000
  H   H2        1.0  0.7662800000000002  0.04613  0.13692999999999997  1.0000
  H   H3        1.0  0.6911300000000002  0.95923  0.03396  1.0000
  H   H4        1.0  0.6009200000000001  0.8778100000000001  0.01726  1.0000
  H   H5        1.0  0.5863000000000002  0.8826000000000002  0.10352999999999998  1.0000
  H   H6        1.0  0.64106  0.96317  0.38680999999999993  1.0000
  H   H7        1.0  0.71697  0.08741  0.44922  1.0000
  H   H8        1.0  0.77947  0.12298000000000005  0.3558  1.0000
  H   H9        1.0  0.7495200000000001  0.4718400000000001  0.80033  1.0000
  H   H10       1.0  0.7337600000000001  0.37033  0.77978  1.0000
  H   H11       1.0  0.8086499999999998  0.3426699999999999  0.7679999999999999  1.0000
  H   H12       1.0  0.8988  0.41653  0.7770299999999999  1.0000
  H   H13       1.0  0.9136200000000001  0.5175899999999999  0.7966399999999999  1.0000
  H   H14       1.0  0.8592300000000002  0.7461500000000002  0.82248  1.0000
  H   H15       1.0  0.7831600000000001  0.7321400000000002  0.87023  1.0000
  H   H16       1.0  0.72054  0.57578  0.8427299999999999  1.0000
  H   H17       1.0  0.67158  0.44913  0.69964  1.0000
  H   H18       1.0  0.59071  0.45398000000000005  0.72017  1.0000
  H   H19       1.0  0.5748099999999999  0.5406699999999999  0.7319499999999999  1.0000
  H   H20       1.0  0.63955  0.6217800000000001  0.72292  1.0000
  H   H21       1.0  0.72091  0.61692  0.70329  1.0000
  H   H22       1.0  0.9237400000000001  0.53717  0.6777799999999999  1.0000
  H   H23       1.0  0.8620700000000001  0.41309999999999997  0.6300399999999999  1.0000
  H   H24       1.0  0.73289  0.37735000000000013  0.65681  1.0000
  H   H25       1.0  0.82837  0.028179999999999997  0.27781  1.0000
  H   H26       1.0  0.90958  0.12993000000000005  0.36384  1.0000
  H   H27       1.0  0.92576  0.15788000000000005  0.46662  1.0000
  H   H28       1.0  0.86093  0.08409999999999998  0.48286  1.0000
  H   H29       1.0  0.7792  0.98281  0.39631999999999995  1.0000
  H   H30       1.0  0.57589  0.75344  0.11238  1.0000
  H   H31       1.0  0.63772  0.7673500000000002  0.05041  1.0000
  H   H32       1.0  0.7671100000000001  0.92392  0.14466  1.0000
  H   H33       1.0  0.52818  0.77782  0.82837  1.0000
  H   H34       1.0  0.62994  0.86385  0.90959  1.0000
  H   H35       1.0  0.6579  0.9666400000000003  0.92578  1.0000
  H   H36       1.0  0.58412  0.9828800000000001  0.8609399999999999  1.0000
  H   H37       1.0  0.48282000000000014  0.8963399999999999  0.7792099999999998  1.0000
  H   H38       1.0  0.25343  0.61238  0.5759  1.0000
  H   H39       1.0  0.26735000000000003  0.55041  0.63774  1.0000
  H   H40       1.0  0.4239200000000001  0.6446700000000001  0.76712  1.0000
  H   H41       1.0  0.9491300000000003  0.1996400000000001  0.67158  1.0000
  H   H42       1.0  0.9539800000000002  0.22018  0.59071  1.0000
  H   H43       1.0  0.04066999999999998  0.23196  0.5748  1.0000
  H   H44       1.0  0.12177999999999997  0.22291999999999992  0.6395399999999999  1.0000
  H   H45       1.0  0.11692999999999994  0.20329999999999993  0.7208999999999999  1.0000
  H   H46       1.0  0.037160000000000006  0.17777  0.92374  1.0000
  H   H47       1.0  0.91308  0.13003  0.86207  1.0000
  H   H48       1.0  0.87735  0.15680999999999998  0.7328799999999999  1.0000
  H   H49       1.0  0.9718300000000002  0.3003200000000001  0.74952  1.0000
  H   H50       1.0  0.8703300000000002  0.27978000000000003  0.7337699999999999  1.0000
  H   H51       1.0  0.8426500000000001  0.268  0.8086499999999999  1.0000
  H   H52       1.0  0.9165100000000003  0.27701999999999993  0.8987999999999998  1.0000
  H   H53       1.0  0.017579999999999988  0.29664  0.91362  1.0000
  H   H54       1.0  0.24614999999999998  0.3225  0.8592299999999999  1.0000
  H   H55       1.0  0.23214  0.37024  0.78316  1.0000
  H   H56       1.0  0.07577999999999989  0.3427399999999999  0.7205299999999998  1.0000
  H   H57       1.0  0.55094  0.72271  0.75071  1.0000
  H   H58       1.0  0.5461200000000002  0.63693  0.7662899999999999  1.0000
  H   H59       1.0  0.45923000000000014  0.53396  0.69114  1.0000
  H   H60       1.0  0.3778  0.51725  0.60093  1.0000
  H   H61       1.0  0.3826  0.60353  0.5863  1.0000
  H   H62       1.0  0.46319000000000016  0.8868200000000002  0.64107  1.0000
  H   H63       1.0  0.5874300000000001  0.94923  0.71697  1.0000
  H   H64       1.0  0.62298  0.8558  0.77948  1.0000
  H   H65       1.0  0.6996400000000003  0.17159  0.94914  1.0000
  H   H66       1.0  0.7201700000000001  0.09072000000000012  0.95399  1.0000
  H   H67       1.0  0.7319500000000001  0.0748  0.04067  1.0000
  H   H68       1.0  0.72292  0.13953  0.12177  1.0000
  H   H69       1.0  0.70329  0.2208900000000001  0.11692999999999999  1.0000
  H   H70       1.0  0.67776  0.42373  0.03715  1.0000
  H   H71       1.0  0.63003  0.36207  0.91308  1.0000
  H   H72       1.0  0.6568100000000002  0.2329  0.87735  1.0000
  H   H73       1.0  0.27781  0.32837  0.52817  1.0000
  H   H74       1.0  0.36384000000000016  0.4095800000000001  0.62993  1.0000
  H   H75       1.0  0.46663  0.42577000000000004  0.65789  1.0000
  H   H76       1.0  0.48288  0.36094999999999994  0.5841199999999999  1.0000
  H   H77       1.0  0.39634000000000014  0.27922  0.4828199999999999  1.0000
  H   H78       1.0  0.11238000000000002  0.0759  0.25343  1.0000
  H   H79       1.0  0.0504  0.13773  0.26734  1.0000
  H   H80       1.0  0.14466  0.2671  0.42391999999999996  1.0000
  H   H81       1.0  0.22271000000000005  0.2507000000000001  0.55093  1.0000
  H   H82       1.0  0.13694  0.26628  0.54612  1.0000
  H   H83       1.0  0.033960000000000004  0.19114  0.45923  1.0000
  H   H84       1.0  0.017249999999999995  0.10092999999999999  0.37781  1.0000
  H   H85       1.0  0.10351000000000002  0.08630000000000002  0.3826  1.0000
  H   H86       1.0  0.3868100000000002  0.14106  0.46319  1.0000
  H   H87       1.0  0.44922  0.21697  0.58742  1.0000
  H   H88       1.0  0.35580000000000006  0.2794800000000001  0.62297  1.0000
  H   H89       1.0  0.8003299999999999  0.24952999999999995  0.9718399999999999  1.0000
  H   H90       1.0  0.7797800000000003  0.23378000000000004  0.8703399999999999  1.0000
  H   H91       1.0  0.7679900000000002  0.30865  0.84265  1.0000
  H   H92       1.0  0.7770200000000002  0.39880000000000004  0.9165  1.0000
  H   H93       1.0  0.79663  0.41362000000000004  0.01756  1.0000
  H   H94       1.0  0.8225000000000001  0.35922  0.24614999999999995  1.0000
  H   H95       1.0  0.87024  0.28316  0.23214  1.0000
  H   H96       1.0  0.84272  0.22053  0.07578  1.0000
  H   H97       1.0  0.7504900000000002  0.19968  0.52817  1.0000
  H   H98       1.0  0.76624  0.22023000000000006  0.62967  1.0000
  H   H99       1.0  0.6913500000000001  0.23201000000000002  0.65734  1.0000
  H   H100      1.0  0.6012  0.22298000000000004  0.58348  1.0000
  H   H101      1.0  0.5863899999999997  0.20337  0.48242  1.0000
  H   H102      1.0  0.64078  0.17752  0.25386  1.0000
  H   H103      1.0  0.71684  0.12978  0.26786  1.0000
  H   H104      1.0  0.7794699999999999  0.15726999999999994  0.42421999999999993  1.0000
  H   H105      1.0  0.7493000000000002  0.7773000000000001  0.9490699999999999  1.0000
  H   H106      1.0  0.7337199999999999  0.8630700000000001  0.9538799999999998  1.0000
  H   H107      1.0  0.8088700000000002  0.96604  0.04077  1.0000
  H   H108      1.0  0.89908  0.98274  0.1222  1.0000
  H   H109      1.0  0.9137  0.89647  0.11739999999999999  1.0000
  H   H110      1.0  0.85894  0.6132  0.03683  1.0000
  H   H111      1.0  0.78304  0.55079  0.9126  1.0000
  H   H112      1.0  0.72053  0.64421  0.87702  1.0000
  H   H113      1.0  0.6716300000000001  0.7222  0.97183  1.0000
  H   H114      1.0  0.5904200000000001  0.63617  0.87007  1.0000
  H   H115      1.0  0.57424  0.53339  0.84212  1.0000
  H   H116      1.0  0.6390700000000001  0.51715  0.9159  1.0000
  H   H117      1.0  0.7208000000000001  0.60368  0.0172  1.0000
  H   H118      1.0  0.9241100000000001  0.88762  0.24657  1.0000
  H   H119      1.0  0.8622800000000002  0.9496  0.23265999999999995  1.0000
  H   H120      1.0  0.73289  0.85535  0.07609  1.0000
  H   H121      1.0  0.82842  0.30036999999999997  0.5508799999999999  1.0000
  H   H122      1.0  0.90929  0.27983  0.54603  1.0000
  H   H123      1.0  0.92519  0.26805  0.45933999999999997  1.0000
  H   H124      1.0  0.8604500000000002  0.2770900000000001  0.37822999999999996  1.0000
  H   H125      1.0  0.7791  0.2967100000000001  0.38308  1.0000
  H   H126      1.0  0.57627  0.32222  0.46283  1.0000
  H   H127      1.0  0.63793  0.36997  0.58691  1.0000
  H   H128      1.0  0.76712  0.3432  0.62266  1.0000
  H   H129      1.0  0.52817  0.25048999999999993  0.6996799999999999  1.0000
  H   H130      1.0  0.62967  0.26624  0.72023  1.0000
  H   H131      1.0  0.65735  0.19136000000000006  0.73201  1.0000
  H   H132      1.0  0.5834900000000002  0.10120999999999994  0.7229799999999998  1.0000
  H   H133      1.0  0.4824300000000001  0.08638999999999997  0.70337  1.0000
  H   H134      1.0  0.25386000000000003  0.14077999999999993  0.6775099999999998  1.0000
  H   H135      1.0  0.26787  0.21685000000000001  0.62976  1.0000
  H   H136      1.0  0.42423  0.27947000000000005  0.65727  1.0000
  H   H137      1.0  0.9490700000000002  0.2493  0.2773  1.0000
  H   H138      1.0  0.9538800000000002  0.23372  0.36306999999999995  1.0000
  H   H139      1.0  0.04077999999999999  0.30887  0.46605  1.0000
  H   H140      1.0  0.12220000000000003  0.39908000000000005  0.48275  1.0000
  H   H141      1.0  0.11741000000000001  0.4137100000000001  0.39648  1.0000
  H   H142      1.0  0.03682  0.35894  0.11317999999999999  1.0000
  H   H143      1.0  0.91257  0.28303  0.05078  1.0000
  H   H144      1.0  0.87702  0.22053  0.14421  1.0000
  H   H145      1.0  0.97182  0.17163000000000003  0.22219  1.0000
  H   H146      1.0  0.87006  0.09042000000000001  0.13616  1.0000
  H   H147      1.0  0.84211  0.07423  0.03337  1.0000
  H   H148      1.0  0.91588  0.13906  0.01713  1.0000
  H   H149      1.0  0.017189999999999997  0.2208  0.10367  1.0000
  H   H150      1.0  0.2465700000000001  0.42411000000000004  0.38762  1.0000
  H   H151      1.0  0.23266  0.36227000000000004  0.44959999999999994  1.0000
  H   H152      1.0  0.07607999999999997  0.23288999999999999  0.35533999999999993  1.0000
  H   H153      1.0  0.55087  0.32843  0.80036  1.0000
  H   H154      1.0  0.54603  0.4093  0.77983  1.0000
  H   H155      1.0  0.4593400000000001  0.4252100000000001  0.76805  1.0000
  H   H156      1.0  0.3782300000000002  0.36047000000000007  0.77708  1.0000
  H   H157      1.0  0.38308000000000014  0.27911000000000014  0.79671  1.0000
  H   H158      1.0  0.46285  0.07627  0.82224  1.0000
  H   H159      1.0  0.58693  0.13793999999999995  0.86998  1.0000
  H   H160      1.0  0.62266  0.26712999999999987  0.8431999999999997  1.0000
  H   H161      1.0  0.69968  0.02816  0.75048  1.0000
  H   H162      1.0  0.72023  0.12967  0.76623  1.0000
  H   H163      1.0  0.7320100000000003  0.15735000000000007  0.69135  1.0000
  H   H164      1.0  0.72298  0.08351000000000004  0.60121  1.0000
  H   H165      1.0  0.70337  0.9824500000000003  0.58638  1.0000
  H   H166      1.0  0.6775100000000002  0.75386  0.64078  1.0000
  H   H167      1.0  0.6297600000000001  0.7678600000000002  0.71685  1.0000
  H   H168      1.0  0.65728  0.9242300000000002  0.77947  1.0000
  H   H169      1.0  0.2773  0.44908  0.74931  1.0000
  H   H170      1.0  0.36307  0.45388999999999996  0.73373  1.0000
  H   H171      1.0  0.46604999999999996  0.54078  0.8088699999999999  1.0000
  H   H172      1.0  0.48275999999999997  0.6222  0.8990799999999999  1.0000
  H   H173      1.0  0.3964900000000001  0.61741  0.91371  1.0000
  H   H174      1.0  0.11320000000000001  0.53682  0.85894  1.0000
  H   H175      1.0  0.050780000000000054  0.4125900000000001  0.78303  1.0000
  H   H176      1.0  0.14419999999999994  0.37703  0.7205299999999998  1.0000
  H   H177      1.0  0.22218999999999997  0.4718299999999999  0.6716399999999999  1.0000
  H   H178      1.0  0.13617  0.37008  0.59043  1.0000
  H   H179      1.0  0.03337  0.34212  0.57423  1.0000
  H   H180      1.0  0.017120000000000024  0.4158800000000002  0.63905  1.0000
  H   H181      1.0  0.10365999999999999  0.51719  0.7207799999999999  1.0000
  H   H182      1.0  0.38762000000000013  0.74658  0.9241  1.0000
  H   H183      1.0  0.44960000000000006  0.73267  0.86228  1.0000
  H   H184      1.0  0.35535  0.57609  0.7329099999999998  1.0000
  H   H185      1.0  0.80037  0.05085999999999992  0.8284199999999999  1.0000
  H   H186      1.0  0.77983  0.046019999999999985  0.90929  1.0000
  H   H187      1.0  0.7680500000000001  0.9593399999999999  0.9251999999999999  1.0000
  H   H188      1.0  0.77708  0.87824  0.86047  1.0000
  H   H189      1.0  0.79671  0.88308  0.77912  1.0000
  H   H190      1.0  0.8222400000000001  0.9628500000000002  0.57628  1.0000
  H   H191      1.0  0.86998  0.08692999999999998  0.63794  1.0000
  H   H192      1.0  0.8431899999999998  0.12264999999999994  0.7671099999999998  1.0000
  H   H193      1.0  0.24930000000000008  0.9490700000000001  0.77729  1.0000
  H   H194      1.0  0.23371999999999998  0.95388  0.86307  1.0000
  H   H195      1.0  0.30887  0.040779999999999976  0.9660399999999999  1.0000
  H   H196      1.0  0.39907999999999993  0.12219999999999996  0.9827399999999998  1.0000
  H   H197      1.0  0.41369999999999996  0.11739999999999991  0.8964699999999999  1.0000
  H   H198      1.0  0.35894  0.036829999999999995  0.6132  1.0000
  H   H199      1.0  0.28304  0.9126  0.55078  1.0000
  H   H200      1.0  0.2205300000000001  0.8770200000000001  0.6442  1.0000
  H   H201      1.0  0.25049000000000005  0.5281700000000001  0.19967999999999997  1.0000
  H   H202      1.0  0.26624  0.62967  0.22022999999999998  1.0000
  H   H203      1.0  0.1913500000000001  0.6573400000000003  0.23201  1.0000
  H   H204      1.0  0.10120000000000003  0.58348  0.22298  1.0000
  H   H205      1.0  0.08639000000000005  0.4824200000000001  0.20336  1.0000
  H   H206      1.0  0.14078  0.25386  0.17752  1.0000
  H   H207      1.0  0.21683999999999998  0.26786  0.12977  1.0000
  H   H208      1.0  0.27947  0.42422  0.15727  1.0000
  H   H209      1.0  0.3284200000000001  0.55088  0.30037  1.0000
  H   H210      1.0  0.40929  0.54603  0.27983  1.0000
  H   H211      1.0  0.42519  0.45934  0.26805  1.0000
  H   H212      1.0  0.36045  0.37823  0.27709  1.0000
  H   H213      1.0  0.27910000000000007  0.38308000000000003  0.29671  1.0000
  H   H214      1.0  0.07626999999999998  0.46283  0.32221999999999995  1.0000
  H   H215      1.0  0.13793  0.58691  0.36997  1.0000
  H   H216      1.0  0.26712  0.62266  0.3432  1.0000
  H   H217      1.0  0.1716299999999999  0.97183  0.7222  1.0000
  H   H218      1.0  0.09041999999999992  0.8700799999999999  0.6361699999999999  1.0000
  H   H219      1.0  0.07423999999999997  0.84212  0.53338  1.0000
  H   H220      1.0  0.13907000000000014  0.9159000000000003  0.51714  1.0000
  H   H221      1.0  0.2208  0.017199999999999986  0.60369  1.0000
  H   H222      1.0  0.42411000000000015  0.24657  0.88762  1.0000
  H   H223      1.0  0.3622799999999999  0.23265999999999995  0.9495999999999998  1.0000
  H   H224      1.0  0.23290000000000005  0.07608999999999995  0.8553499999999999  1.0000
  H   H225      1.0  0.4718200000000002  0.22219  0.17163  1.0000
  H   H226      1.0  0.3700600000000001  0.13616  0.09042  1.0000
  H   H227      1.0  0.34211  0.03337  0.07423  1.0000
  H   H228      1.0  0.41589  0.017129999999999992  0.13905999999999996  1.0000
  H   H229      1.0  0.51719  0.10366999999999998  0.22078999999999996  1.0000
  H   H230      1.0  0.74657  0.38762  0.42410999999999993  1.0000
  H   H231      1.0  0.7326600000000001  0.4496000000000001  0.36227  1.0000
  H   H232      1.0  0.57608  0.35534  0.23288999999999999  1.0000
  H   H233      1.0  0.050869999999999964  0.8003699999999999  0.32841999999999993  1.0000
  H   H234      1.0  0.04603000000000001  0.7798300000000001  0.4093  1.0000
  H   H235      1.0  0.95933  0.76805  0.4252  1.0000
  H   H236      1.0  0.8782300000000001  0.7770800000000002  0.36046  1.0000
  H   H237      1.0  0.8830800000000001  0.7967100000000001  0.2791  1.0000
  H   H238      1.0  0.9628400000000005  0.8222400000000001  0.07627  1.0000
  H   H239      1.0  0.08693  0.86998  0.13794  1.0000
  H   H240      1.0  0.12266  0.8432  0.26712  1.0000
  H   H241      1.0  0.02817000000000001  0.6996800000000001  0.25049  1.0000
  H   H242      1.0  0.12966999999999998  0.72023  0.26624  1.0000
  H   H243      1.0  0.1573500000000001  0.73201  0.19136  1.0000
  H   H244      1.0  0.08348999999999998  0.72298  0.1012  1.0000
  H   H245      1.0  0.98243  0.70337  0.08638  1.0000
  H   H246      1.0  0.75385  0.6775100000000001  0.14078  1.0000
  H   H247      1.0  0.76787  0.6297600000000001  0.21684999999999996  1.0000
  H   H248      1.0  0.92423  0.6572700000000001  0.27947  1.0000
  H   H249      1.0  0.44907  0.27730000000000005  0.24929999999999997  1.0000
  H   H250      1.0  0.4538800000000001  0.36308  0.23371999999999998  1.0000
  H   H251      1.0  0.54078  0.46604999999999996  0.30887  1.0000
  H   H252      1.0  0.6222  0.48275000000000007  0.39908  1.0000
  H   H253      1.0  0.61741  0.39648  0.4137  1.0000
  H   H254      1.0  0.5368199999999999  0.11319  0.35894  1.0000
  H   H255      1.0  0.41257  0.05078  0.28303  1.0000
  H   H256      1.0  0.37702  0.14421  0.22053  1.0000
  H   H257      1.0  0.30037  0.82842  0.05086  1.0000
  H   H258      1.0  0.27983000000000013  0.90929  0.04601999999999999  1.0000
  H   H259      1.0  0.26805  0.92521  0.9593399999999999  1.0000
  H   H260      1.0  0.27708  0.86048  0.8782299999999998  1.0000
  H   H261      1.0  0.29671  0.77912  0.88308  1.0000
  H   H262      1.0  0.3222399999999999  0.5762799999999999  0.9628499999999999  1.0000
  H   H263      1.0  0.36998  0.63794  0.08693  1.0000
  H   H264      1.0  0.3431900000000001  0.7671100000000001  0.12265  1.0000
  H   H265      1.0  0.72219  0.67164  0.47182999999999997  1.0000
  H   H266      1.0  0.63616  0.59043  0.37007999999999996  1.0000
  H   H267      1.0  0.53337  0.57424  0.34210999999999997  1.0000
  H   H268      1.0  0.51712  0.63906  0.41588  1.0000
  H   H269      1.0  0.60366  0.72079  0.51718  1.0000
  H   H270      1.0  0.88762  0.9241000000000001  0.74657  1.0000
  H   H271      1.0  0.9496  0.86228  0.7326599999999999  1.0000
  H   H272      1.0  0.85534  0.73291  0.57609  1.0000
  H   H273      1.0  0.7773  0.7493099999999999  0.44906999999999997  1.0000
  H   H274      1.0  0.8630700000000001  0.73373  0.45387999999999995  1.0000
  H   H275      1.0  0.9660400000000005  0.80887  0.5407799999999999  1.0000
  H   H276      1.0  0.9827500000000003  0.8990800000000002  0.6222  1.0000
  H   H277      1.0  0.89649  0.9137100000000002  0.61741  1.0000
  H   H278      1.0  0.6132  0.85894  0.53682  1.0000
  H   H279      1.0  0.5507800000000002  0.7830400000000002  0.41257999999999995  1.0000
  H   H280      1.0  0.6442  0.72053  0.37703  1.0000
  H   H281      1.0  0.19968000000000005  0.7504700000000001  0.028159999999999998  1.0000
  H   H282      1.0  0.2202300000000001  0.7662300000000002  0.12966  1.0000
  H   H283      1.0  0.23201000000000002  0.69135  0.15735  1.0000
  H   H284      1.0  0.22298  0.60121  0.08351  1.0000
  H   H285      1.0  0.20336999999999997  0.58639  0.98244  1.0000
  H   H286      1.0  0.17750999999999986  0.6407899999999999  0.7538599999999998  1.0000
  H   H287      1.0  0.12976000000000001  0.71685  0.76786  1.0000
  H   H288      1.0  0.15727999999999998  0.77948  0.92422  1.0000
  H   H289      1.0  0.24952  0.80033  0.47184  1.0000
  H   H290      1.0  0.2337600000000001  0.7797800000000001  0.37033  1.0000
  H   H291      1.0  0.3086500000000001  0.768  0.34266  1.0000
  H   H292      1.0  0.39880000000000004  0.7770300000000002  0.41651999999999995  1.0000
  H   H293      1.0  0.41362  0.79664  0.51759  1.0000
  H   H294      1.0  0.35923000000000005  0.82249  0.74615  1.0000
  H   H295      1.0  0.28316  0.87023  0.73214  1.0000
  H   H296      1.0  0.22053999999999999  0.84274  0.57578  1.0000
  H   H297      1.0  0.25071  0.22271000000000002  0.05094  1.0000
  H   H298      1.0  0.26628  0.13693  0.04612  1.0000
  H   H299      1.0  0.19113999999999995  0.03397000000000001  0.95923  1.0000
  H   H300      1.0  0.10093  0.017270000000000004  0.87781  1.0000
  H   H301      1.0  0.08630000000000003  0.10354000000000005  0.88261  1.0000
  H   H302      1.0  0.14106999999999992  0.38681  0.96317  1.0000
  H   H303      1.0  0.21697  0.44922  0.08741  1.0000
  H   H304      1.0  0.27947000000000005  0.35580000000000006  0.12298  1.0000
  H   H305      1.0  0.32837  0.27781  0.02818  1.0000
  H   H306      1.0  0.40958  0.36384  0.12993  1.0000
  H   H307      1.0  0.4257600000000001  0.46662  0.15787999999999996  1.0000
  H   H308      1.0  0.36093  0.48286  0.0841  1.0000
  H   H309      1.0  0.2791999999999999  0.39632  0.98281  1.0000
  H   H310      1.0  0.07589000000000001  0.11239  0.75344  1.0000
  H   H311      1.0  0.1377299999999999  0.05040999999999991  0.7673499999999999  1.0000
  H   H312      1.0  0.26711000000000007  0.14465999999999996  0.92392  1.0000
  H   H313      1.0  0.1715800000000001  0.6996400000000003  0.44913  1.0000
  H   H314      1.0  0.09071999999999998  0.72018  0.45398  1.0000
  H   H315      1.0  0.07480999999999999  0.73195  0.54067  1.0000
  H   H316      1.0  0.13955999999999993  0.7229199999999999  0.6217699999999999  1.0000
  H   H317      1.0  0.22091  0.70329  0.61692  1.0000
  H   H318      1.0  0.42374  0.67778  0.53717  1.0000
  H   H319      1.0  0.36207  0.63004  0.41308999999999996  1.0000
  H   H320      1.0  0.23289  0.65681  0.37735  1.0000
  H   H321      1.0  0.47183  0.7495200000000002  0.30032  1.0000
  H   H322      1.0  0.37033000000000005  0.7337700000000001  0.27977  1.0000
  H   H323      1.0  0.34265  0.80865  0.26799  1.0000
  H   H324      1.0  0.41651  0.8988000000000002  0.27702  1.0000
  H   H325      1.0  0.51757  0.91362  0.29663  1.0000
  H   H326      1.0  0.74615  0.85923  0.32249  1.0000
  H   H327      1.0  0.73213  0.7831600000000002  0.37023999999999996  1.0000
  H   H328      1.0  0.57578  0.72053  0.34274  1.0000
  H   H329      1.0  0.05094000000000001  0.75071  0.72271  1.0000
  H   H330      1.0  0.04612000000000004  0.7662900000000002  0.63693  1.0000
  H   H331      1.0  0.9592200000000002  0.6911400000000002  0.53395  1.0000
  H   H332      1.0  0.8778  0.60093  0.51725  1.0000
  H   H333      1.0  0.8826  0.5863000000000002  0.60352  1.0000
  H   H334      1.0  0.9631899999999999  0.6410700000000001  0.8868199999999998  1.0000
  H   H335      1.0  0.08742999999999998  0.71698  0.94923  1.0000
  H   H336      1.0  0.12298000000000003  0.77948  0.8558  1.0000
  H   H337      1.0  0.028179999999999903  0.8283799999999999  0.7778099999999999  1.0000
  H   H338      1.0  0.12994  0.9095900000000001  0.86384  1.0000
  H   H339      1.0  0.15790000000000007  0.92578  0.96664  1.0000
  H   H340      1.0  0.08412000000000006  0.8609500000000002  0.98288  1.0000
  H   H341      1.0  0.9828100000000003  0.7792100000000001  0.89633  1.0000
  H   H342      1.0  0.75343  0.5759  0.61238  1.0000
  H   H343      1.0  0.7673399999999998  0.63774  0.55041  1.0000
  H   H344      1.0  0.9239200000000002  0.7671200000000001  0.64466  1.0000
  H   H345      1.0  0.44913  0.67158  0.19963999999999998  1.0000
  H   H346      1.0  0.45398  0.59071  0.22018  1.0000
  H   H347      1.0  0.5406700000000002  0.5748  0.23195  1.0000
  H   H348      1.0  0.62177  0.63954  0.22292  1.0000
  H   H349      1.0  0.61692  0.7209  0.20329  1.0000
  H   H350      1.0  0.53716  0.92374  0.17777  1.0000
  H   H351      1.0  0.4130800000000001  0.8620700000000002  0.13002  1.0000
  H   H352      1.0  0.37735000000000013  0.73288  0.15681  1.0000
  H   H353      1.0  0.30032  0.97184  0.24953  1.0000
  H   H354      1.0  0.27978  0.8703400000000002  0.23377  1.0000
  H   H355      1.0  0.26799  0.84265  0.30865  1.0000
  H   H356      1.0  0.27702  0.9165  0.3988  1.0000
  H   H357      1.0  0.29663  0.017559999999999965  0.41361999999999993  1.0000
  H   H358      1.0  0.3225  0.24615  0.35922  1.0000
  H   H359      1.0  0.37024  0.23214000000000007  0.28315  1.0000
  H   H360      1.0  0.34272  0.07578  0.22053  1.0000
  H   H361      1.0  0.72271  0.55093  0.25069  1.0000
  H   H362      1.0  0.6369400000000001  0.54612  0.26628  1.0000
  H   H363      1.0  0.53396  0.45922999999999997  0.19113  1.0000
  H   H364      1.0  0.51725  0.37781  0.10092  1.0000
  H   H365      1.0  0.60351  0.38260000000000005  0.08629  1.0000
  H   H366      1.0  0.8868  0.46319  0.14106  1.0000
  H   H367      1.0  0.9492200000000002  0.5874199999999999  0.21697  1.0000
  H   H368      1.0  0.8558000000000001  0.6229700000000002  0.27948  1.0000
  H   H369      1.0  0.7778099999999999  0.52817  0.32837  1.0000
  H   H370      1.0  0.86384  0.6299300000000001  0.40958  1.0000
  H   H371      1.0  0.9666300000000002  0.6578900000000001  0.4257699999999999  1.0000
  H   H372      1.0  0.9828800000000002  0.58412  0.36095  1.0000
  H   H373      1.0  0.89634  0.48282  0.27922  1.0000
  H   H374      1.0  0.61238  0.25343  0.0759  1.0000
  H   H375      1.0  0.5504  0.26734  0.13773  1.0000
  H   H376      1.0  0.64466  0.4239200000000001  0.26709  1.0000
  H   H377      1.0  0.1996400000000001  0.9491400000000002  0.17159  1.0000
  H   H378      1.0  0.22016999999999995  0.95399  0.09072  1.0000
  H   H379      1.0  0.23195  0.04067  0.0748  1.0000
  H   H380      1.0  0.22292  0.12177000000000002  0.13953  1.0000
  H   H381      1.0  0.20329  0.11693  0.22088999999999998  1.0000
  H   H382      1.0  0.17777  0.03715000000000002  0.42373  1.0000
  H   H383      1.0  0.1300300000000001  0.9130800000000001  0.36207  1.0000
  H   H384      1.0  0.15681000000000006  0.87735  0.23289999999999997  1.0000
  C   C1        1.0  0.71812  0.013870000000000006  0.17744  1.0000
  C   C2        1.0  0.72652  0.010539999999999999  0.12938  1.0000
  C   C3        1.0  0.6845100000000001  0.9616300000000002  0.07145  1.0000
  C   C4        1.0  0.6337700000000001  0.9156800000000003  0.06215999999999999  1.0000
  C   C5        1.0  0.6251  0.91829  0.10997  1.0000
  C   C6        1.0  0.6668700000000002  0.9676400000000002  0.16832  1.0000
  C   C7        1.0  0.6838  0.015670000000000028  0.31076  1.0000
  C   C8        1.0  0.6617700000000001  0.9922200000000003  0.37236  1.0000
  C   C9        1.0  0.69996  0.05336999999999995  0.4041899999999999  1.0000
  C   C10       1.0  0.7820100000000002  0.45923  0.79588  1.0000
  C   C11       1.0  0.7735  0.40268000000000004  0.78405  1.0000
  C   C12       1.0  0.81537  0.38686  0.77715  1.0000
  C   C13       1.0  0.8660600000000002  0.42850000000000005  0.7820599999999999  1.0000
  C   C14       1.0  0.87486  0.48508  0.79346  1.0000
  C   C15       1.0  0.8332100000000001  0.50156  0.801  1.0000
  C   C16       1.0  0.81638  0.62704  0.83184  1.0000
  C   C17       1.0  0.83851  0.7108800000000002  0.83069  1.0000
  C   C18       1.0  0.8002400000000003  0.7042500000000003  0.85336  1.0000
  C   C19       1.0  0.6634000000000001  0.48607000000000006  0.70406  1.0000
  C   C20       1.0  0.6187400000000001  0.48942000000000013  0.71589  1.0000
  C   C21       1.0  0.6098199999999999  0.53822  0.7227899999999999  1.0000
  C   C22       1.0  0.64649  0.5839900000000002  0.71788  1.0000
  C   C23       1.0  0.6916200000000002  0.5813500000000001  0.70648  1.0000
  C   C24       1.0  0.7005600000000001  0.53214  0.69894  1.0000
  C   C25       1.0  0.7951500000000002  0.4844700000000002  0.6682  1.0000
  C   C26       1.0  0.8802299999999998  0.50808  0.6695099999999999  1.0000
  C   C27       1.0  0.85099  0.44702  0.64687  1.0000
  C   C28       1.0  0.8366400000000002  0.040939999999999976  0.323  1.0000
  C   C29       1.0  0.8815  0.09761999999999997  0.3712  1.0000
  C   C30       1.0  0.89058  0.1136  0.42902  1.0000
  C   C31       1.0  0.8538400000000002  0.07200000000000004  0.43805  1.0000
  C   C32       1.0  0.8085000000000002  0.01529000000000002  0.39008  1.0000
  C   C33       1.0  0.7994400000000004  0.9986300000000001  0.33183  1.0000
  C   C34       1.0  0.7047900000000004  0.8727600000000002  0.18909999999999996  1.0000
  C   C35       1.0  0.6194900000000003  0.7887800000000001  0.12708  1.0000
  C   C36       1.0  0.6488300000000001  0.7953700000000002  0.09547  1.0000
  C   C37       1.0  0.54095  0.82301  0.8366399999999999  1.0000
  C   C38       1.0  0.59763  0.8712099999999999  0.8815099999999999  1.0000
  C   C39       1.0  0.6136100000000002  0.92903  0.89059  1.0000
  C   C40       1.0  0.5720200000000001  0.9380600000000002  0.85385  1.0000
  C   C41       1.0  0.5153000000000002  0.8901  0.80851  1.0000
  C   C42       1.0  0.49864  0.83185  0.79945  1.0000
  C   C43       1.0  0.37277  0.6891100000000001  0.70479  1.0000
  C   C44       1.0  0.28878000000000004  0.62709  0.6195  1.0000
  C   C45       1.0  0.29537  0.5954700000000003  0.64884  1.0000
  C   C46       1.0  0.9860700000000002  0.20407000000000003  0.6634  1.0000
  C   C47       1.0  0.98942  0.21589  0.61873  1.0000
  C   C48       1.0  0.038220000000000004  0.22280000000000003  0.60981  1.0000
  C   C49       1.0  0.08398999999999994  0.21789  0.64648  1.0000
  C   C50       1.0  0.08136  0.20648  0.69162  1.0000
  C   C51       1.0  0.03215  0.19895000000000002  0.70055  1.0000
  C   C52       1.0  0.9844599999999998  0.16820999999999992  0.7951499999999999  1.0000
  C   C53       1.0  0.008070000000000037  0.1695000000000001  0.88023  1.0000
  C   C54       1.0  0.9470099999999999  0.14685999999999996  0.85099  1.0000
  C   C55       1.0  0.95923  0.29588  0.78201  1.0000
  C   C56       1.0  0.9026799999999999  0.28404999999999997  0.7734999999999999  1.0000
  C   C57       1.0  0.8868500000000001  0.27715  0.81537  1.0000
  C   C58       1.0  0.9284800000000001  0.2820600000000001  0.86607  1.0000
  C   C59       1.0  0.9850700000000003  0.29345999999999994  0.8748699999999999  1.0000
  C   C60       1.0  0.0015499999999999913  0.301  0.83321  1.0000
  C   C61       1.0  0.12703  0.33183  0.81637  1.0000
  C   C62       1.0  0.21086999999999997  0.33069999999999994  0.8385099999999999  1.0000
  C   C63       1.0  0.20424  0.3533600000000001  0.80024  1.0000
  C   C64       1.0  0.51387  0.67744  0.7181299999999999  1.0000
  C   C65       1.0  0.5105400000000001  0.6293700000000001  0.72653  1.0000
  C   C66       1.0  0.46163  0.5714500000000001  0.68452  1.0000
  C   C67       1.0  0.41567000000000004  0.56215  0.63378  1.0000
  C   C68       1.0  0.41828  0.60997  0.62511  1.0000
  C   C69       1.0  0.4676300000000001  0.66832  0.66687  1.0000
  C   C70       1.0  0.51566  0.81076  0.6838  1.0000
  C   C71       1.0  0.49223000000000006  0.87237  0.66177  1.0000
  C   C72       1.0  0.5533800000000001  0.9041900000000002  0.69996  1.0000
  C   C73       1.0  0.7040600000000004  0.16340999999999997  0.98608  1.0000
  C   C74       1.0  0.7158900000000001  0.11874000000000001  0.98943  1.0000
  C   C75       1.0  0.72279  0.10981  0.03822  1.0000
  C   C76       1.0  0.71788  0.14647  0.08399  1.0000
  C   C77       1.0  0.70648  0.19161000000000003  0.08135999999999999  1.0000
  C   C78       1.0  0.6989400000000002  0.20055  0.03215  1.0000
  C   C79       1.0  0.6682  0.29516  0.98447  1.0000
  C   C80       1.0  0.6695  0.3802200000000001  0.00807  1.0000
  C   C81       1.0  0.64686  0.3510000000000002  0.94701  1.0000
  C   C82       1.0  0.3230100000000001  0.33663999999999994  0.5409399999999999  1.0000
  C   C83       1.0  0.37121  0.38151000000000007  0.59762  1.0000
  C   C84       1.0  0.42903  0.39059000000000005  0.6136  1.0000
  C   C85       1.0  0.43806000000000006  0.35386000000000006  0.57202  1.0000
  C   C86       1.0  0.3901  0.30852000000000007  0.5153  1.0000
  C   C87       1.0  0.3318500000000001  0.29946  0.49864  1.0000
  C   C88       1.0  0.18911  0.20479000000000006  0.37276  1.0000
  C   C89       1.0  0.12708  0.11950000000000002  0.28878  1.0000
  C   C90       1.0  0.09547  0.14884  0.29536  1.0000
  C   C91       1.0  0.17743  0.21812000000000006  0.51387  1.0000
  C   C92       1.0  0.12937  0.22652  0.51054  1.0000
  C   C93       1.0  0.07145  0.18451000000000004  0.46163  1.0000
  C   C94       1.0  0.06213999999999997  0.13376999999999997  0.41566999999999993  1.0000
  C   C95       1.0  0.10995999999999997  0.12509999999999996  0.41828999999999994  1.0000
  C   C96       1.0  0.16830999999999993  0.16686  0.46762999999999993  1.0000
  C   C97       1.0  0.31075  0.1838  0.51566  1.0000
  C   C98       1.0  0.37236  0.16176999999999994  0.49221999999999994  1.0000
  C   C99       1.0  0.4041900000000001  0.19995999999999997  0.55337  1.0000
  C   C100      1.0  0.7958800000000003  0.28203  0.95923  1.0000
  C   C101      1.0  0.7840500000000002  0.27351  0.9026799999999998  1.0000
  C   C102      1.0  0.77714  0.3153799999999998  0.8868499999999999  1.0000
  C   C103      1.0  0.78205  0.3660700000000001  0.92848  1.0000
  C   C104      1.0  0.79346  0.37486999999999987  0.9850699999999998  1.0000
  C   C105      1.0  0.8010000000000003  0.33322000000000007  0.00155  1.0000
  C   C106      1.0  0.8318300000000001  0.31638  0.12703  1.0000
  C   C107      1.0  0.8307000000000002  0.3385100000000001  0.21087  1.0000
  C   C108      1.0  0.85336  0.30024  0.20424  1.0000
  C   C109      1.0  0.7179899999999999  0.20412999999999998  0.5407699999999999  1.0000
  C   C110      1.0  0.72651  0.21596  0.59732  1.0000
  C   C111      1.0  0.68463  0.22286000000000006  0.61314  1.0000
  C   C112      1.0  0.63394  0.21795000000000006  0.57151  1.0000
  C   C113      1.0  0.62514  0.20655  0.51492  1.0000
  C   C114      1.0  0.66679  0.199  0.49845  1.0000
  C   C115      1.0  0.68362  0.16816999999999996  0.37296999999999997  1.0000
  C   C116      1.0  0.66149  0.16932  0.28913  1.0000
  C   C117      1.0  0.69977  0.14665  0.29576  1.0000
  C   C118      1.0  0.7818799999999999  0.82257  0.9861299999999997  1.0000
  C   C119      1.0  0.7734800000000001  0.8706299999999999  0.9894699999999998  1.0000
  C   C120      1.0  0.81549  0.9285500000000002  0.03837  1.0000
  C   C121      1.0  0.86623  0.93785  0.08433  1.0000
  C   C122      1.0  0.8749000000000001  0.8900299999999999  0.08171  1.0000
  C   C123      1.0  0.8331300000000003  0.83168  0.03236  1.0000
  C   C124      1.0  0.8162100000000002  0.68925  0.98434  1.0000
  C   C125      1.0  0.8382300000000003  0.62764  0.00779  1.0000
  C   C126      1.0  0.80004  0.59582  0.9466399999999999  1.0000
  C   C127      1.0  0.66337  0.6770100000000001  0.95907  1.0000
  C   C128      1.0  0.6185  0.6288100000000001  0.90239  1.0000
  C   C129      1.0  0.60942  0.5709899999999999  0.8864099999999999  1.0000
  C   C130      1.0  0.64616  0.56196  0.9279999999999998  1.0000
  C   C131      1.0  0.6914999999999999  0.60993  0.9847199999999999  1.0000
  C   C132      1.0  0.7005600000000001  0.66817  0.00138  1.0000
  C   C133      1.0  0.7952100000000002  0.8109  0.12724  1.0000
  C   C134      1.0  0.8805100000000001  0.8729200000000001  0.21122  1.0000
  C   C135      1.0  0.85117  0.9045299999999998  0.20462999999999998  1.0000
  C   C136      1.0  0.8366  0.29595  0.51394  1.0000
  C   C137      1.0  0.8812700000000002  0.28412  0.51059  1.0000
  C   C138      1.0  0.89019  0.27721  0.46179  1.0000
  C   C139      1.0  0.8535099999999999  0.28213  0.41602  1.0000
  C   C140      1.0  0.8083800000000002  0.29353  0.41865  1.0000
  C   C141      1.0  0.7994500000000002  0.30106  0.46785999999999994  1.0000
  C   C142      1.0  0.7048500000000002  0.33181000000000005  0.51554  1.0000
  C   C143      1.0  0.6197700000000002  0.33049000000000006  0.49192  1.0000
  C   C144      1.0  0.6490100000000001  0.35314  0.55298  1.0000
  C   C145      1.0  0.5407800000000003  0.21799000000000002  0.70413  1.0000
  C   C146      1.0  0.5973300000000002  0.22651000000000004  0.7159599999999999  1.0000
  C   C147      1.0  0.6131499999999999  0.18463  0.7228599999999998  1.0000
  C   C148      1.0  0.57152  0.1339399999999999  0.7179499999999999  1.0000
  C   C149      1.0  0.5149300000000001  0.12514000000000003  0.7065499999999999  1.0000
  C   C150      1.0  0.49846  0.16679  0.69901  1.0000
  C   C151      1.0  0.37297  0.18363  0.66817  1.0000
  C   C152      1.0  0.28914  0.1615  0.66931  1.0000
  C   C153      1.0  0.2957700000000001  0.19977000000000006  0.64664  1.0000
  C   C154      1.0  0.98613  0.28188  0.32257  1.0000
  C   C155      1.0  0.98946  0.27348000000000006  0.37063  1.0000
  C   C156      1.0  0.03836999999999999  0.31549  0.42855999999999994  1.0000
  C   C157      1.0  0.08433000000000003  0.36623  0.43786  1.0000
  C   C158      1.0  0.08172000000000004  0.37490000000000007  0.39004  1.0000
  C   C159      1.0  0.032370000000000024  0.3331400000000001  0.33169  1.0000
  C   C160      1.0  0.9843400000000002  0.31620000000000004  0.18925  1.0000
  C   C161      1.0  0.007779999999999974  0.33824  0.12764  1.0000
  C   C162      1.0  0.94662  0.30004  0.09580999999999999  1.0000
  C   C163      1.0  0.95905  0.16335999999999995  0.17698999999999998  1.0000
  C   C164      1.0  0.90238  0.11849  0.12879  1.0000
  C   C165      1.0  0.8863900000000002  0.10941000000000002  0.07097  1.0000
  C   C166      1.0  0.9279900000000001  0.14615000000000006  0.06195  1.0000
  C   C167      1.0  0.9847000000000002  0.19150000000000003  0.10990999999999998  1.0000
  C   C168      1.0  0.0013600000000000146  0.20055  0.16816  1.0000
  C   C169      1.0  0.12724  0.29521  0.3109  1.0000
  C   C170      1.0  0.21122000000000007  0.3805000000000001  0.37292  1.0000
  C   C171      1.0  0.20463999999999996  0.35116  0.40452999999999995  1.0000
  C   C172      1.0  0.51393  0.33661  0.79594  1.0000
  C   C173      1.0  0.51058  0.38128000000000006  0.7841099999999999  1.0000
  C   C174      1.0  0.4617900000000001  0.3902000000000001  0.77721  1.0000
  C   C175      1.0  0.41600999999999994  0.35352999999999996  0.7821199999999999  1.0000
  C   C176      1.0  0.41865  0.3083900000000001  0.79353  1.0000
  C   C177      1.0  0.46786000000000005  0.29946  0.80106  1.0000
  C   C178      1.0  0.5155399999999999  0.20484999999999995  0.8317999999999999  1.0000
  C   C179      1.0  0.49193  0.11978  0.83051  1.0000
  C   C180      1.0  0.5530000000000002  0.14902000000000004  0.8531499999999999  1.0000
  C   C181      1.0  0.70413  0.040780000000000045  0.71798  1.0000
  C   C182      1.0  0.71596  0.09733000000000006  0.7265  1.0000
  C   C183      1.0  0.72286  0.1131599999999999  0.6846299999999998  1.0000
  C   C184      1.0  0.71795  0.07153000000000005  0.63394  1.0000
  C   C185      1.0  0.70655  0.01493999999999996  0.62514  1.0000
  C   C186      1.0  0.69901  0.9984600000000002  0.66679  1.0000
  C   C187      1.0  0.66817  0.87297  0.68363  1.0000
  C   C188      1.0  0.6693100000000002  0.78914  0.6615  1.0000
  C   C189      1.0  0.64664  0.7957600000000002  0.6997699999999999  1.0000
  C   C190      1.0  0.32257  0.48614  0.78189  1.0000
  C   C191      1.0  0.37063  0.48947000000000007  0.7734899999999999  1.0000
  C   C192      1.0  0.4285600000000001  0.53838  0.8155  1.0000
  C   C193      1.0  0.43786000000000014  0.58434  0.86623  1.0000
  C   C194      1.0  0.39005  0.58172  0.8748999999999999  1.0000
  C   C195      1.0  0.33169  0.5323799999999999  0.8331399999999999  1.0000
  C   C196      1.0  0.18925000000000003  0.48435000000000006  0.81621  1.0000
  C   C197      1.0  0.12764999999999999  0.50778  0.83824  1.0000
  C   C198      1.0  0.09582000000000002  0.44663  0.80004  1.0000
  C   C199      1.0  0.17699000000000004  0.45907000000000003  0.6633599999999998  1.0000
  C   C200      1.0  0.12879  0.40239  0.6185  1.0000
  C   C201      1.0  0.07098000000000002  0.3864000000000001  0.60942  1.0000
  C   C202      1.0  0.06193999999999999  0.42799000000000004  0.64615  1.0000
  C   C203      1.0  0.10991000000000009  0.48470000000000024  0.69149  1.0000
  C   C204      1.0  0.16815000000000005  0.50137  0.70055  1.0000
  C   C205      1.0  0.3109  0.6272400000000001  0.79522  1.0000
  C   C206      1.0  0.3729199999999999  0.7112299999999999  0.8804999999999997  1.0000
  C   C207      1.0  0.4045400000000002  0.7046400000000003  0.8511699999999999  1.0000
  C   C208      1.0  0.7959400000000002  0.013929999999999975  0.8366  1.0000
  C   C209      1.0  0.78412  0.01057999999999996  0.8812699999999999  1.0000
  C   C210      1.0  0.77721  0.9617900000000001  0.8901999999999999  1.0000
  C   C211      1.0  0.78212  0.91602  0.85353  1.0000
  C   C212      1.0  0.79353  0.9186499999999999  0.8083999999999999  1.0000
  C   C213      1.0  0.8010600000000002  0.96786  0.79946  1.0000
  C   C214      1.0  0.8318  0.015540000000000028  0.70485  1.0000
  C   C215      1.0  0.8305  0.9919400000000002  0.61978  1.0000
  C   C216      1.0  0.8531500000000001  0.052999999999999985  0.64901  1.0000
  C   C217      1.0  0.28188  0.9861400000000001  0.8225599999999998  1.0000
  C   C218      1.0  0.27348000000000006  0.9894700000000002  0.87063  1.0000
  C   C219      1.0  0.31549000000000005  0.038370000000000064  0.92855  1.0000
  C   C220      1.0  0.36623  0.08432999999999999  0.93785  1.0000
  C   C221      1.0  0.3749  0.08171999999999997  0.89003  1.0000
  C   C222      1.0  0.3331399999999999  0.03236999999999995  0.8316799999999999  1.0000
  C   C223      1.0  0.3162100000000001  0.9843400000000001  0.68925  1.0000
  C   C224      1.0  0.3382399999999998  0.007789999999999887  0.6276399999999999  1.0000
  C   C225      1.0  0.3000400000000001  0.9466400000000001  0.59582  1.0000
  C   C226      1.0  0.21799  0.54077  0.20411999999999994  1.0000
  C   C227      1.0  0.22650999999999993  0.59732  0.21594999999999995  1.0000
  C   C228      1.0  0.18463  0.61314  0.22285999999999997  1.0000
  C   C229      1.0  0.13394000000000003  0.57151  0.21794999999999998  1.0000
  C   C230      1.0  0.12513999999999995  0.5149199999999999  0.20653999999999995  1.0000
  C   C231      1.0  0.16679000000000002  0.4984500000000001  0.199  1.0000
  C   C232      1.0  0.18363000000000002  0.37297  0.16816  1.0000
  C   C233      1.0  0.1615  0.28913  0.16931  1.0000
  C   C234      1.0  0.19977000000000006  0.29576  0.14665  1.0000
  C   C235      1.0  0.3366  0.51394  0.29594  1.0000
  C   C236      1.0  0.38127  0.51059  0.28412  1.0000
  C   C237      1.0  0.39019  0.46179  0.27721  1.0000
  C   C238      1.0  0.3535100000000001  0.4160200000000001  0.28212  1.0000
  C   C239      1.0  0.30838  0.4186600000000001  0.29353  1.0000
  C   C240      1.0  0.29945  0.46787  0.30106  1.0000
  C   C241      1.0  0.20485  0.51554  0.33180999999999994  1.0000
  C   C242      1.0  0.11977  0.4919200000000001  0.33048999999999995  1.0000
  C   C243      1.0  0.14901  0.55299  0.35314  1.0000
  C   C244      1.0  0.1633699999999999  0.95907  0.677  1.0000
  C   C245      1.0  0.11850000000000002  0.9023900000000001  0.6287999999999999  1.0000
  C   C246      1.0  0.10942000000000003  0.88641  0.57099  1.0000
  C   C247      1.0  0.14615999999999993  0.9279999999999999  0.5619599999999999  1.0000
  C   C248      1.0  0.1915  0.98472  0.60992  1.0000
  C   C249      1.0  0.20055999999999996  0.0013799999999999858  0.66817  1.0000
  C   C250      1.0  0.29521000000000003  0.12724  0.8109  1.0000
  C   C251      1.0  0.38050999999999996  0.21123000000000003  0.8729199999999999  1.0000
  C   C252      1.0  0.35117  0.20464  0.90453  1.0000
  C   C253      1.0  0.4590600000000002  0.17699000000000006  0.16336  1.0000
  C   C254      1.0  0.40238  0.12879  0.11848999999999998  1.0000
  C   C255      1.0  0.38639  0.07096999999999999  0.10940999999999998  1.0000
  C   C256      1.0  0.42799000000000004  0.061950000000000005  0.14615  1.0000
  C   C257      1.0  0.48470000000000013  0.10991000000000002  0.1915  1.0000
  C   C258      1.0  0.50137  0.16816  0.20054999999999998  1.0000
  C   C259      1.0  0.6272400000000001  0.3109  0.29521  1.0000
  C   C260      1.0  0.71122  0.37292  0.3805  1.0000
  C   C261      1.0  0.7046299999999999  0.40454000000000007  0.35116  1.0000
  C   C262      1.0  0.013929999999999991  0.79594  0.3366  1.0000
  C   C263      1.0  0.010580000000000015  0.7841200000000003  0.38128  1.0000
  C   C264      1.0  0.9617800000000002  0.77721  0.3902  1.0000
  C   C265      1.0  0.91601  0.78212  0.35352999999999996  1.0000
  C   C266      1.0  0.9186500000000001  0.79353  0.30839  1.0000
  C   C267      1.0  0.96786  0.80106  0.29945  1.0000
  C   C268      1.0  0.015540000000000064  0.8318000000000001  0.20485  1.0000
  C   C269      1.0  0.9919300000000002  0.8305  0.11978  1.0000
  C   C270      1.0  0.05299000000000001  0.85315  0.14901  1.0000
  C   C271      1.0  0.04078000000000004  0.7041300000000001  0.21798999999999996  1.0000
  C   C272      1.0  0.09733  0.71596  0.22651  1.0000
  C   C273      1.0  0.11315000000000006  0.7228600000000002  0.18463  1.0000
  C   C274      1.0  0.07152000000000001  0.71795  0.13394  1.0000
  C   C275      1.0  0.014930000000000065  0.7065500000000002  0.12514  1.0000
  C   C276      1.0  0.9984600000000001  0.6990100000000001  0.16679  1.0000
  C   C277      1.0  0.87297  0.66817  0.18362999999999996  1.0000
  C   C278      1.0  0.78913  0.6693100000000002  0.16149  1.0000
  C   C279      1.0  0.79577  0.6466400000000001  0.19977  1.0000
  C   C280      1.0  0.4861300000000001  0.32257  0.28188  1.0000
  C   C281      1.0  0.48947  0.37064  0.27348  1.0000
  C   C282      1.0  0.53837  0.4285600000000001  0.31549  1.0000
  C   C283      1.0  0.58433  0.43786  0.36623  1.0000
  C   C284      1.0  0.58172  0.39004  0.3749  1.0000
  C   C285      1.0  0.5323699999999999  0.33169  0.33314  1.0000
  C   C286      1.0  0.48434000000000005  0.18925000000000008  0.3162  1.0000
  C   C287      1.0  0.50778  0.12764  0.33824  1.0000
  C   C288      1.0  0.44662  0.09580999999999999  0.30004  1.0000
  C   C289      1.0  0.29594000000000004  0.8366  0.013919999999999998  1.0000
  C   C290      1.0  0.28412  0.88127  0.01057  1.0000
  C   C291      1.0  0.2772100000000001  0.8902000000000002  0.96178  1.0000
  C   C292      1.0  0.28212000000000004  0.8535399999999999  0.9160199999999998  1.0000
  C   C293      1.0  0.2935300000000002  0.8084000000000001  0.91865  1.0000
  C   C294      1.0  0.3010600000000001  0.7994600000000001  0.96786  1.0000
  C   C295      1.0  0.3318  0.7048500000000001  0.01553  1.0000
  C   C296      1.0  0.3305  0.61979  0.99194  1.0000
  C   C297      1.0  0.35315000000000013  0.6490100000000002  0.052989999999999995  1.0000
  C   C298      1.0  0.6769900000000002  0.66337  0.45906  1.0000
  C   C299      1.0  0.62879  0.6185  0.40238  1.0000
  C   C300      1.0  0.57097  0.60942  0.3864  1.0000
  C   C301      1.0  0.56194  0.64615  0.4279899999999999  1.0000
  C   C302      1.0  0.6099  0.69149  0.4847  1.0000
  C   C303      1.0  0.6681500000000002  0.70055  0.50136  1.0000
  C   C304      1.0  0.81089  0.79522  0.62724  1.0000
  C   C305      1.0  0.8729200000000003  0.8805  0.71123  1.0000
  C   C306      1.0  0.90453  0.85117  0.70464  1.0000
  C   C307      1.0  0.82257  0.78189  0.48613999999999996  1.0000
  C   C308      1.0  0.8706300000000002  0.7734900000000002  0.48947  1.0000
  C   C309      1.0  0.92856  0.8155000000000002  0.53837  1.0000
  C   C310      1.0  0.93786  0.8662300000000002  0.58433  1.0000
  C   C311      1.0  0.8900500000000002  0.87491  0.58172  1.0000
  C   C312      1.0  0.8316900000000005  0.8331500000000001  0.53237  1.0000
  C   C313      1.0  0.68925  0.81621  0.48433999999999994  1.0000
  C   C314      1.0  0.6276400000000001  0.83824  0.50778  1.0000
  C   C315      1.0  0.59582  0.80004  0.44663  1.0000
  C   C316      1.0  0.20412  0.71798  0.04077  1.0000
  C   C317      1.0  0.2159500000000001  0.7265  0.09732  1.0000
  C   C318      1.0  0.22286000000000003  0.6846300000000001  0.11315  1.0000
  C   C319      1.0  0.21795  0.63394  0.07153  1.0000
  C   C320      1.0  0.20655  0.62514  0.01494  1.0000
  C   C321      1.0  0.19901000000000002  0.66679  0.99846  1.0000
  C   C322      1.0  0.16817  0.68363  0.87297  1.0000
  C   C323      1.0  0.16931000000000002  0.6615  0.78913  1.0000
  C   C324      1.0  0.14664000000000002  0.69977  0.79576  1.0000
  C   C325      1.0  0.2820100000000001  0.79588  0.45923  1.0000
  C   C326      1.0  0.2735000000000001  0.7840500000000001  0.40268  1.0000
  C   C327      1.0  0.31536999999999993  0.7771499999999999  0.3868599999999999  1.0000
  C   C328      1.0  0.36607000000000006  0.78206  0.42849  1.0000
  C   C329      1.0  0.3748600000000002  0.7934600000000003  0.48508  1.0000
  C   C330      1.0  0.33321  0.801  0.50155  1.0000
  C   C331      1.0  0.31638000000000005  0.83184  0.62704  1.0000
  C   C332      1.0  0.33851000000000014  0.8306900000000003  0.71087  1.0000
  C   C333      1.0  0.30024  0.8533599999999999  0.7042399999999999  1.0000
  C   C334      1.0  0.21813000000000005  0.17744  0.01387  1.0000
  C   C335      1.0  0.22652000000000008  0.12938  0.01054  1.0000
  C   C336      1.0  0.18450999999999995  0.07145999999999997  0.96164  1.0000
  C   C337      1.0  0.13377999999999987  0.06215999999999984  0.9156799999999998  1.0000
  C   C338      1.0  0.12511000000000005  0.10997999999999998  0.91829  1.0000
  C   C339      1.0  0.16687000000000007  0.16833  0.96764  1.0000
  C   C340      1.0  0.1838  0.31076  0.01567  1.0000
  C   C341      1.0  0.16177000000000014  0.3723700000000001  0.99222  1.0000
  C   C342      1.0  0.19996000000000005  0.40419  0.05337  1.0000
  C   C343      1.0  0.33664  0.323  0.04094  1.0000
  C   C344      1.0  0.3815  0.3712  0.09762  1.0000
  C   C345      1.0  0.3905800000000001  0.42902  0.1136  1.0000
  C   C346      1.0  0.35384  0.43805  0.072  1.0000
  C   C347      1.0  0.30850000000000005  0.39008000000000004  0.01529  1.0000
  C   C348      1.0  0.2994499999999999  0.3318299999999999  0.9986299999999998  1.0000
  C   C349      1.0  0.20478999999999997  0.18910999999999994  0.8727599999999999  1.0000
  C   C350      1.0  0.11950000000000006  0.1270900000000001  0.78878  1.0000
  C   C351      1.0  0.14883999999999992  0.09547999999999991  0.7953699999999999  1.0000
  C   C352      1.0  0.16340000000000007  0.70406  0.48607  1.0000
  C   C353      1.0  0.11874000000000005  0.7158900000000002  0.48942  1.0000
  C   C354      1.0  0.10982000000000003  0.7228000000000001  0.5382199999999999  1.0000
  C   C355      1.0  0.1464900000000001  0.71788  0.58399  1.0000
  C   C356      1.0  0.19162000000000012  0.7064800000000001  0.58135  1.0000
  C   C357      1.0  0.20056000000000004  0.6989500000000002  0.53214  1.0000
  C   C358      1.0  0.29515  0.6682  0.48446  1.0000
  C   C359      1.0  0.38023000000000007  0.66951  0.50808  1.0000
  C   C360      1.0  0.35099000000000025  0.6468700000000002  0.44702  1.0000
  C   C361      1.0  0.45923000000000014  0.78201  0.29587  1.0000
  C   C362      1.0  0.4026799999999999  0.7735  0.28405  1.0000
  C   C363      1.0  0.38685  0.81537  0.27714  1.0000
  C   C364      1.0  0.4284800000000002  0.8660700000000002  0.28205  1.0000
  C   C365      1.0  0.48507  0.87487  0.29345  1.0000
  C   C366      1.0  0.5015500000000002  0.8332100000000001  0.3009899999999999  1.0000
  C   C367      1.0  0.6270300000000001  0.8163799999999999  0.33183  1.0000
  C   C368      1.0  0.71087  0.83851  0.33069  1.0000
  C   C369      1.0  0.7042400000000003  0.8002400000000002  0.35335999999999995  1.0000
  C   C370      1.0  0.013870000000000023  0.7181300000000002  0.6774399999999999  1.0000
  C   C371      1.0  0.010540000000000058  0.72653  0.62937  1.0000
  C   C372      1.0  0.9616300000000002  0.68452  0.57144  1.0000
  C   C373      1.0  0.91567  0.63378  0.56215  1.0000
  C   C374      1.0  0.9182800000000002  0.6251100000000003  0.60996  1.0000
  C   C375      1.0  0.9676300000000002  0.66687  0.66832  1.0000
  C   C376      1.0  0.015669999999999927  0.68381  0.8107599999999999  1.0000
  C   C377      1.0  0.9922300000000002  0.6617700000000001  0.87237  1.0000
  C   C378      1.0  0.05337999999999998  0.6999699999999999  0.9041899999999999  1.0000
  C   C379      1.0  0.04095000000000002  0.8366500000000002  0.82301  1.0000
  C   C380      1.0  0.09763000000000001  0.88151  0.8712099999999999  1.0000
  C   C381      1.0  0.11360999999999989  0.8906  0.92903  1.0000
  C   C382      1.0  0.0720200000000001  0.8538600000000002  0.93806  1.0000
  C   C383      1.0  0.01530000000000006  0.8085100000000001  0.89009  1.0000
  C   C384      1.0  0.9986400000000002  0.79945  0.83184  1.0000
  C   C385      1.0  0.8727699999999999  0.7048000000000001  0.6891099999999999  1.0000
  C   C386      1.0  0.7887800000000001  0.6195  0.62708  1.0000
  C   C387      1.0  0.7953699999999999  0.64885  0.5954699999999999  1.0000
  C   C388      1.0  0.48607000000000017  0.6634000000000001  0.20406  1.0000
  C   C389      1.0  0.48942  0.61873  0.21589  1.0000
  C   C390      1.0  0.53822  0.60981  0.22279999999999997  1.0000
  C   C391      1.0  0.58399  0.6464800000000002  0.21788  1.0000
  C   C392      1.0  0.58135  0.69162  0.20648  1.0000
  C   C393      1.0  0.5321400000000001  0.70055  0.19895  1.0000
  C   C394      1.0  0.48446  0.79515  0.1682  1.0000
  C   C395      1.0  0.5080700000000001  0.8802300000000001  0.1695  1.0000
  C   C396      1.0  0.4470100000000001  0.8509900000000002  0.14685  1.0000
  C   C397      1.0  0.29588000000000003  0.95923  0.28202  1.0000
  C   C398      1.0  0.28405000000000014  0.9026800000000001  0.2735  1.0000
  C   C399      1.0  0.27714  0.88685  0.31538  1.0000
  C   C400      1.0  0.28205000000000013  0.92848  0.36607  1.0000
  C   C401      1.0  0.29345000000000004  0.9850700000000002  0.37487  1.0000
  C   C402      1.0  0.30100000000000005  0.0015499999999999527  0.33321999999999996  1.0000
  C   C403      1.0  0.33183  0.12702999999999998  0.31637999999999994  1.0000
  C   C404      1.0  0.3307  0.21087  0.33851  1.0000
  C   C405      1.0  0.35336  0.20424000000000006  0.30024  1.0000
  C   C406      1.0  0.67743  0.51387  0.21811999999999998  1.0000
  C   C407      1.0  0.6293700000000002  0.51054  0.22652  1.0000
  C   C408      1.0  0.57144  0.46163  0.18451  1.0000
  C   C409      1.0  0.56214  0.41567  0.13377  1.0000
  C   C410      1.0  0.6099600000000001  0.41829  0.12509999999999996  1.0000
  C   C411      1.0  0.66831  0.46763  0.16686  1.0000
  C   C412      1.0  0.81075  0.51566  0.1838  1.0000
  C   C413      1.0  0.87236  0.49222  0.16176  1.0000
  C   C414      1.0  0.90418  0.55337  0.19995999999999997  1.0000
  C   C415      1.0  0.8230100000000002  0.54094  0.33664  1.0000
  C   C416      1.0  0.8712100000000003  0.59762  0.38151  1.0000
  C   C417      1.0  0.92903  0.6136  0.39059  1.0000
  C   C418      1.0  0.9380600000000002  0.57202  0.35386  1.0000
  C   C419      1.0  0.8901  0.5153  0.30851  1.0000
  C   C420      1.0  0.8318500000000002  0.4986400000000001  0.29946  1.0000
  C   C421      1.0  0.68911  0.37276000000000004  0.20479  1.0000
  C   C422      1.0  0.62708  0.2887800000000001  0.1195  1.0000
  C   C423      1.0  0.5954700000000003  0.29536  0.14884  1.0000
  C   C424      1.0  0.20406  0.9860800000000001  0.16339999999999996  1.0000
  C   C425      1.0  0.21589000000000008  0.98943  0.11872999999999999  1.0000
  C   C426      1.0  0.22279  0.038220000000000004  0.1098  1.0000
  C   C427      1.0  0.21788000000000002  0.08399  0.14647  1.0000
  C   C428      1.0  0.20647999999999997  0.08135999999999999  0.19161  1.0000
  C   C429      1.0  0.19894000000000003  0.032150000000000005  0.20054999999999998  1.0000
  C   C430      1.0  0.16820000000000002  0.98447  0.29515  1.0000
  C   C431      1.0  0.16950000000000004  0.008069999999999996  0.38022  1.0000
  C   C432      1.0  0.14686000000000013  0.9470100000000002  0.35099  1.0000
  C   C433      1.0  0.7515500000000003  0.12606999999999996  0.3759799999999999  1.0000
  C   C434      1.0  0.7484500000000002  0.6240300000000001  0.8739399999999999  1.0000
  C   C435      1.0  0.7500000000000002  0.3741999999999999  0.6258099999999999  1.0000
  C   C436      1.0  0.7500000000000002  0.87571  0.12429  1.0000
  C   C437      1.0  0.37570999999999993  0.6243  0.7500099999999998  1.0000
  C   C438      1.0  0.8741900000000002  0.12580999999999995  0.7499999999999999  1.0000
  C   C439      1.0  0.12402000000000002  0.37395  0.74845  1.0000
  C   C440      1.0  0.62607  0.87598  0.7515599999999999  1.0000
  C   C441      1.0  0.6258100000000001  0.25001  0.8742  1.0000
  C   C442      1.0  0.12428999999999997  0.24999  0.37571  1.0000
  C   C443      1.0  0.37598000000000004  0.25155999999999995  0.6260599999999998  1.0000
  C   C444      1.0  0.87393  0.24845000000000006  0.12402  1.0000
  C   C445      1.0  0.24845000000000006  0.8739400000000003  0.62402  1.0000
  C   C446      1.0  0.25155  0.37598  0.12606  1.0000
  C   C447      1.0  0.2500000000000001  0.62581  0.37419  1.0000
  C   C448      1.0  0.24999999999999994  0.12428999999999991  0.8757099999999999  1.0000
  C   C449      1.0  0.62429  0.37571000000000004  0.24998999999999996  1.0000
  C   C450      1.0  0.12580999999999995  0.8741999999999999  0.25001  1.0000
  C   C451      1.0  0.8759800000000002  0.6260600000000002  0.25156  1.0000
  C   C452      1.0  0.37393  0.12402000000000002  0.24845  1.0000
  C   C453      1.0  0.37419000000000013  0.75  0.12581  1.0000
  C   C454      1.0  0.87571  0.7500100000000001  0.62429  1.0000
  C   C455      1.0  0.62402  0.7484500000000002  0.37394  1.0000
  C   C456      1.0  0.12607000000000002  0.75156  0.87598  1.0000
  N   N1        1.0  0.6556800000000003  0.96649  0.21396999999999997  1.0000
  N   N2        1.0  0.6519000000000003  0.9693400000000004  0.31498  1.0000
  N   N3        1.0  0.71469  0.06749  0.36539  1.0000
  N   N4        1.0  0.6899200000000001  0.017949999999999994  0.26443  1.0000
  N   N5        1.0  0.8444700000000003  0.55846  0.81106  1.0000
  N   N6        1.0  0.84836  0.6634000000000001  0.81769  1.0000
  N   N7        1.0  0.7854300000000001  0.6505700000000001  0.85255  1.0000
  N   N8        1.0  0.8101800000000002  0.57453  0.82794  1.0000
  N   N9        1.0  0.74738  0.5333299999999999  0.6889399999999999  1.0000
  N   N10       1.0  0.84565  0.5308  0.6824  1.0000
  N   N11       1.0  0.79807  0.43282  0.64758  1.0000
  N   N12       1.0  0.74649  0.48206999999999994  0.672  1.0000
  N   N13       1.0  0.75254  0.94157  0.28598  1.0000
  N   N14       1.0  0.65414  0.83637  0.18459  1.0000
  N   N15       1.0  0.7019000000000001  0.8491300000000002  0.13454  1.0000
  N   N16       1.0  0.7535299999999999  0.9253799999999999  0.23563999999999993  1.0000
  N   N17       1.0  0.44158000000000014  0.786  0.75254  1.0000
  N   N18       1.0  0.33637000000000006  0.6846000000000001  0.65415  1.0000
  N   N19       1.0  0.34914  0.63454  0.70191  1.0000
  N   N20       1.0  0.42538000000000004  0.73565  0.75353  1.0000
  N   N21       1.0  0.03334000000000002  0.18895  0.74738  1.0000
  N   N22       1.0  0.030789999999999984  0.18239  0.84566  1.0000
  N   N23       1.0  0.93281  0.14758000000000004  0.79807  1.0000
  N   N24       1.0  0.98207  0.17201000000000002  0.7465  1.0000
  N   N25       1.0  0.05845  0.31104999999999994  0.84447  1.0000
  N   N26       1.0  0.16339  0.31769000000000003  0.84836  1.0000
  N   N27       1.0  0.15056000000000008  0.35255  0.78543  1.0000
  N   N28       1.0  0.07452  0.32794  0.81018  1.0000
  N   N29       1.0  0.46648  0.7139700000000001  0.65568  1.0000
  N   N30       1.0  0.4693400000000001  0.8149900000000002  0.6519  1.0000
  N   N31       1.0  0.5674900000000003  0.8653900000000002  0.7147  1.0000
  N   N32       1.0  0.51794  0.7644399999999999  0.6899299999999999  1.0000
  N   N33       1.0  0.6889400000000002  0.24738000000000004  0.03333  1.0000
  N   N34       1.0  0.68239  0.34565000000000007  0.030789999999999998  1.0000
  N   N35       1.0  0.64758  0.29808  0.93282  1.0000
  N   N36       1.0  0.67201  0.2465000000000001  0.98207  1.0000
  N   N37       1.0  0.2859999999999999  0.25254999999999994  0.4415799999999999  1.0000
  N   N38       1.0  0.18459000000000006  0.15415000000000006  0.33637  1.0000
  N   N39       1.0  0.13454000000000005  0.2019  0.34913  1.0000
  N   N40       1.0  0.23565000000000005  0.25353  0.42538  1.0000
  N   N41       1.0  0.21396000000000007  0.15567000000000003  0.46647999999999995  1.0000
  N   N42       1.0  0.31498  0.15190000000000003  0.4693399999999999  1.0000
  N   N43       1.0  0.36538  0.2147  0.56748  1.0000
  N   N44       1.0  0.26443  0.18992000000000003  0.51794  1.0000
  N   N45       1.0  0.81105  0.34447000000000005  0.05844999999999999  1.0000
  N   N46       1.0  0.81769  0.34836  0.16339  1.0000
  N   N47       1.0  0.85254  0.2854300000000001  0.15057  1.0000
  N   N48       1.0  0.82793  0.31018  0.07452  1.0000
  N   N49       1.0  0.6555300000000002  0.18894999999999998  0.44154999999999994  1.0000
  N   N50       1.0  0.65164  0.18232000000000007  0.33660999999999996  1.0000
  N   N51       1.0  0.71457  0.14746  0.34944  1.0000
  N   N52       1.0  0.68982  0.17206  0.42548  1.0000
  N   N53       1.0  0.8443200000000002  0.7860300000000002  0.03351  1.0000
  N   N54       1.0  0.8481000000000002  0.68502  0.030659999999999996  1.0000
  N   N55       1.0  0.7853100000000001  0.63462  0.93252  1.0000
  N   N56       1.0  0.81008  0.73558  0.98206  1.0000
  N   N57       1.0  0.74746  0.7140200000000001  0.058429999999999996  1.0000
  N   N58       1.0  0.84586  0.81541  0.16363  1.0000
  N   N59       1.0  0.7981000000000003  0.86546  0.15086999999999998  1.0000
  N   N60       1.0  0.7464700000000001  0.76436  0.07462999999999999  1.0000
  N   N61       1.0  0.7526200000000002  0.31106000000000006  0.4666699999999999  1.0000
  N   N62       1.0  0.65435  0.31761000000000006  0.46920999999999996  1.0000
  N   N63       1.0  0.7019300000000003  0.3524300000000001  0.56719  1.0000
  N   N64       1.0  0.7535100000000001  0.32801  0.51794  1.0000
  N   N65       1.0  0.4415500000000001  0.15553000000000003  0.68895  1.0000
  N   N66       1.0  0.33661  0.15163999999999994  0.68232  1.0000
  N   N67       1.0  0.34943999999999986  0.21458  0.64746  1.0000
  N   N68       1.0  0.42548000000000014  0.18983  0.67207  1.0000
  N   N69       1.0  0.03352  0.3443300000000001  0.28604  1.0000
  N   N70       1.0  0.030660000000000007  0.3481000000000001  0.18501999999999996  1.0000
  N   N71       1.0  0.9325100000000002  0.28531  0.13462  1.0000
  N   N72       1.0  0.98206  0.31008000000000013  0.23557  1.0000
  N   N73       1.0  0.05842999999999998  0.24746  0.21400999999999995  1.0000
  N   N74       1.0  0.16363000000000008  0.34586  0.31541  1.0000
  N   N75       1.0  0.15087  0.2981  0.36545999999999995  1.0000
  N   N76       1.0  0.07461999999999999  0.24648000000000003  0.26436  1.0000
  N   N77       1.0  0.4666700000000001  0.25263  0.81106  1.0000
  N   N78       1.0  0.4692100000000002  0.15435000000000007  0.81761  1.0000
  N   N79       1.0  0.56719  0.2019400000000001  0.85243  1.0000
  N   N80       1.0  0.51793  0.25351000000000007  0.828  1.0000
  N   N81       1.0  0.68895  0.94156  0.65553  1.0000
  N   N82       1.0  0.6823200000000003  0.83661  0.65164  1.0000
  N   N83       1.0  0.64746  0.84944  0.71457  1.0000
  N   N84       1.0  0.67207  0.92548  0.68982  1.0000
  N   N85       1.0  0.28604999999999997  0.5335299999999998  0.84433  1.0000
  N   N86       1.0  0.18503000000000006  0.53067  0.84811  1.0000
  N   N87       1.0  0.13462000000000002  0.43252  0.78531  1.0000
  N   N88       1.0  0.23557999999999998  0.48206999999999994  0.8100799999999999  1.0000
  N   N89       1.0  0.21401000000000003  0.5584300000000001  0.74745  1.0000
  N   N90       1.0  0.31540999999999997  0.6636399999999999  0.8458599999999998  1.0000
  N   N91       1.0  0.36546000000000006  0.65088  0.79811  1.0000
  N   N92       1.0  0.26435  0.57463  0.74648  1.0000
  N   N93       1.0  0.8110600000000002  0.96667  0.75263  1.0000
  N   N94       1.0  0.8176100000000002  0.9692200000000002  0.65435  1.0000
  N   N95       1.0  0.8524300000000002  0.06719000000000003  0.70193  1.0000
  N   N96       1.0  0.82799  0.017929999999999963  0.7535099999999999  1.0000
  N   N97       1.0  0.34432999999999997  0.03352  0.7860299999999999  1.0000
  N   N98       1.0  0.3481  0.03067  0.68502  1.0000
  N   N99       1.0  0.28531  0.93252  0.63462  1.0000
  N   N100      1.0  0.31007999999999997  0.98206  0.73557  1.0000
  N   N101      1.0  0.15553000000000006  0.44155000000000005  0.18895  1.0000
  N   N102      1.0  0.15164000000000002  0.33661  0.18231  1.0000
  N   N103      1.0  0.21456999999999998  0.34944  0.14745999999999998  1.0000
  N   N104      1.0  0.18982  0.42548  0.17206  1.0000
  N   N105      1.0  0.25262  0.46668  0.31106  1.0000
  N   N106      1.0  0.15435000000000001  0.46921  0.31761  1.0000
  N   N107      1.0  0.20193  0.56719  0.35243  1.0000
  N   N108      1.0  0.25351  0.51794  0.328  1.0000
  N   N109      1.0  0.24746  0.05843  0.71402  1.0000
  N   N110      1.0  0.34586000000000006  0.16364000000000006  0.81541  1.0000
  N   N111      1.0  0.2981  0.15088000000000007  0.86546  1.0000
  N   N112      1.0  0.24647  0.07462999999999999  0.76436  1.0000
  N   N113      1.0  0.5584300000000001  0.21401  0.24745999999999999  1.0000
  N   N114      1.0  0.66363  0.31541  0.34586  1.0000
  N   N115      1.0  0.6508700000000001  0.36547  0.2981  1.0000
  N   N116      1.0  0.57462  0.26436  0.24647  1.0000
  N   N117      1.0  0.9666700000000001  0.8110600000000002  0.25262  1.0000
  N   N118      1.0  0.96921  0.81761  0.15435  1.0000
  N   N119      1.0  0.06718999999999997  0.85243  0.20192999999999997  1.0000
  N   N120      1.0  0.017930000000000022  0.828  0.25351  1.0000
  N   N121      1.0  0.94155  0.68895  0.15553  1.0000
  N   N122      1.0  0.83661  0.68232  0.15164  1.0000
  N   N123      1.0  0.8494400000000002  0.64746  0.21458  1.0000
  N   N124      1.0  0.9254800000000002  0.6720700000000002  0.18982999999999994  1.0000
  N   N125      1.0  0.53352  0.28604  0.34433  1.0000
  N   N126      1.0  0.5306600000000002  0.18502  0.3481  1.0000
  N   N127      1.0  0.4325100000000001  0.13462  0.28531  1.0000
  N   N128      1.0  0.4820600000000002  0.23557000000000006  0.31008  1.0000
  N   N129      1.0  0.31106000000000006  0.75263  0.96667  1.0000
  N   N130      1.0  0.31760999999999995  0.6543600000000002  0.9692099999999998  1.0000
  N   N131      1.0  0.3524300000000001  0.7019300000000002  0.06719  1.0000
  N   N132      1.0  0.32799  0.7535100000000001  0.01793  1.0000
  N   N133      1.0  0.7140000000000002  0.74746  0.55842  1.0000
  N   N134      1.0  0.81541  0.8458600000000001  0.66364  1.0000
  N   N135      1.0  0.8654599999999999  0.7981100000000001  0.6508699999999998  1.0000
  N   N136      1.0  0.76435  0.7464800000000001  0.57463  1.0000
  N   N137      1.0  0.7860400000000002  0.84433  0.53352  1.0000
  N   N138      1.0  0.68503  0.84811  0.53067  1.0000
  N   N139      1.0  0.6346200000000001  0.78531  0.4325199999999999  1.0000
  N   N140      1.0  0.7355700000000001  0.8100900000000001  0.48207  1.0000
  N   N141      1.0  0.18894999999999992  0.6555299999999998  0.9415599999999998  1.0000
  N   N142      1.0  0.18232000000000007  0.6516500000000002  0.83661  1.0000
  N   N143      1.0  0.14746000000000006  0.7145800000000001  0.84944  1.0000
  N   N144      1.0  0.17207000000000003  0.68983  0.92548  1.0000
  N   N145      1.0  0.34447000000000016  0.8110600000000002  0.55846  1.0000
  N   N146      1.0  0.34836000000000006  0.8176900000000001  0.6634  1.0000
  N   N147      1.0  0.28543  0.85255  0.65057  1.0000
  N   N148      1.0  0.31018  0.82795  0.5745299999999999  1.0000
  N   N149      1.0  0.15568  0.21398  0.96649  1.0000
  N   N150      1.0  0.15191000000000002  0.31499  0.96934  1.0000
  N   N151      1.0  0.21469000000000002  0.3653900000000001  0.06749  1.0000
  N   N152      1.0  0.18992  0.26443  0.01794  1.0000
  N   N153      1.0  0.25254000000000015  0.28599000000000013  0.94157  1.0000
  N   N154      1.0  0.15415000000000004  0.18459  0.8363699999999998  1.0000
  N   N155      1.0  0.2019  0.13454  0.84913  1.0000
  N   N156      1.0  0.25352999999999987  0.23565  0.92538  1.0000
  N   N157      1.0  0.24738000000000007  0.6889400000000001  0.53333  1.0000
  N   N158      1.0  0.34564999999999996  0.6824  0.53079  1.0000
  N   N159      1.0  0.29807  0.64758  0.43281  1.0000
  N   N160      1.0  0.24649000000000001  0.672  0.48205999999999993  1.0000
  N   N161      1.0  0.55845  0.8444700000000003  0.31104999999999994  1.0000
  N   N162      1.0  0.6633900000000003  0.84837  0.31769  1.0000
  N   N163      1.0  0.6505600000000002  0.78543  0.35255  1.0000
  N   N164      1.0  0.57452  0.81018  0.32793  1.0000
  N   N165      1.0  0.9664800000000001  0.65568  0.71397  1.0000
  N   N166      1.0  0.9693400000000002  0.65191  0.8149899999999998  1.0000
  N   N167      1.0  0.06749000000000001  0.7147000000000001  0.86539  1.0000
  N   N168      1.0  0.01793999999999995  0.6899299999999999  0.7644299999999999  1.0000
  N   N169      1.0  0.94158  0.75255  0.78599  1.0000
  N   N170      1.0  0.8363700000000001  0.65415  0.68459  1.0000
  N   N171      1.0  0.8491400000000002  0.70191  0.63454  1.0000
  N   N172      1.0  0.9253800000000002  0.75353  0.73565  1.0000
  N   N173      1.0  0.53333  0.7473800000000002  0.18894  1.0000
  N   N174      1.0  0.53079  0.84566  0.18238999999999997  1.0000
  N   N175      1.0  0.43281  0.79807  0.14757  1.0000
  N   N176      1.0  0.48207  0.7465  0.17201  1.0000
  N   N177      1.0  0.31105  0.058449999999999946  0.34446999999999994  1.0000
  N   N178      1.0  0.3176900000000001  0.16339000000000004  0.34836  1.0000
  N   N179      1.0  0.35254  0.15057  0.28543  1.0000
  N   N180      1.0  0.3279300000000001  0.07453000000000001  0.31017999999999996  1.0000
  N   N181      1.0  0.71396  0.46648  0.15567  1.0000
  N   N182      1.0  0.8149700000000001  0.4693400000000001  0.1519  1.0000
  N   N183      1.0  0.8653800000000003  0.5674800000000001  0.21469  1.0000
  N   N184      1.0  0.76443  0.51794  0.18991999999999998  1.0000
  N   N185      1.0  0.7860000000000004  0.4415800000000001  0.25255  1.0000
  N   N186      1.0  0.68459  0.33637000000000006  0.15415  1.0000
  N   N187      1.0  0.63454  0.34913  0.20189999999999997  1.0000
  N   N188      1.0  0.73565  0.4253800000000001  0.25353  1.0000
  N   N189      1.0  0.18894000000000005  0.03334000000000001  0.24738  1.0000
  N   N190      1.0  0.18239  0.03079000000000003  0.34565  1.0000
  N   N191      1.0  0.1475800000000001  0.9328200000000001  0.29808  1.0000
  N   N192      1.0  0.17200999999999994  0.98207  0.24649999999999994  1.0000
