data_image0
_chemical_formula_structural       Ni12H312C264N24O72
_chemical_formula_sum              "Ni12 H312 C264 N24 O72"
_cell_length_a       25.03043
_cell_length_b       25.02953
_cell_length_c       25.02958
_cell_angle_alpha    109.50587
_cell_angle_beta     109.50721
_cell_angle_gamma    109.50723999999998

_symmetry_space_group_name_H-M    'P 1'
_symmetry_Int_Tables_number       1

loop_
  _symmetry_equiv_pos_as_xyz
  'x,y,z'

loop_
  _atom_site_type_symbol
  _atom_site_label
  _atom_site_symmetry_multiplicity
  _atom_site_fract_x
  _atom_site_fract_y
  _atom_site_fract_z
  _atom_site_occupancy
  Ni  Ni1       1.0  0.2499999999999999  0.27598  0.72403  1.0000
  Ni  Ni2       1.0  0.25000000000000006  0.47395  0.5260600000000001  1.0000
  Ni  Ni3       1.0  0.9478699999999999  0.22413000000000002  0.9741  1.0000
  Ni  Ni4       1.0  0.55211  0.025899999999999986  0.77588  1.0000
  Ni  Ni5       1.0  0.5259  0.27588  0.55211  1.0000
  Ni  Ni6       1.0  0.7241199999999998  0.4741000000000001  0.9478900000000001  1.0000
  Ni  Ni7       1.0  0.9739399999999999  0.02604999999999999  0.25  1.0000
  Ni  Ni8       1.0  0.7759699999999998  0.22402999999999995  0.25  1.0000
  Ni  Ni9       1.0  0.9740899999999999  0.44789  0.72413  1.0000
  Ni  Ni10      1.0  0.77587  0.052110000000000004  0.5259  1.0000
  Ni  Ni11      1.0  0.72402  0.75001  0.77598  1.0000
  Ni  Ni12      1.0  0.52605  0.75  0.97395  1.0000
  H   H1        1.0  0.38537999999999994  0.4772399999999999  0.86016  1.0000
  H   H2        1.0  0.15993999999999994  0.12329999999999994  0.69116  1.0000
  H   H3        1.0  0.18052  0.08302  0.73452  1.0000
  H   H4        1.0  0.21327  0.09291  0.68319  1.0000
  H   H5        1.0  0.35742999999999997  0.2126599999999999  0.85046  1.0000
  H   H6        1.0  0.31706  0.13321000000000002  0.78141  1.0000
  H   H7        1.0  0.2927699999999999  0.14564999999999997  0.84157  1.0000
  H   H8        1.0  0.16151  0.28963  0.61795  1.0000
  H   H9        1.0  0.11682  0.36499999999999994  0.60974  1.0000
  H   H10       1.0  0.14768000000000003  0.45983999999999997  0.7126800000000001  1.0000
  H   H11       1.0  0.22261999999999998  0.47592  0.82095  1.0000
  H   H12       1.0  0.2621  0.3957  0.81983  1.0000
  H   H13       1.0  0.33580999999999994  0.25236999999999987  0.77927  1.0000
  H   H14       1.0  0.11491999999999997  0.4749499999999999  0.59242  1.0000
  H   H15       1.0  0.33982000000000007  0.531  0.46326000000000006  1.0000
  H   H16       1.0  0.31931999999999994  0.55373  0.4023300000000001  1.0000
  H   H17       1.0  0.28618  0.4695499999999999  0.37943  1.0000
  H   H18       1.0  0.14247000000000004  0.49294  0.35533000000000003  1.0000
  H   H19       1.0  0.1824  0.46405  0.31594  1.0000
  H   H20       1.0  0.2069799999999999  0.54863  0.35276  1.0000
  H   H21       1.0  0.33842999999999984  0.4563399999999999  0.62816  1.0000
  H   H22       1.0  0.38327999999999995  0.49293  0.7483900000000001  1.0000
  H   H23       1.0  0.35265  0.56509  0.81242  1.0000
  H   H24       1.0  0.2778300000000001  0.5984500000000001  0.7535600000000001  1.0000
  H   H25       1.0  0.23821  0.5577499999999999  0.63371  1.0000
  H   H26       1.0  0.1642  0.44345  0.41666  1.0000
  H   H27       1.0  0.88279  0.02282  0.90801  1.0000
  H   H28       1.0  0.06786000000000005  0.3767700000000001  0.036840000000000005  1.0000
  H   H29       1.0  0.15172  0.41712999999999995  0.09765000000000001  1.0000
  H   H30       1.0  0.09064999999999997  0.4073499999999999  0.12074  1.0000
  H   H31       1.0  0.1376  0.28751  0.14476  1.0000
  H   H32       1.0  0.14834  0.36701  0.1841  1.0000
  H   H33       1.0  0.19604  0.35450999999999994  0.14738  1.0000
  H   H34       1.0  0.8281799999999999  0.21026000000000003  0.87186  1.0000
  H   H35       1.0  0.74456  0.13472000000000006  0.7515300000000001  1.0000
  H   H36       1.0  0.7527800000000001  0.040060000000000075  0.68761  1.0000
  H   H37       1.0  0.84503  0.02421000000000006  0.7466900000000001  1.0000
  H   H38       1.0  0.92415  0.10462000000000006  0.86665  1.0000
  H   H39       1.0  0.026859999999999978  0.24786999999999995  0.08345000000000001  1.0000
  H   H40       1.0  0.6171099999999999  0.025080000000000022  0.63978  1.0000
  H   H41       1.0  0.43221999999999994  0.96878  0.8086  1.0000
  H   H42       1.0  0.34847  0.9460499999999998  0.76529  1.0000
  H   H43       1.0  0.41000000000000003  0.030230000000000087  0.8166800000000001  1.0000
  H   H44       1.0  0.36232999999999993  0.006940000000000027  0.64953  1.0000
  H   H45       1.0  0.3520399999999999  0.03580000000000002  0.71853  1.0000
  H   H46       1.0  0.30394999999999994  0.9512399999999999  0.6582200000000001  1.0000
  H   H47       1.0  0.67188  0.04347999999999994  0.88197  1.0000
  H   H48       1.0  0.7554699999999999  0.006989999999999954  0.89018  1.0000
  H   H49       1.0  0.7472299999999997  0.9348499999999997  0.78726  1.0000
  H   H50       1.0  0.65497  0.9014999999999999  0.67898  1.0000
  H   H51       1.0  0.57587  0.9421199999999997  0.68007  1.0000
  H   H52       1.0  0.47318  0.05660000000000002  0.72084  1.0000
  H   H53       1.0  0.5250799999999999  0.13976999999999995  0.61711  1.0000
  H   H54       1.0  0.4687699999999999  0.30859  0.43222  1.0000
  H   H55       1.0  0.44603999999999994  0.26528999999999997  0.34848  1.0000
  H   H56       1.0  0.53023  0.31668  0.41000000000000003  1.0000
  H   H57       1.0  0.5069399999999998  0.14952999999999997  0.36232000000000003  1.0000
  H   H58       1.0  0.5357899999999999  0.21853  0.35204  1.0000
  H   H59       1.0  0.45123  0.15822  0.30396  1.0000
  H   H60       1.0  0.54347  0.38195999999999997  0.67188  1.0000
  H   H61       1.0  0.5069799999999999  0.3901800000000001  0.7554700000000001  1.0000
  H   H62       1.0  0.43484000000000006  0.28726  0.7472400000000001  1.0000
  H   H63       1.0  0.4014899999999999  0.17898  0.65498  1.0000
  H   H64       1.0  0.44211  0.18008  0.57588  1.0000
  H   H65       1.0  0.5565999999999999  0.22083999999999998  0.47318  1.0000
  H   H66       1.0  0.5228099999999999  0.408  0.88279  1.0000
  H   H67       1.0  0.8767599999999999  0.53684  0.06786  1.0000
  H   H68       1.0  0.9171399999999997  0.5976599999999999  0.15172  1.0000
  H   H69       1.0  0.9073399999999999  0.6207499999999999  0.09065  1.0000
  H   H70       1.0  0.7875  0.64477  0.13761  1.0000
  H   H71       1.0  0.8670099999999996  0.6840999999999999  0.14835  1.0000
  H   H72       1.0  0.8544999999999998  0.64738  0.19605  1.0000
  H   H73       1.0  0.71025  0.37186  0.82819  1.0000
  H   H74       1.0  0.63471  0.25152  0.74456  1.0000
  H   H75       1.0  0.54005  0.1876  0.75278  1.0000
  H   H76       1.0  0.5242  0.24668  0.84503  1.0000
  H   H77       1.0  0.60461  0.36664  0.92416  1.0000
  H   H78       1.0  0.74786  0.58346  0.02687  1.0000
  H   H79       1.0  0.9749399999999998  0.09241  0.11493  1.0000
  H   H80       1.0  0.03098999999999989  0.9632499999999998  0.33981000000000006  1.0000
  H   H81       1.0  0.053719999999999976  0.90232  0.31932  1.0000
  H   H82       1.0  0.9695399999999997  0.87942  0.28618  1.0000
  H   H83       1.0  0.9929400000000002  0.85533  0.14247  1.0000
  H   H84       1.0  0.9640399999999998  0.8159399999999999  0.18241  1.0000
  H   H85       1.0  0.04862999999999997  0.8527699999999999  0.20699  1.0000
  H   H86       1.0  0.9563399999999999  0.12815  0.33843  1.0000
  H   H87       1.0  0.9929099999999997  0.24837999999999996  0.38328  1.0000
  H   H88       1.0  0.06508  0.3124199999999999  0.3526500000000001  1.0000
  H   H89       1.0  0.09844999999999998  0.25355999999999995  0.27783  1.0000
  H   H90       1.0  0.05775  0.13372  0.23822  1.0000
  H   H91       1.0  0.94344  0.91667  0.16420000000000004  1.0000
  H   H92       1.0  0.97723  0.36016  0.38538  1.0000
  H   H93       1.0  0.6232999999999999  0.19114999999999996  0.15995  1.0000
  H   H94       1.0  0.58301  0.23450999999999997  0.18052  1.0000
  H   H95       1.0  0.5928999999999998  0.18318999999999996  0.21328000000000003  1.0000
  H   H96       1.0  0.71266  0.35045999999999994  0.35744  1.0000
  H   H97       1.0  0.6332099999999999  0.28141  0.31706  1.0000
  H   H98       1.0  0.64564  0.34156999999999993  0.29278  1.0000
  H   H99       1.0  0.78962  0.11795  0.16152  1.0000
  H   H100      1.0  0.8649899999999998  0.10973999999999999  0.11683  1.0000
  H   H101      1.0  0.9598299999999997  0.21267999999999998  0.14769  1.0000
  H   H102      1.0  0.97592  0.32095  0.22263000000000002  1.0000
  H   H103      1.0  0.8957  0.31983999999999996  0.2621  1.0000
  H   H104      1.0  0.7523599999999998  0.2792700000000001  0.33581000000000005  1.0000
  H   H105      1.0  0.90799  0.38279  0.52281  1.0000
  H   H106      1.0  0.036839999999999984  0.56786  0.87677  1.0000
  H   H107      1.0  0.09765999999999993  0.6517199999999997  0.91713  1.0000
  H   H108      1.0  0.12074000000000006  0.59065  0.9073500000000001  1.0000
  H   H109      1.0  0.1447700000000001  0.6376100000000001  0.7875100000000002  1.0000
  H   H110      1.0  0.18409999999999996  0.64835  0.86701  1.0000
  H   H111      1.0  0.14737999999999998  0.6960499999999998  0.85451  1.0000
  H   H112      1.0  0.8718499999999999  0.32819  0.71026  1.0000
  H   H113      1.0  0.7515199999999997  0.24456999999999995  0.63472  1.0000
  H   H114      1.0  0.6875900000000001  0.25278000000000006  0.5400600000000001  1.0000
  H   H115      1.0  0.7466799999999998  0.34502999999999995  0.5242  1.0000
  H   H116      1.0  0.8666299999999999  0.42416  0.6046200000000002  1.0000
  H   H117      1.0  0.08345999999999999  0.5268699999999998  0.7478700000000001  1.0000
  H   H118      1.0  0.6397599999999999  0.11711  0.52508  1.0000
  H   H119      1.0  0.8085899999999998  0.9322199999999998  0.46878  1.0000
  H   H120      1.0  0.7652799999999997  0.8484799999999999  0.44605000000000006  1.0000
  H   H121      1.0  0.8166699999999999  0.91001  0.53024  1.0000
  H   H122      1.0  0.6495199999999999  0.8623199999999999  0.50695  1.0000
  H   H123      1.0  0.71852  0.8520399999999999  0.5358100000000001  1.0000
  H   H124      1.0  0.6582099999999997  0.8039599999999999  0.45125  1.0000
  H   H125      1.0  0.8819599999999999  0.17189000000000004  0.5434800000000001  1.0000
  H   H126      1.0  0.89018  0.25548000000000004  0.5069900000000002  1.0000
  H   H127      1.0  0.78726  0.24724  0.43485000000000007  1.0000
  H   H128      1.0  0.6789699999999997  0.15498  0.40149  1.0000
  H   H129      1.0  0.68006  0.07588000000000003  0.44211000000000006  1.0000
  H   H130      1.0  0.7208299999999999  0.9731799999999996  0.55661  1.0000
  H   H131      1.0  0.86016  0.8853899999999998  0.9772500000000001  1.0000
  H   H132      1.0  0.69115  0.65996  0.62331  1.0000
  H   H133      1.0  0.7345199999999997  0.68053  0.58302  1.0000
  H   H134      1.0  0.68318  0.7132799999999999  0.5929  1.0000
  H   H135      1.0  0.85045  0.8574499999999999  0.7126600000000001  1.0000
  H   H136      1.0  0.7814  0.81708  0.63321  1.0000
  H   H137      1.0  0.8415599999999996  0.7927899999999998  0.6456500000000001  1.0000
  H   H138      1.0  0.6179399999999999  0.6615199999999999  0.7896300000000002  1.0000
  H   H139      1.0  0.6097199999999999  0.61683  0.86499  1.0000
  H   H140      1.0  0.7126699999999999  0.6476899999999999  0.95984  1.0000
  H   H141      1.0  0.8209399999999999  0.72263  0.97593  1.0000
  H   H142      1.0  0.8198299999999998  0.7621099999999997  0.8957100000000001  1.0000
  H   H143      1.0  0.77926  0.83582  0.7523700000000001  1.0000
  H   H144      1.0  0.5924199999999998  0.61493  0.9749500000000002  1.0000
  H   H145      1.0  0.46323999999999993  0.8398099999999998  0.03099  1.0000
  H   H146      1.0  0.40231  0.8192999999999999  0.053720000000000004  1.0000
  H   H147      1.0  0.3794099999999999  0.7861799999999999  0.9695500000000002  1.0000
  H   H148      1.0  0.35532000000000014  0.6424600000000001  0.9929400000000003  1.0000
  H   H149      1.0  0.31592  0.6823999999999999  0.96404  1.0000
  H   H150      1.0  0.3527600000000001  0.7069800000000002  0.04863000000000001  1.0000
  H   H151      1.0  0.62814  0.8384299999999998  0.95634  1.0000
  H   H152      1.0  0.7483700000000001  0.8832800000000001  0.9929300000000001  1.0000
  H   H153      1.0  0.81242  0.8526599999999998  0.06509  1.0000
  H   H154      1.0  0.7535599999999997  0.7778299999999998  0.09845000000000001  1.0000
  H   H155      1.0  0.6337099999999999  0.73821  0.05775000000000001  1.0000
  H   H156      1.0  0.4166599999999999  0.6642  0.9434500000000001  1.0000
  H   H157      1.0  0.3850699999999999  0.4075899999999999  0.52506  1.0000
  H   H158      1.0  0.16017999999999996  0.53675  0.46900000000000003  1.0000
  H   H159      1.0  0.18068000000000004  0.59768  0.44627000000000006  1.0000
  H   H160      1.0  0.21381999999999995  0.62058  0.53045  1.0000
  H   H161      1.0  0.35753  0.64467  0.50706  1.0000
  H   H162      1.0  0.31759  0.6840699999999998  0.53596  1.0000
  H   H163      1.0  0.29300999999999994  0.64724  0.4513700000000001  1.0000
  H   H164      1.0  0.16157  0.37183999999999995  0.54366  1.0000
  H   H165      1.0  0.11672  0.25162  0.50708  1.0000
  H   H166      1.0  0.14733999999999997  0.18757999999999994  0.43492  1.0000
  H   H167      1.0  0.22216999999999995  0.24644  0.4015500000000001  1.0000
  H   H168      1.0  0.26177999999999996  0.36629000000000006  0.44225000000000003  1.0000
  H   H169      1.0  0.33578999999999987  0.5833399999999999  0.55656  1.0000
  H   H170      1.0  0.11461000000000003  0.13984  0.52276  1.0000
  H   H171      1.0  0.34004999999999996  0.3088499999999999  0.8767  1.0000
  H   H172      1.0  0.31947999999999993  0.2654799999999999  0.91699  1.0000
  H   H173      1.0  0.28672000000000003  0.31681  0.9071000000000001  1.0000
  H   H174      1.0  0.14255999999999996  0.14954999999999993  0.78734  1.0000
  H   H175      1.0  0.18292999999999993  0.21858999999999998  0.86679  1.0000
  H   H176      1.0  0.20721999999999993  0.15843  0.85436  1.0000
  H   H177      1.0  0.33848000000000006  0.38205000000000006  0.7103700000000001  1.0000
  H   H178      1.0  0.38317  0.39027  0.63501  1.0000
  H   H179      1.0  0.3523099999999999  0.2873299999999999  0.54017  1.0000
  H   H180      1.0  0.27737  0.17906000000000002  0.5240800000000001  1.0000
  H   H181      1.0  0.23788999999999996  0.18016999999999997  0.6043  1.0000
  H   H182      1.0  0.16418999999999995  0.22072999999999995  0.74764  1.0000
  H   H183      1.0  0.8828799999999999  0.36022999999999994  0.97492  1.0000
  H   H184      1.0  0.06776999999999996  0.19139999999999993  0.03123  1.0000
  H   H185      1.0  0.15152  0.23470999999999997  0.053960000000000015  1.0000
  H   H186      1.0  0.08999000000000004  0.18333000000000008  0.96977  1.0000
  H   H187      1.0  0.13766999999999996  0.35047  0.99306  1.0000
  H   H188      1.0  0.14795000000000005  0.28147  0.9642000000000001  1.0000
  H   H189      1.0  0.19604  0.3417799999999999  0.04876  1.0000
  H   H190      1.0  0.82811  0.11803999999999999  0.95652  1.0000
  H   H191      1.0  0.7445199999999997  0.10981999999999997  0.99302  1.0000
  H   H192      1.0  0.75276  0.21274  0.06515  1.0000
  H   H193      1.0  0.84502  0.32102  0.0985  1.0000
  H   H194      1.0  0.92412  0.31992999999999994  0.05788000000000001  1.0000
  H   H195      1.0  0.02680999999999997  0.27915999999999996  0.9434  1.0000
  H   H196      1.0  0.6172000000000001  0.09200000000000007  0.9771800000000002  1.0000
  H   H197      1.0  0.43214  0.96317  0.62324  1.0000
  H   H198      1.0  0.34828  0.90235  0.5828700000000001  1.0000
  H   H199      1.0  0.4093399999999999  0.8792599999999999  0.59266  1.0000
  H   H200      1.0  0.36238999999999993  0.8552399999999999  0.7125  1.0000
  H   H201      1.0  0.3516499999999999  0.8159099999999998  0.63299  1.0000
  H   H202      1.0  0.3039499999999999  0.8526199999999998  0.6455  1.0000
  H   H203      1.0  0.6718099999999999  0.12813999999999992  0.78975  1.0000
  H   H204      1.0  0.75543  0.24848  0.86528  1.0000
  H   H205      1.0  0.7472099999999999  0.31239999999999996  0.95994  1.0000
  H   H206      1.0  0.6549599999999999  0.25331  0.97579  1.0000
  H   H207      1.0  0.57584  0.13336  0.8953800000000001  1.0000
  H   H208      1.0  0.47312999999999983  0.9165499999999999  0.75213  1.0000
  H   H209      1.0  0.52505  0.88508  0.90759  1.0000
  H   H210      1.0  0.46900999999999987  0.6601899999999999  0.036750000000000005  1.0000
  H   H211      1.0  0.44626999999999983  0.6806799999999998  0.09768  1.0000
  H   H212      1.0  0.53045  0.71382  0.12058000000000002  1.0000
  H   H213      1.0  0.50705  0.85753  0.14467  1.0000
  H   H214      1.0  0.53595  0.81759  0.18407  1.0000
  H   H215      1.0  0.45137  0.7930099999999999  0.14723  1.0000
  H   H216      1.0  0.5436499999999999  0.6615799999999998  0.8718500000000001  1.0000
  H   H217      1.0  0.50707  0.6167299999999999  0.75162  1.0000
  H   H218      1.0  0.43490999999999996  0.6473600000000002  0.6875800000000001  1.0000
  H   H219      1.0  0.40154  0.72217  0.74644  1.0000
  H   H220      1.0  0.4422399999999999  0.76179  0.86629  1.0000
  H   H221      1.0  0.5565499999999999  0.8357999999999999  0.08334  1.0000
  H   H222      1.0  0.52276  0.61462  0.63985  1.0000
  H   H223      1.0  0.87669  0.84005  0.80885  1.0000
  H   H224      1.0  0.9169799999999999  0.81948  0.7654900000000001  1.0000
  H   H225      1.0  0.90709  0.7867299999999998  0.81682  1.0000
  H   H226      1.0  0.7873299999999996  0.64257  0.64955  1.0000
  H   H227      1.0  0.86678  0.68294  0.7186  1.0000
  H   H228      1.0  0.8543499999999998  0.7072299999999998  0.65844  1.0000
  H   H229      1.0  0.71037  0.8384899999999998  0.8820500000000001  1.0000
  H   H230      1.0  0.6349999999999999  0.8831699999999999  0.8902700000000001  1.0000
  H   H231      1.0  0.54015  0.85232  0.7873200000000001  1.0000
  H   H232      1.0  0.5240699999999999  0.7773799999999998  0.6790600000000001  1.0000
  H   H233      1.0  0.60429  0.7379  0.68017  1.0000
  H   H234      1.0  0.74763  0.6641899999999997  0.7207300000000001  1.0000
  H   H235      1.0  0.9749099999999998  0.38288999999999995  0.86023  1.0000
  H   H236      1.0  0.031220000000000026  0.56778  0.69141  1.0000
  H   H237      1.0  0.053950000000000005  0.65152  0.7347100000000001  1.0000
  H   H238      1.0  0.96976  0.5900000000000001  0.68332  1.0000
  H   H239      1.0  0.9930499999999999  0.63768  0.85047  1.0000
  H   H240      1.0  0.9642  0.6479599999999999  0.7814700000000001  1.0000
  H   H241      1.0  0.048760000000000005  0.69604  0.84178  1.0000
  H   H242      1.0  0.9565199999999998  0.32811999999999997  0.61804  1.0000
  H   H243      1.0  0.99301  0.24452999999999994  0.60982  1.0000
  H   H244      1.0  0.06515000000000003  0.25275999999999993  0.7127400000000002  1.0000
  H   H245      1.0  0.09850000000000006  0.34502  0.82102  1.0000
  H   H246      1.0  0.05788000000000009  0.42412000000000005  0.8199300000000002  1.0000
  H   H247      1.0  0.94339  0.52682  0.77917  1.0000
  H   H248      1.0  0.97718  0.11721000000000005  0.5920000000000001  1.0000
  H   H249      1.0  0.6232299999999998  0.93214  0.46316  1.0000
  H   H250      1.0  0.5828499999999999  0.84828  0.40234000000000003  1.0000
  H   H251      1.0  0.5926499999999998  0.9093499999999998  0.37925  1.0000
  H   H252      1.0  0.71248  0.8624  0.35523  1.0000
  H   H253      1.0  0.63298  0.8516599999999999  0.3159  1.0000
  H   H254      1.0  0.6454899999999999  0.8039599999999999  0.35262  1.0000
  H   H255      1.0  0.78974  0.17180999999999996  0.62814  1.0000
  H   H256      1.0  0.8652799999999999  0.25544  0.74848  1.0000
  H   H257      1.0  0.9599399999999999  0.24721999999999994  0.8124000000000001  1.0000
  H   H258      1.0  0.97579  0.15498  0.75332  1.0000
  H   H259      1.0  0.8953799999999998  0.07585000000000004  0.6333700000000001  1.0000
  H   H260      1.0  0.7521199999999998  0.97314  0.41654  1.0000
  H   H261      1.0  0.9075700000000002  0.02505000000000007  0.3850700000000001  1.0000
  H   H262      1.0  0.03674999999999998  0.9690099999999999  0.16019  1.0000
  H   H263      1.0  0.0976799999999999  0.9462799999999998  0.1807  1.0000
  H   H264      1.0  0.12058  0.03045000000000002  0.21383  1.0000
  H   H265      1.0  0.14467  0.007060000000000001  0.35754  1.0000
  H   H266      1.0  0.18406999999999998  0.03596999999999998  0.31761  1.0000
  H   H267      1.0  0.14722999999999997  0.9513699999999998  0.29302000000000006  1.0000
  H   H268      1.0  0.87185  0.04366  0.16158  1.0000
  H   H269      1.0  0.75162  0.007080000000000009  0.11672000000000002  1.0000
  H   H270      1.0  0.6875699999999999  0.9349099999999998  0.14735  1.0000
  H   H271      1.0  0.7464299999999999  0.9015499999999999  0.22217000000000003  1.0000
  H   H272      1.0  0.8662799999999998  0.94225  0.26179  1.0000
  H   H273      1.0  0.08334000000000001  0.05656000000000002  0.33580000000000004  1.0000
  H   H274      1.0  0.63983  0.02276  0.11461  1.0000
  H   H275      1.0  0.8088399999999997  0.3767  0.34004  1.0000
  H   H276      1.0  0.7654799999999999  0.41698  0.31947  1.0000
  H   H277      1.0  0.81681  0.4071  0.28673000000000004  1.0000
  H   H278      1.0  0.64954  0.28734  0.14256  1.0000
  H   H279      1.0  0.7185899999999998  0.36679  0.18293  1.0000
  H   H280      1.0  0.65843  0.35434999999999994  0.20722  1.0000
  H   H281      1.0  0.8820499999999998  0.21038  0.33848  1.0000
  H   H282      1.0  0.89026  0.13501000000000002  0.3831800000000001  1.0000
  H   H283      1.0  0.7873199999999999  0.04016000000000002  0.35231  1.0000
  H   H284      1.0  0.6790499999999999  0.024070000000000005  0.27737  1.0000
  H   H285      1.0  0.68016  0.10429  0.23789000000000002  1.0000
  H   H286      1.0  0.7207299999999998  0.24764  0.16419  1.0000
  H   H287      1.0  0.8602299999999999  0.4749199999999999  0.88289  1.0000
  H   H288      1.0  0.6913999999999999  0.5312199999999998  0.06778  1.0000
  H   H289      1.0  0.73471  0.5539499999999999  0.15152  1.0000
  H   H290      1.0  0.6833199999999998  0.4697599999999999  0.09  1.0000
  H   H291      1.0  0.85047  0.49305999999999994  0.13768  1.0000
  H   H292      1.0  0.7814599999999999  0.4641899999999999  0.14796  1.0000
  H   H293      1.0  0.84178  0.5487599999999999  0.19604  1.0000
  H   H294      1.0  0.6180299999999999  0.45651999999999987  0.82812  1.0000
  H   H295      1.0  0.6098099999999997  0.49302  0.74453  1.0000
  H   H296      1.0  0.7127299999999999  0.5651599999999999  0.75276  1.0000
  H   H297      1.0  0.82102  0.59851  0.84502  1.0000
  H   H298      1.0  0.81993  0.55789  0.92412  1.0000
  H   H299      1.0  0.7791599999999997  0.4433999999999999  0.026820000000000007  1.0000
  H   H300      1.0  0.5919999999999999  0.47718999999999995  0.61721  1.0000
  H   H301      1.0  0.4631499999999999  0.12323999999999996  0.43214  1.0000
  H   H302      1.0  0.40234  0.08286999999999997  0.34828  1.0000
  H   H303      1.0  0.37925  0.09266000000000005  0.40935000000000005  1.0000
  H   H304      1.0  0.35522  0.21248999999999996  0.36239  1.0000
  H   H305      1.0  0.31589  0.13298999999999997  0.35166  1.0000
  H   H306      1.0  0.3526099999999999  0.14548999999999998  0.30395  1.0000
  H   H307      1.0  0.62814  0.28975  0.67181  1.0000
  H   H308      1.0  0.74847  0.36528  0.75543  1.0000
  H   H309      1.0  0.8124  0.45995  0.7472200000000001  1.0000
  H   H310      1.0  0.75331  0.4757999999999999  0.65498  1.0000
  H   H311      1.0  0.6333599999999998  0.39539  0.57585  1.0000
  H   H312      1.0  0.4165399999999999  0.25214  0.47313000000000005  1.0000
  C   C1        1.0  0.3925199999999999  0.36596999999999996  0.82639  1.0000
  C   C2        1.0  0.4482799999999999  0.43519999999999986  0.8665900000000001  1.0000
  C   C3        1.0  0.4356199999999999  0.48722999999999994  0.8796700000000001  1.0000
  C   C4        1.0  0.2595499999999999  0.18124  0.77527  1.0000
  C   C5        1.0  0.19932000000000005  0.11623999999999993  0.71753  1.0000
  C   C6        1.0  0.30982  0.16772  0.81501  1.0000
  C   C7        1.0  0.17346999999999999  0.33171  0.6612  1.0000
  C   C8        1.0  0.14924  0.37374  0.65727  1.0000
  C   C9        1.0  0.16657  0.42672  0.71493  1.0000
  C   C10       1.0  0.20771  0.4353899999999999  0.7746600000000001  1.0000
  C   C11       1.0  0.22983  0.3912  0.77479  1.0000
  C   C12       1.0  0.10764999999999995  0.4339999999999999  0.47381  1.0000
  C   C13       1.0  0.05196000000000002  0.41849  0.48727000000000004  1.0000
  C   C14       1.0  0.06468999999999993  0.4441999999999999  0.55203  1.0000
  C   C15       1.0  0.24033999999999986  0.5156399999999999  0.42164000000000007  1.0000
  C   C16       1.0  0.30040999999999995  0.518  0.41679000000000005  1.0000
  C   C17       1.0  0.18992999999999993  0.5050199999999999  0.3578200000000001  1.0000
  C   C18       1.0  0.32662  0.48772  0.65836  1.0000
  C   C19       1.0  0.35091  0.5080400000000002  0.7246800000000001  1.0000
  C   C20       1.0  0.33372  0.54844  0.76038  1.0000
  C   C21       1.0  0.29265  0.56705  0.72791  1.0000
  C   C22       1.0  0.27047  0.54502  0.66152  1.0000
  C   C23       1.0  0.9603999999999998  0.13428  0.026650000000000007  1.0000
  C   C24       1.0  0.9314099999999997  0.06507  0.013120000000000001  1.0000
  C   C25       1.0  0.8924  0.012970000000000037  0.9483200000000002  1.0000
  C   C26       1.0  0.09408999999999997  0.3189699999999999  0.07843  1.0000
  C   C27       1.0  0.10146  0.38394  0.08329  1.0000
  C   C28       1.0  0.14732999999999993  0.33248  0.14226  1.0000
  C   C29       1.0  0.8293499999999999  0.16821  0.8417000000000001  1.0000
  C   C30       1.0  0.7833899999999998  0.12610999999999994  0.77532  1.0000
  C   C31       1.0  0.78815  0.07322  0.7397  1.0000
  C   C32       1.0  0.8392399999999997  0.06468999999999994  0.77229  1.0000
  C   C33       1.0  0.88356  0.10895999999999999  0.8387300000000001  1.0000
  C   C34       1.0  0.5396900000000001  0.06608000000000004  0.6736200000000001  1.0000
  C   C35       1.0  0.5685799999999999  0.08152000000000001  0.63336  1.0000
  C   C36       1.0  0.6075299999999999  0.055780000000000024  0.6203  1.0000
  C   C37       1.0  0.40599  0.98425  0.72461  1.0000
  C   C38       1.0  0.39877999999999997  0.9818099999999997  0.78229  1.0000
  C   C39       1.0  0.35275999999999996  0.99482  0.68489  1.0000
  C   C40       1.0  0.67066  0.012160000000000025  0.83871  1.0000
  C   C41       1.0  0.7166099999999997  0.9918499999999999  0.8426600000000001  1.0000
  C   C42       1.0  0.71185  0.9514699999999998  0.78499  1.0000
  C   C43       1.0  0.66075  0.9328700000000001  0.7252600000000001  1.0000
  C   C44       1.0  0.61643  0.9548899999999999  0.72512  1.0000
  C   C45       1.0  0.5660799999999998  0.17361  0.5397  1.0000
  C   C46       1.0  0.58151  0.13336  0.56857  1.0000
  C   C47       1.0  0.55577  0.12030000000000002  0.60753  1.0000
  C   C48       1.0  0.4842399999999999  0.22461  0.406  1.0000
  C   C49       1.0  0.48180000000000006  0.28229  0.39879000000000003  1.0000
  C   C50       1.0  0.49480999999999997  0.18489  0.35276  1.0000
  C   C51       1.0  0.51215  0.33871999999999997  0.67067  1.0000
  C   C52       1.0  0.4918399999999999  0.3426599999999999  0.71662  1.0000
  C   C53       1.0  0.45146  0.2849899999999999  0.71186  1.0000
  C   C54       1.0  0.43285999999999997  0.22525999999999996  0.6607500000000001  1.0000
  C   C55       1.0  0.45488  0.22512000000000001  0.61644  1.0000
  C   C56       1.0  0.63427  0.5266599999999999  0.96041  1.0000
  C   C57       1.0  0.56507  0.5131299999999999  0.9314200000000001  1.0000
  C   C58       1.0  0.51296  0.44831  0.89241  1.0000
  C   C59       1.0  0.8189599999999998  0.57843  0.09409  1.0000
  C   C60       1.0  0.88393  0.5833  0.10146000000000002  1.0000
  C   C61       1.0  0.8324799999999998  0.64227  0.14733  1.0000
  C   C62       1.0  0.6682  0.3416999999999999  0.82935  1.0000
  C   C63       1.0  0.6261  0.27532  0.78339  1.0000
  C   C64       1.0  0.57321  0.23968999999999996  0.7881500000000001  1.0000
  C   C65       1.0  0.56468  0.27227999999999997  0.8392500000000002  1.0000
  C   C66       1.0  0.60895  0.33871999999999997  0.88357  1.0000
  C   C67       1.0  0.9339899999999999  0.97381  0.10765  1.0000
  C   C68       1.0  0.91848  0.9872699999999999  0.05196  1.0000
  C   C69       1.0  0.9441999999999999  0.05203  0.0647  1.0000
  C   C70       1.0  0.015629999999999974  0.9216399999999999  0.24034000000000003  1.0000
  C   C71       1.0  0.01798999999999998  0.9167799999999998  0.30041  1.0000
  C   C72       1.0  0.005009999999999985  0.85783  0.18994  1.0000
  C   C73       1.0  0.9877099999999998  0.15835  0.32663  1.0000
  C   C74       1.0  0.00803999999999998  0.22466999999999998  0.35092  1.0000
  C   C75       1.0  0.04843999999999998  0.26037  0.33373  1.0000
  C   C76       1.0  0.06705  0.2279  0.29265  1.0000
  C   C77       1.0  0.04502  0.16152  0.27048  1.0000
  C   C78       1.0  0.8659699999999998  0.32638999999999996  0.39253  1.0000
  C   C79       1.0  0.9352  0.36659  0.4482900000000001  1.0000
  C   C80       1.0  0.9872299999999998  0.37966999999999995  0.43562000000000006  1.0000
  C   C81       1.0  0.68123  0.27527  0.25956  1.0000
  C   C82       1.0  0.6162299999999999  0.21751999999999994  0.19932  1.0000
  C   C83       1.0  0.66772  0.31500999999999996  0.30983000000000005  1.0000
  C   C84       1.0  0.83171  0.16119999999999998  0.17347  1.0000
  C   C85       1.0  0.87374  0.15726999999999997  0.14925  1.0000
  C   C86       1.0  0.9267199999999999  0.21492999999999998  0.16657  1.0000
  C   C87       1.0  0.93539  0.27465999999999996  0.20771  1.0000
  C   C88       1.0  0.89119  0.2748  0.22983000000000006  1.0000
  C   C89       1.0  0.026650000000000038  0.4604  0.6342700000000001  1.0000
  C   C90       1.0  0.013129999999999975  0.4314199999999999  0.56508  1.0000
  C   C91       1.0  0.9483  0.39241  0.51297  1.0000
  C   C92       1.0  0.07843000000000003  0.5940899999999999  0.8189600000000001  1.0000
  C   C93       1.0  0.08328999999999999  0.60146  0.88394  1.0000
  C   C94       1.0  0.14227000000000004  0.64734  0.83249  1.0000
  C   C95       1.0  0.84169  0.32935  0.6682100000000001  1.0000
  C   C96       1.0  0.7753099999999998  0.2834  0.62611  1.0000
  C   C97       1.0  0.73969  0.28815  0.57321  1.0000
  C   C98       1.0  0.7722799999999997  0.33924999999999994  0.56468  1.0000
  C   C99       1.0  0.8387199999999999  0.38357  0.60895  1.0000
  C   C100      1.0  0.6736099999999999  0.039700000000000006  0.56609  1.0000
  C   C101      1.0  0.63335  0.06857000000000002  0.58152  1.0000
  C   C102      1.0  0.62029  0.10753999999999994  0.55578  1.0000
  C   C103      1.0  0.7245999999999998  0.906  0.48425000000000007  1.0000
  C   C104      1.0  0.7822799999999999  0.89879  0.48181  1.0000
  C   C105      1.0  0.6848799999999999  0.8527699999999999  0.49483  1.0000
  C   C106      1.0  0.83871  0.17067000000000002  0.51216  1.0000
  C   C107      1.0  0.84265  0.21661999999999998  0.49185000000000006  1.0000
  C   C108      1.0  0.7849799999999999  0.21185999999999994  0.45146  1.0000
  C   C109      1.0  0.72525  0.16075  0.43286  1.0000
  C   C110      1.0  0.7251099999999998  0.11644000000000003  0.45488000000000006  1.0000
  C   C111      1.0  0.8263799999999999  0.8925300000000002  0.8659800000000001  1.0000
  C   C112      1.0  0.8665800000000001  0.9483000000000001  0.9352000000000001  1.0000
  C   C113      1.0  0.87966  0.93563  0.9872400000000002  1.0000
  C   C114      1.0  0.77527  0.7595699999999999  0.68124  1.0000
  C   C115      1.0  0.71752  0.69933  0.61624  1.0000
  C   C116      1.0  0.8150000000000001  0.80984  0.66772  1.0000
  C   C117      1.0  0.66119  0.6734699999999998  0.8317100000000001  1.0000
  C   C118      1.0  0.65726  0.6492499999999998  0.87374  1.0000
  C   C119      1.0  0.7149199999999999  0.6665699999999999  0.92672  1.0000
  C   C120      1.0  0.7746599999999997  0.7077099999999998  0.9354  1.0000
  C   C121      1.0  0.77479  0.7298399999999999  0.8912000000000001  1.0000
  C   C122      1.0  0.47381  0.6076499999999999  0.934  1.0000
  C   C123      1.0  0.4872600000000001  0.55196  0.9184900000000001  1.0000
  C   C124      1.0  0.55203  0.5647  0.9442100000000001  1.0000
  C   C125      1.0  0.42162999999999995  0.74034  0.015630000000000005  1.0000
  C   C126      1.0  0.41677999999999993  0.8004099999999998  0.01799  1.0000
  C   C127      1.0  0.3578099999999999  0.6899299999999999  0.005020000000000001  1.0000
  C   C128      1.0  0.6583400000000001  0.82663  0.98772  1.0000
  C   C129      1.0  0.72467  0.8509199999999999  0.00804  1.0000
  C   C130      1.0  0.76037  0.8337299999999997  0.04844  1.0000
  C   C131      1.0  0.72789  0.79265  0.06705  1.0000
  C   C132      1.0  0.6615099999999998  0.77047  0.04503  1.0000
  C   C133      1.0  0.39233999999999986  0.5261899999999999  0.5660000000000001  1.0000
  C   C134      1.0  0.44803  0.51273  0.58151  1.0000
  C   C135      1.0  0.4353  0.44797  0.5558  1.0000
  C   C136      1.0  0.2596499999999998  0.5783599999999999  0.48437  1.0000
  C   C137      1.0  0.19957999999999995  0.58322  0.482  1.0000
  C   C138      1.0  0.3100599999999999  0.6421799999999999  0.49498000000000003  1.0000
  C   C139      1.0  0.17336999999999994  0.34164999999999995  0.51228  1.0000
  C   C140      1.0  0.14908000000000002  0.27532  0.49196000000000006  1.0000
  C   C141      1.0  0.16626999999999997  0.23961999999999997  0.45156  1.0000
  C   C142      1.0  0.20733999999999994  0.2721  0.43295  1.0000
  C   C143      1.0  0.22952  0.33848  0.45498  1.0000
  C   C144      1.0  0.10748  0.17361  0.63403  1.0000
  C   C145      1.0  0.05171  0.13341  0.5648  1.0000
  C   C146      1.0  0.06438000000000005  0.12034  0.51277  1.0000
  C   C147      1.0  0.24044000000000004  0.22473  0.8187700000000001  1.0000
  C   C148      1.0  0.30068  0.28248  0.88376  1.0000
  C   C149      1.0  0.19016999999999995  0.18499  0.83228  1.0000
  C   C150      1.0  0.3265199999999999  0.3388  0.66829  1.0000
  C   C151      1.0  0.3507499999999999  0.34273999999999993  0.6262600000000001  1.0000
  C   C152      1.0  0.3334299999999999  0.28507  0.57328  1.0000
  C   C153      1.0  0.29228999999999994  0.22533999999999998  0.56461  1.0000
  C   C154      1.0  0.27016  0.22521000000000002  0.6088100000000001  1.0000
  C   C155      1.0  0.96029  0.32638999999999996  0.93393  1.0000
  C   C156      1.0  0.9314099999999997  0.36664  0.9184800000000001  1.0000
  C   C157      1.0  0.89246  0.37971  0.94422  1.0000
  C   C158      1.0  0.09399999999999997  0.27539  0.01575  1.0000
  C   C159      1.0  0.10120999999999997  0.21770999999999996  0.0182  1.0000
  C   C160      1.0  0.14722999999999997  0.31512  0.005180000000000001  1.0000
  C   C161      1.0  0.8293299999999998  0.16129000000000004  0.9878500000000001  1.0000
  C   C162      1.0  0.78338  0.15734999999999996  0.00816  1.0000
  C   C163      1.0  0.7881399999999997  0.21500999999999998  0.04854000000000001  1.0000
  C   C164      1.0  0.8392399999999998  0.27474  0.06714  1.0000
  C   C165      1.0  0.88356  0.27489  0.04512  1.0000
  C   C166      1.0  0.53959  0.9733500000000002  0.8657300000000001  1.0000
  C   C167      1.0  0.5685799999999999  0.98688  0.93493  1.0000
  C   C168      1.0  0.6075899999999999  0.05168999999999998  0.98704  1.0000
  C   C169      1.0  0.40591  0.92157  0.6810400000000001  1.0000
  C   C170      1.0  0.39854  0.9167099999999999  0.61607  1.0000
  C   C171      1.0  0.35265999999999986  0.8577399999999998  0.66752  1.0000
  C   C172      1.0  0.6706399999999999  0.15830000000000005  0.8317900000000001  1.0000
  C   C173      1.0  0.7166  0.22469000000000003  0.87389  1.0000
  C   C174      1.0  0.7118400000000001  0.26031000000000004  0.9267800000000002  1.0000
  C   C175      1.0  0.6607500000000001  0.2277200000000001  0.9353200000000003  1.0000
  C   C176      1.0  0.61643  0.16127  0.89105  1.0000
  C   C177      1.0  0.5659999999999998  0.89235  0.02619  1.0000
  C   C178      1.0  0.5815099999999997  0.9480399999999998  0.01274  1.0000
  C   C179      1.0  0.55579  0.9353  0.94797  1.0000
  C   C180      1.0  0.4843599999999999  0.7596599999999999  0.07836  1.0000
  C   C181      1.0  0.48199999999999993  0.69959  0.08322  1.0000
  C   C182      1.0  0.4949799999999999  0.81006  0.14218  1.0000
  C   C183      1.0  0.51227  0.67337  0.84165  1.0000
  C   C184      1.0  0.49194999999999983  0.6490899999999998  0.77533  1.0000
  C   C185      1.0  0.45154999999999995  0.66628  0.73963  1.0000
  C   C186      1.0  0.43293999999999994  0.7073499999999999  0.7721000000000001  1.0000
  C   C187      1.0  0.4549599999999999  0.7295299999999998  0.83849  1.0000
  C   C188      1.0  0.63402  0.60748  0.67361  1.0000
  C   C189      1.0  0.5647900000000001  0.55171  0.6334100000000001  1.0000
  C   C190      1.0  0.51276  0.56438  0.62034  1.0000
  C   C191      1.0  0.81876  0.7404500000000002  0.7247300000000001  1.0000
  C   C192      1.0  0.8837599999999999  0.80068  0.78248  1.0000
  C   C193      1.0  0.8322699999999997  0.69018  0.68499  1.0000
  C   C194      1.0  0.66828  0.82653  0.8388  1.0000
  C   C195      1.0  0.62625  0.8507599999999998  0.8427400000000002  1.0000
  C   C196      1.0  0.5732699999999998  0.8334299999999999  0.78507  1.0000
  C   C197      1.0  0.5645999999999999  0.7922999999999999  0.72534  1.0000
  C   C198      1.0  0.6088  0.7701699999999999  0.72521  1.0000
  C   C199      1.0  0.93391  0.4603  0.82639  1.0000
  C   C200      1.0  0.91848  0.43144  0.86665  1.0000
  C   C201      1.0  0.94422  0.39246999999999993  0.8797  1.0000
  C   C202      1.0  0.01575000000000002  0.594  0.7754  1.0000
  C   C203      1.0  0.018190000000000046  0.60122  0.71772  1.0000
  C   C204      1.0  0.0051700000000000235  0.64724  0.81511  1.0000
  C   C205      1.0  0.98784  0.32932999999999996  0.66129  1.0000
  C   C206      1.0  0.008150000000000029  0.28337999999999997  0.6573500000000001  1.0000
  C   C207      1.0  0.04853000000000008  0.28814000000000006  0.7150200000000001  1.0000
  C   C208      1.0  0.06712999999999997  0.33924999999999994  0.77474  1.0000
  C   C209      1.0  0.04511999999999997  0.38355999999999996  0.7748900000000001  1.0000
  C   C210      1.0  0.86572  0.0396  0.47334  1.0000
  C   C211      1.0  0.9349199999999999  0.06858000000000009  0.4868800000000001  1.0000
  C   C212      1.0  0.98703  0.10759999999999995  0.55169  1.0000
  C   C213      1.0  0.68103  0.90591  0.42157000000000006  1.0000
  C   C214      1.0  0.61606  0.89854  0.41671  1.0000
  C   C215      1.0  0.66751  0.85267  0.35774  1.0000
  C   C216      1.0  0.8317899999999998  0.17066  0.65831  1.0000
  C   C217      1.0  0.87389  0.21661000000000002  0.7246900000000001  1.0000
  C   C218      1.0  0.9267799999999998  0.21184999999999996  0.76031  1.0000
  C   C219      1.0  0.9353099999999999  0.16075  0.72772  1.0000
  C   C220      1.0  0.89104  0.11642999999999999  0.66128  1.0000
  C   C221      1.0  0.026189999999999998  0.066  0.39235  1.0000
  C   C222      1.0  0.012729999999999974  0.08150999999999999  0.44804  1.0000
  C   C223      1.0  0.9479599999999998  0.05580000000000003  0.4353000000000001  1.0000
  C   C224      1.0  0.07835999999999996  0.98438  0.25967  1.0000
  C   C225      1.0  0.08321999999999993  0.98201  0.1996  1.0000
  C   C226      1.0  0.14217999999999992  0.9949899999999999  0.31007  1.0000
  C   C227      1.0  0.84165  0.012280000000000008  0.17337  1.0000
  C   C228      1.0  0.77532  0.9919599999999997  0.14909  1.0000
  C   C229      1.0  0.7396199999999998  0.9515599999999999  0.16627000000000003  1.0000
  C   C230      1.0  0.7720899999999999  0.9329499999999998  0.20735  1.0000
  C   C231      1.0  0.83848  0.95497  0.22953000000000004  1.0000
  C   C232      1.0  0.6736099999999999  0.13402999999999998  0.10747  1.0000
  C   C233      1.0  0.6334099999999999  0.0648  0.05171  1.0000
  C   C234      1.0  0.62033  0.012760000000000006  0.06437000000000001  1.0000
  C   C235      1.0  0.7247300000000001  0.31875999999999993  0.24044000000000004  1.0000
  C   C236      1.0  0.7824699999999997  0.3837599999999999  0.30067  1.0000
  C   C237      1.0  0.68499  0.33228  0.19017000000000003  1.0000
  C   C238      1.0  0.8388  0.16829  0.32653000000000004  1.0000
  C   C239      1.0  0.8427299999999998  0.12626  0.35076  1.0000
  C   C240      1.0  0.7850699999999999  0.07328  0.33343  1.0000
  C   C241      1.0  0.72533  0.06461000000000003  0.29229000000000005  1.0000
  C   C242      1.0  0.7251999999999998  0.10879999999999997  0.27016  1.0000
  C   C243      1.0  0.8263799999999998  0.43391  0.9603  1.0000
  C   C244      1.0  0.86664  0.41849  0.93143  1.0000
  C   C245      1.0  0.8796999999999999  0.44422  0.89246  1.0000
  C   C246      1.0  0.77539  0.5157499999999999  0.094  1.0000
  C   C247      1.0  0.71771  0.51819  0.10121  1.0000
  C   C248      1.0  0.8151099999999999  0.50517  0.14724  1.0000
  C   C249      1.0  0.66128  0.48785  0.82934  1.0000
  C   C250      1.0  0.65734  0.5081600000000001  0.78338  1.0000
  C   C251      1.0  0.715  0.54854  0.7881400000000001  1.0000
  C   C252      1.0  0.7747399999999999  0.56715  0.8392500000000002  1.0000
  C   C253      1.0  0.77488  0.54513  0.8835600000000001  1.0000
  C   C254      1.0  0.47334  0.36573  0.5396  1.0000
  C   C255      1.0  0.48686999999999986  0.4349299999999999  0.5685800000000001  1.0000
  C   C256      1.0  0.55169  0.4870399999999999  0.6076  1.0000
  C   C257      1.0  0.4215599999999999  0.18103999999999998  0.40592  1.0000
  C   C258      1.0  0.4167  0.11607000000000003  0.39854000000000006  1.0000
  C   C259      1.0  0.35773  0.16751999999999995  0.35267  1.0000
  C   C260      1.0  0.6582999999999998  0.3317899999999999  0.67065  1.0000
  C   C261      1.0  0.72468  0.3739  0.71661  1.0000
  C   C262      1.0  0.7603000000000001  0.42679000000000006  0.7118500000000001  1.0000
  C   C263      1.0  0.72771  0.43532  0.66076  1.0000
  C   C264      1.0  0.6612699999999998  0.39105  0.61643  1.0000
  N   N1        1.0  0.21309000000000008  0.34006000000000003  0.7189500000000001  1.0000
  N   N2        1.0  0.28709999999999997  0.5058899999999998  0.6270800000000001  1.0000
  N   N3        1.0  0.8787699999999999  0.15999  0.87307  1.0000
  N   N4        1.0  0.62122  0.99402  0.78096  1.0000
  N   N5        1.0  0.49401  0.28096  0.62121  1.0000
  N   N6        1.0  0.66  0.3730899999999999  0.87879  1.0000
  N   N7        1.0  0.00588999999999999  0.12708  0.2871  1.0000
  N   N8        1.0  0.8400499999999999  0.21894999999999998  0.21309000000000003  1.0000
  N   N9        1.0  0.87308  0.37878999999999996  0.66  1.0000
  N   N10       1.0  0.7809499999999999  0.12120999999999998  0.49401000000000006  1.0000
  N   N11       1.0  0.7189499999999999  0.7130999999999997  0.84006  1.0000
  N   N12       1.0  0.6270699999999999  0.7871  0.00589  1.0000
  N   N13       1.0  0.2129  0.37292  0.49412000000000006  1.0000
  N   N14       1.0  0.28690999999999994  0.28104999999999997  0.65994  1.0000
  N   N15       1.0  0.8787699999999999  0.21903999999999996  0.00599  1.0000
  N   N16       1.0  0.62122  0.1269299999999999  0.84002  1.0000
  N   N17       1.0  0.4941099999999999  0.7128999999999999  0.8729300000000001  1.0000
  N   N18       1.0  0.65994  0.78691  0.78105  1.0000
  N   N19       1.0  0.005980000000000077  0.37879000000000007  0.7190400000000001  1.0000
  N   N20       1.0  0.8399899999999998  0.12121999999999998  0.62692  1.0000
  N   N21       1.0  0.8729199999999999  0.99411  0.21290000000000003  1.0000
  N   N22       1.0  0.78104  0.15994  0.28691  1.0000
  N   N23       1.0  0.7190399999999999  0.50599  0.87879  1.0000
  N   N24       1.0  0.6269099999999999  0.33999999999999997  0.62121  1.0000
  O   O1        1.0  0.3355099999999999  0.3598599999999999  0.80205  1.0000
  O   O2        1.0  0.40447000000000005  0.31933000000000006  0.8195300000000001  1.0000
  O   O3        1.0  0.28859  0.21516  0.74627  1.0000
  O   O4        1.0  0.16472999999999996  0.4666999999999999  0.52474  1.0000
  O   O5        1.0  0.09556999999999997  0.4151799999999999  0.41515  1.0000
  O   O6        1.0  0.21131  0.45758  0.42657  1.0000
  O   O7        1.0  0.9419799999999998  0.14024  0.9757300000000001  1.0000
  O   O8        1.0  0.0003999999999999883  0.18104  0.08533  1.0000
  O   O9        1.0  0.03109000000000001  0.28502999999999995  0.07348  1.0000
  O   O10       1.0  0.55794  0.0334700000000001  0.6979300000000002  1.0000
  O   O11       1.0  0.49993  0.08489  0.68051  1.0000
  O   O12       1.0  0.46904999999999997  0.04237999999999994  0.75376  1.0000
  O   O13       1.0  0.53346  0.19793999999999995  0.55795  1.0000
  O   O14       1.0  0.5848899999999999  0.18051  0.49993  1.0000
  O   O15       1.0  0.54237  0.25376000000000004  0.46906000000000003  1.0000
  O   O16       1.0  0.6402500000000001  0.47572000000000003  0.9419800000000002  1.0000
  O   O17       1.0  0.6810399999999998  0.58533  0.0004  1.0000
  O   O18       1.0  0.7850199999999997  0.5734699999999999  0.03108  1.0000
  O   O19       1.0  0.9666999999999999  0.024740000000000005  0.16473  1.0000
  O   O20       1.0  0.9151699999999999  0.9151399999999998  0.09556  1.0000
  O   O21       1.0  0.9575699999999999  0.9265699999999999  0.21131  1.0000
  O   O22       1.0  0.8598499999999998  0.3020399999999999  0.33551000000000003  1.0000
  O   O23       1.0  0.8193199999999998  0.31952  0.40447000000000005  1.0000
  O   O24       1.0  0.7151599999999999  0.24625999999999995  0.28859000000000007  1.0000
  O   O25       1.0  0.97571  0.44198000000000004  0.6402500000000001  1.0000
  O   O26       1.0  0.08531999999999998  0.5004  0.6810400000000001  1.0000
  O   O27       1.0  0.07346999999999998  0.53108  0.7850200000000002  1.0000
  O   O28       1.0  0.69794  0.05796000000000001  0.53347  1.0000
  O   O29       1.0  0.6804999999999998  0.9999299999999999  0.5849  1.0000
  O   O30       1.0  0.75375  0.96906  0.5423700000000001  1.0000
  O   O31       1.0  0.80204  0.8355099999999999  0.85986  1.0000
  O   O32       1.0  0.8195099999999997  0.9044799999999998  0.81933  1.0000
  O   O33       1.0  0.7462599999999997  0.7885899999999998  0.71517  1.0000
  O   O34       1.0  0.52474  0.66473  0.9667000000000001  1.0000
  O   O35       1.0  0.41515  0.59558  0.91518  1.0000
  O   O36       1.0  0.42656000000000005  0.71131  0.9575800000000001  1.0000
  O   O37       1.0  0.33526999999999996  0.4752699999999999  0.53331  1.0000
  O   O38       1.0  0.40442999999999996  0.58485  0.58482  1.0000
  O   O39       1.0  0.28868  0.57343  0.54242  1.0000
  O   O40       1.0  0.16448  0.19796  0.64015  1.0000
  O   O41       1.0  0.09551999999999997  0.18047999999999992  0.68067  1.0000
  O   O42       1.0  0.21139999999999998  0.25374  0.78484  1.0000
  O   O43       1.0  0.94205  0.3020800000000001  0.9665400000000001  1.0000
  O   O44       1.0  7.000000000002989e-05  0.31949  0.91511  1.0000
  O   O45       1.0  0.030949999999999984  0.24624999999999997  0.95763  1.0000
  O   O46       1.0  0.55801  0.02427000000000005  0.85976  1.0000
  O   O47       1.0  0.4995899999999999  0.91468  0.8189600000000001  1.0000
  O   O48       1.0  0.4689  0.9265199999999998  0.7149700000000001  1.0000
  O   O49       1.0  0.5332900000000002  0.8352700000000001  0.9752700000000001  1.0000
  O   O50       1.0  0.58482  0.9044399999999999  0.08486  1.0000
  O   O51       1.0  0.5424199999999998  0.7886899999999998  0.07343000000000001  1.0000
  O   O52       1.0  0.64014  0.6645  0.69796  1.0000
  O   O53       1.0  0.68067  0.5955400000000001  0.6804800000000001  1.0000
  O   O54       1.0  0.7848299999999999  0.7114199999999999  0.75374  1.0000
  O   O55       1.0  0.9665300000000001  0.44204999999999994  0.8020600000000001  1.0000
  O   O56       1.0  0.9151000000000001  0.50008  0.8195000000000001  1.0000
  O   O57       1.0  0.95762  0.53094  0.74624  1.0000
  O   O58       1.0  0.85974  0.05802  0.52428  1.0000
  O   O59       1.0  0.81895  0.9995999999999999  0.41467  1.0000
  O   O60       1.0  0.71497  0.9689199999999999  0.42653  1.0000
  O   O61       1.0  0.9752499999999997  0.033299999999999996  0.33527  1.0000
  O   O62       1.0  0.08485  0.08483  0.40443  1.0000
  O   O63       1.0  0.07342999999999995  0.04241999999999999  0.28869  1.0000
  O   O64       1.0  0.6979499999999998  0.14014  0.16449  1.0000
  O   O65       1.0  0.68048  0.18067  0.09553  1.0000
  O   O66       1.0  0.75373  0.2848399999999999  0.21141  1.0000
  O   O67       1.0  0.8020499999999997  0.4665399999999999  0.9420400000000001  1.0000
  O   O68       1.0  0.81949  0.41511  7.000000000000001e-05  1.0000
  O   O69       1.0  0.74624  0.45763  0.030940000000000002  1.0000
  O   O70       1.0  0.5242799999999999  0.35975999999999997  0.55803  1.0000
  O   O71       1.0  0.41467  0.31896  0.4996000000000001  1.0000
  O   O72       1.0  0.4265299999999999  0.21498999999999993  0.46893  1.0000
