data_image0
_chemical_formula_structural       Mn24H312C336N64O72
_chemical_formula_sum              "Mn24 H312 C336 N64 O72"
_cell_length_a       17.69336
_cell_length_b       29.943430000000003
_cell_length_c       29.922509999999996
_cell_angle_alpha    85.01193
_cell_angle_beta     72.83586
_cell_angle_gamma    72.8354

_space_group_name_H-M_alt    "P 1"
_space_group_IT_number       1

loop_
  _space_group_symop_operation_xyz
  'x, y, z'

loop_
  _atom_site_type_symbol
  _atom_site_label
  _atom_site_symmetry_multiplicity
  _atom_site_fract_x
  _atom_site_fract_y
  _atom_site_fract_z
  _atom_site_occupancy
  Mn  Mn1       1.0  0.15168000000000006  0.9139400000000002  0.85725  1.0000
  Mn  Mn2       1.0  0.9127299999999998  0.8837000000000002  0.9669900000000001  1.0000
  Mn  Mn3       1.0  0.2885699999999999  0.9978500000000002  0.9237  1.0000
  Mn  Mn4       1.0  0.92244  0.58611  0.64262  1.0000
  Mn  Mn5       1.0  0.76406  0.61675  0.53254  1.0000
  Mn  Mn6       1.0  0.20935999999999996  0.50211  0.57632  1.0000
  Mn  Mn7       1.0  0.5653499999999998  0.8575600000000002  0.58614  1.0000
  Mn  Mn8       1.0  0.29632  0.96655  0.61703  1.0000
  Mn  Mn9       1.0  0.7847199999999999  0.92396  0.50184  1.0000
  Mn  Mn10      1.0  0.00823999999999995  0.64223  0.9142  1.0000
  Mn  Mn11      1.0  0.8799799999999998  0.53278  0.88253  1.0000
  Mn  Mn12      1.0  0.21167000000000002  0.57622  0.9980599999999998  1.0000
  Mn  Mn13      1.0  0.84833  0.08606  0.14275  1.0000
  Mn  Mn14      1.0  0.08727  0.1163  0.03301  1.0000
  Mn  Mn15      1.0  0.71144  0.00215  0.07629  1.0000
  Mn  Mn16      1.0  0.07756000000000007  0.41389  0.35738  1.0000
  Mn  Mn17      1.0  0.23594  0.38324000000000014  0.46745  1.0000
  Mn  Mn18      1.0  0.7906499999999999  0.49788000000000004  0.42367  1.0000
  Mn  Mn19      1.0  0.43464999999999987  0.14244  0.41386000000000006  1.0000
  Mn  Mn20      1.0  0.7036900000000001  0.03345  0.38297  1.0000
  Mn  Mn21      1.0  0.21528999999999993  0.07604  0.49815000000000004  1.0000
  Mn  Mn22      1.0  0.99176  0.35777000000000003  0.0858  1.0000
  Mn  Mn23      1.0  0.12003  0.46722  0.11747  1.0000
  Mn  Mn24      1.0  0.7883299999999999  0.42378000000000005  0.00194  1.0000
  H   H1        1.0  0.07654000000000002  0.75231  0.91032  1.0000
  H   H2        1.0  0.1841299999999999  0.68641  0.86534  1.0000
  H   H3        1.0  0.31072  0.7010300000000003  0.8084  1.0000
  H   H4        1.0  0.3253599999999999  0.78199  0.7974  1.0000
  H   H5        1.0  0.8948600000000001  0.99201  0.97077  1.0000
  H   H6        1.0  0.95493  0.0301  0.94326  1.0000
  H   H7        1.0  0.84867  0.99357  0.89778  1.0000
  H   H8        1.0  0.8215800000000001  0.05022  0.92164  1.0000
  H   H9        1.0  0.9077999999999999  0.03278  0.87124  1.0000
  H   H10       1.0  0.9747899999999998  0.9225900000000001  0.84348  1.0000
  H   H11       1.0  0.9029300000000002  0.9388300000000002  0.78164  1.0000
  H   H12       1.0  0.13995000000000007  0.9278300000000003  0.68065  1.0000
  H   H13       1.0  0.2014000000000001  0.91382  0.74687  1.0000
  H   H14       1.0  0.020170000000000063  0.9484  0.6530499999999999  1.0000
  H   H15       1.0  0.9256399999999997  0.9772100000000002  0.6932400000000001  1.0000
  H   H16       1.0  0.60418  0.98599  0.97038  1.0000
  H   H17       1.0  0.57233  0.9738500000000001  0.89721  1.0000
  H   H18       1.0  0.6798699999999998  0.9198600000000002  0.83594  1.0000
  H   H19       1.0  0.8160100000000001  0.8773100000000003  0.84922  1.0000
  H   H20       1.0  0.84947  0.92031  0.12881  1.0000
  H   H21       1.0  0.9068899999999999  0.9581600000000001  0.10025  1.0000
  H   H22       1.0  0.036709999999999965  0.88853  0.07823  1.0000
  H   H23       1.0  0.9926199999999997  0.8962600000000002  0.13958  1.0000
  H   H24       1.0  0.97855  0.85139  0.11032  1.0000
  H   H25       1.0  0.2775199999999999  0.98875  0.7469  1.0000
  H   H26       1.0  0.35874  0.0366  0.69392  1.0000
  H   H27       1.0  0.43093000000000004  0.08076  0.72703  1.0000
  H   H28       1.0  0.41952  0.07586  0.81225  1.0000
  H   H29       1.0  0.11087000000000007  0.91314  0.00067  1.0000
  H   H30       1.0  0.16180000000000005  0.87107  0.95607  1.0000
  H   H31       1.0  0.2856599999999999  0.8454000000000003  0.98835  1.0000
  H   H32       1.0  0.1946299999999999  0.8405800000000002  0.03118  1.0000
  H   H33       1.0  0.23474999999999993  0.88819  0.03301  1.0000
  H   H34       1.0  0.8221399999999998  0.9882500000000002  0.56576  1.0000
  H   H35       1.0  0.87402  0.98501  0.63521  1.0000
  H   H36       1.0  0.9267600000000001  0.83472  0.63197  1.0000
  H   H37       1.0  0.8737500000000001  0.84451  0.5624  1.0000
  H   H38       1.0  0.89095  0.90167  0.7134  1.0000
  H   H39       1.0  0.98811  0.87077  0.67827  1.0000
  H   H40       1.0  0.7397199999999999  0.74793  0.5892500000000002  1.0000
  H   H41       1.0  0.73569  0.81368  0.63481  1.0000
  H   H42       1.0  0.8197500000000002  0.79889  0.69198  1.0000
  H   H43       1.0  0.90451  0.71784  0.70274  1.0000
  H   H44       1.0  0.85656  0.50836  0.52906  1.0000
  H   H45       1.0  0.92761  0.47027000000000013  0.55624  1.0000
  H   H46       1.0  0.7396000000000001  0.50631  0.60217  1.0000
  H   H47       1.0  0.7933499999999999  0.44982  0.5781  1.0000
  H   H48       1.0  0.81183  0.46718  0.62848  1.0000
  H   H49       1.0  0.74043  0.57718  0.65612  1.0000
  H   H50       1.0  0.623  0.561  0.71795  1.0000
  H   H51       1.0  0.7484600000000001  0.57181  0.81888  1.0000
  H   H52       1.0  0.86185  0.58586  0.75277  1.0000
  H   H53       1.0  0.62171  0.55148  0.84659  1.0000
  H   H54       1.0  0.59572  0.5227  0.80654  1.0000
  H   H55       1.0  0.56177  0.51425  0.52938  1.0000
  H   H56       1.0  0.4445599999999999  0.52649  0.60256  1.0000
  H   H57       1.0  0.4369100000000001  0.58061  0.66377  1.0000
  H   H58       1.0  0.5437400000000001  0.62316  0.6504399999999999  1.0000
  H   H59       1.0  0.89955  0.5792700000000001  0.37092  1.0000
  H   H60       1.0  0.9661199999999998  0.54163  0.39981  1.0000
  H   H61       1.0  0.004099999999999983  0.61136  0.42161  1.0000
  H   H62       1.0  0.029050000000000055  0.6037  0.36023  1.0000
  H   H63       1.0  0.9406899999999998  0.6484400000000001  0.38951  1.0000
  H   H64       1.0  0.013350000000000018  0.51152  0.75319  1.0000
  H   H65       1.0  0.08948000000000002  0.46322  0.80595  1.0000
  H   H66       1.0  0.23901000000000006  0.41937000000000013  0.77273  1.0000
  H   H67       1.0  0.30733000000000005  0.42432000000000003  0.68742  1.0000
  H   H68       1.0  0.02402000000000006  0.58721  0.49899  1.0000
  H   H69       1.0  0.98863  0.6290700000000001  0.54377  1.0000
  H   H70       1.0  0.11912999999999994  0.65465  0.51162  1.0000
  H   H71       1.0  0.06598000000000001  0.6596  0.46882  1.0000
  H   H72       1.0  0.15548999999999993  0.61202  0.4668  1.0000
  H   H73       1.0  0.37640999999999997  0.51177  0.93444  1.0000
  H   H74       1.0  0.49407000000000006  0.51491  0.86473  1.0000
  H   H75       1.0  0.39376999999999995  0.6651900000000001  0.8678899999999999  1.0000
  H   H76       1.0  0.2812999999999999  0.65553  0.93771  1.0000
  H   H77       1.0  0.5053999999999998  0.59826  0.78661  1.0000
  H   H78       1.0  0.5370399999999999  0.62915  0.82152  1.0000
  H   H79       1.0  0.32918000000000003  0.9098800000000001  0.74827  1.0000
  H   H80       1.0  0.37138  0.86465  0.81393  1.0000
  H   H81       1.0  0.51287  0.80792  0.7989200000000001  1.0000
  H   H82       1.0  0.6079800000000001  0.7973  0.71775  1.0000
  H   H83       1.0  0.38610999999999984  0.9712700000000002  0.50836  1.0000
  H   H84       1.0  0.4842799999999999  0.9439900000000001  0.47027  1.0000
  H   H85       1.0  0.3421199999999999  0.8981000000000002  0.50651  1.0000
  H   H86       1.0  0.3716600000000001  0.92214  0.44998  1.0000
  H   H87       1.0  0.44055999999999984  0.87182  0.4673300000000001  1.0000
  H   H88       1.0  0.3963999999999999  0.84396  0.57739  1.0000
  H   H89       1.0  0.34088000000000007  0.78208  0.56121  1.0000
  H   H90       1.0  0.56727  0.68134  0.57203  1.0000
  H   H91       1.0  0.61441  0.74751  0.58614  1.0000
  H   H92       1.0  0.46827  0.65359  0.55145  1.0000
  H   H93       1.0  0.4022000000000001  0.69362  0.52274  1.0000
  H   H94       1.0  0.08983  0.9714200000000001  0.51479  1.0000
  H   H95       1.0  0.04494000000000003  0.89855  0.52624  1.0000
  H   H96       1.0  0.09881999999999996  0.83643  0.57946  1.0000
  H   H97       1.0  0.19462999999999994  0.84817  0.62129  1.0000
  H   H98       1.0  0.26944  0.12836  0.58128  1.0000
  H   H99       1.0  0.36441000000000007  0.09985  0.54305  1.0000
  H   H100      1.0  0.42580000000000007  0.07792000000000002  0.61232  1.0000
  H   H101      1.0  0.3893099999999998  0.13918  0.60437  1.0000
  H   H102      1.0  0.33083000000000007  0.11015  0.64971  1.0000
  H   H103      1.0  0.7667399999999995  0.7465800000000002  0.51124  1.0000
  H   H104      1.0  0.89612  0.69415  0.46311  1.0000
  H   H105      1.0  0.012169999999999966  0.72765  0.41948  1.0000
  H   H106      1.0  0.9944900000000001  0.81304  0.4244  1.0000
  H   H107      1.0  0.52274  0.00073  0.5875200000000002  1.0000
  H   H108      1.0  0.53268  0.95586  0.62933  1.0000
  H   H109      1.0  0.6308600000000002  0.98845  0.65471  1.0000
  H   H110      1.0  0.53473  0.03101  0.65971  1.0000
  H   H111      1.0  0.6220899999999999  0.0331  0.61195  1.0000
  H   H112      1.0  0.3108600000000001  0.56566  0.51172  1.0000
  H   H113      1.0  0.35908999999999996  0.63524  0.51489  1.0000
  H   H114      1.0  0.2616300000000001  0.63213  0.6653099999999998  1.0000
  H   H115      1.0  0.2188  0.56245  0.65554  1.0000
  H   H116      1.0  0.29206000000000004  0.71343  0.5984  1.0000
  H   H117      1.0  0.35865  0.67852  0.62923  1.0000
  H   H118      1.0  0.9872500000000002  0.59013  0.75145  1.0000
  H   H119      1.0  0.04962999999999994  0.6357  0.68611  1.0000
  H   H120      1.0  0.11961  0.69217  0.7014  1.0000
  H   H121      1.0  0.12257000000000007  0.70275  0.78268  1.0000
  H   H122      1.0  0.8644200000000001  0.52847  0.9916  1.0000
  H   H123      1.0  0.89794  0.55557  0.029550000000000003  1.0000
  H   H124      1.0  0.7461300000000001  0.60202  0.99341  1.0000
  H   H125      1.0  0.7430999999999999  0.5782  0.05007  1.0000
  H   H126      1.0  0.78022  0.62811  0.03232  1.0000
  H   H127      1.0  0.8174399999999999  0.656  0.92313  1.0000
  H   H128      1.0  0.6840700000000001  0.7179500000000001  0.93902  1.0000
  H   H129      1.0  0.8208599999999999  0.81858  0.92808  1.0000
  H   H130      1.0  0.9479900000000001  0.75232  0.91436  1.0000
  H   H131      1.0  0.67363  0.84643  0.94843  1.0000
  H   H132      1.0  0.6187899999999996  0.8064700000000002  0.97723  1.0000
  H   H133      1.0  0.57613  0.5293  0.98565  1.0000
  H   H134      1.0  0.47066000000000013  0.60237  0.97386  1.0000
  H   H135      1.0  0.5164899999999999  0.6637  0.91973  1.0000
  H   H136      1.0  0.6657600000000002  0.6507  0.87698  1.0000
  H   H137      1.0  0.9794800000000001  0.37116  0.91998  1.0000
  H   H138      1.0  0.007099999999999932  0.40091000000000004  0.95753  1.0000
  H   H139      1.0  0.11609999999999997  0.42182  0.88814  1.0000
  H   H140      1.0  0.13241999999999998  0.36066  0.89615  1.0000
  H   H141      1.0  0.09034999999999999  0.3897  0.85083  1.0000
  H   H142      1.0  0.024039999999999975  0.75287  0.98902  1.0000
  H   H143      1.0  0.05294000000000003  0.8058  0.03672000000000001  1.0000
  H   H144      1.0  0.15881999999999993  0.77273  0.08044  1.0000
  H   H145      1.0  0.23203000000000001  0.68749  0.0757  1.0000
  H   H146      1.0  0.11169000000000012  0.49916  0.91279  1.0000
  H   H147      1.0  0.11828  0.54385  0.8709  1.0000
  H   H148      1.0  0.27431999999999995  0.51143  0.8451799999999999  1.0000
  H   H149      1.0  0.22587  0.46876000000000007  0.84032  1.0000
  H   H150      1.0  0.26784  0.46677000000000013  0.8879900000000001  1.0000
  H   H151      1.0  0.38862  0.93428  0.98817  1.0000
  H   H152      1.0  0.5094800000000002  0.86468  0.98504  1.0000
  H   H153      1.0  0.55937  0.86783  0.83461  1.0000
  H   H154      1.0  0.43721  0.9375400000000002  0.8442800000000001  1.0000
  H   H155      1.0  0.6038499999999998  0.78654  0.90167  1.0000
  H   H156      1.0  0.6664799999999999  0.8213600000000001  0.87069  1.0000
  H   H157      1.0  0.92347  0.24769  0.08968  1.0000
  H   H158      1.0  0.81587  0.31359  0.13466  1.0000
  H   H159      1.0  0.6892899999999997  0.29897000000000007  0.1916  1.0000
  H   H160      1.0  0.67464  0.21801  0.2026  1.0000
  H   H161      1.0  0.10515  0.00798  0.02922  1.0000
  H   H162      1.0  0.04507000000000007  0.9699  0.05673  1.0000
  H   H163      1.0  0.15134  0.00643  0.10222  1.0000
  H   H164      1.0  0.17842999999999998  0.94978  0.07836  1.0000
  H   H165      1.0  0.09220999999999997  0.96722  0.12875  1.0000
  H   H166      1.0  0.025220000000000013  0.07741  0.15652  1.0000
  H   H167      1.0  0.09707999999999999  0.06116  0.21836  1.0000
  H   H168      1.0  0.8600599999999999  0.07217  0.31935  1.0000
  H   H169      1.0  0.79861  0.08618  0.25312  1.0000
  H   H170      1.0  0.97983  0.0516  0.34695  1.0000
  H   H171      1.0  0.07436000000000001  0.02279  0.30676  1.0000
  H   H172      1.0  0.39582  0.014010000000000003  0.02962  1.0000
  H   H173      1.0  0.4276700000000001  0.02615  0.10279  1.0000
  H   H174      1.0  0.32014  0.08014  0.16405  1.0000
  H   H175      1.0  0.18400000000000002  0.12269  0.15078  1.0000
  H   H176      1.0  0.15053000000000002  0.07969  0.87118  1.0000
  H   H177      1.0  0.09311000000000003  0.04184  0.89974  1.0000
  H   H178      1.0  0.9632899999999998  0.11147  0.92177  1.0000
  H   H179      1.0  0.007379999999999995  0.10374  0.86042  1.0000
  H   H180      1.0  0.021459999999999996  0.14861  0.88968  1.0000
  H   H181      1.0  0.72249  0.011250000000000003  0.25309  1.0000
  H   H182      1.0  0.6412599999999999  0.96339  0.30608  1.0000
  H   H183      1.0  0.56908  0.91924  0.27297  1.0000
  H   H184      1.0  0.58049  0.92414  0.18775  1.0000
  H   H185      1.0  0.8891399999999999  0.08686  0.99933  1.0000
  H   H186      1.0  0.83821  0.12893  0.04393  1.0000
  H   H187      1.0  0.7143500000000002  0.1546  0.011650000000000002  1.0000
  H   H188      1.0  0.8053700000000001  0.15942  0.96882  1.0000
  H   H189      1.0  0.76525  0.11181  0.9669900000000001  1.0000
  H   H190      1.0  0.17787  0.011740000000000004  0.43423  1.0000
  H   H191      1.0  0.12598999999999996  0.01498  0.36479  1.0000
  H   H192      1.0  0.07324000000000001  0.16528  0.36803  1.0000
  H   H193      1.0  0.12625  0.15549  0.4376  1.0000
  H   H194      1.0  0.10905  0.09833  0.28659  1.0000
  H   H195      1.0  0.011889999999999989  0.12923  0.32172000000000006  1.0000
  H   H196      1.0  0.26027999999999984  0.25207  0.41075  1.0000
  H   H197      1.0  0.26431000000000004  0.18632  0.36519  1.0000
  H   H198      1.0  0.18026  0.20111000000000004  0.30802  1.0000
  H   H199      1.0  0.09548999999999995  0.28216  0.2972600000000001  1.0000
  H   H200      1.0  0.14343999999999996  0.49164000000000013  0.47094  1.0000
  H   H201      1.0  0.07239999999999996  0.52973  0.44376  1.0000
  H   H202      1.0  0.2604099999999999  0.4936800000000001  0.39783  1.0000
  H   H203      1.0  0.20665999999999998  0.55017  0.4219  1.0000
  H   H204      1.0  0.18818000000000012  0.53282  0.37152  1.0000
  H   H205      1.0  0.25956999999999997  0.42281  0.34388  1.0000
  H   H206      1.0  0.3770100000000001  0.439  0.28205  1.0000
  H   H207      1.0  0.25154000000000004  0.42818  0.18112  1.0000
  H   H208      1.0  0.13816  0.41414  0.24723  1.0000
  H   H209      1.0  0.37829999999999997  0.44852  0.15341  1.0000
  H   H210      1.0  0.40429  0.47729  0.19346  1.0000
  H   H211      1.0  0.43823  0.4857400000000001  0.47062  1.0000
  H   H212      1.0  0.55545  0.47351  0.39744  1.0000
  H   H213      1.0  0.5631000000000002  0.41938  0.33623  1.0000
  H   H214      1.0  0.45626  0.37684  0.34955  1.0000
  H   H215      1.0  0.10046000000000002  0.42073  0.62908  1.0000
  H   H216      1.0  0.03388999999999997  0.45837  0.6001900000000001  1.0000
  H   H217      1.0  0.9958999999999999  0.38864  0.5783900000000001  1.0000
  H   H218      1.0  0.97095  0.39630000000000004  0.63977  1.0000
  H   H219      1.0  0.059310000000000015  0.35156  0.61048  1.0000
  H   H220      1.0  0.9866500000000002  0.48848  0.2468  1.0000
  H   H221      1.0  0.9105300000000001  0.53678  0.19405000000000003  1.0000
  H   H222      1.0  0.761  0.58063  0.22726  1.0000
  H   H223      1.0  0.6926699999999999  0.57568  0.31257  1.0000
  H   H224      1.0  0.9759900000000001  0.41278  0.50101  1.0000
  H   H225      1.0  0.011369999999999984  0.37093  0.45623  1.0000
  H   H226      1.0  0.8808699999999999  0.34535  0.48838  1.0000
  H   H227      1.0  0.9340299999999999  0.3404  0.53117  1.0000
  H   H228      1.0  0.84452  0.38797  0.5332  1.0000
  H   H229      1.0  0.62359  0.48823  0.06556  1.0000
  H   H230      1.0  0.50594  0.48509  0.13527  1.0000
  H   H231      1.0  0.60623  0.33481  0.13211  1.0000
  H   H232      1.0  0.7186999999999999  0.34447  0.06229  1.0000
  H   H233      1.0  0.49460999999999994  0.40174  0.21339  1.0000
  H   H234      1.0  0.46296000000000004  0.37085  0.17848  1.0000
  H   H235      1.0  0.67083  0.09012  0.25173  1.0000
  H   H236      1.0  0.62863  0.13535  0.18607000000000004  1.0000
  H   H237      1.0  0.4871399999999999  0.19208000000000006  0.20108  1.0000
  H   H238      1.0  0.3920199999999999  0.2027  0.28225  1.0000
  H   H239      1.0  0.61389  0.02873  0.49163  1.0000
  H   H240      1.0  0.51573  0.05601  0.52972  1.0000
  H   H241      1.0  0.6578899999999999  0.1019  0.49349  1.0000
  H   H242      1.0  0.6283499999999999  0.07786  0.55001  1.0000
  H   H243      1.0  0.55944  0.12818  0.53266  1.0000
  H   H244      1.0  0.60361  0.15604000000000007  0.42261  1.0000
  H   H245      1.0  0.6591300000000001  0.21792  0.43879  1.0000
  H   H246      1.0  0.43273  0.31866  0.42797  1.0000
  H   H247      1.0  0.3855999999999999  0.25249  0.41386000000000006  1.0000
  H   H248      1.0  0.5317400000000001  0.34641  0.44855  1.0000
  H   H249      1.0  0.5977999999999999  0.30637  0.47726  1.0000
  H   H250      1.0  0.91018  0.02858  0.4852  1.0000
  H   H251      1.0  0.9550600000000001  0.10145  0.47376  1.0000
  H   H252      1.0  0.9011899999999999  0.16357  0.42054  1.0000
  H   H253      1.0  0.80538  0.15183  0.3787  1.0000
  H   H254      1.0  0.7305600000000001  0.87164  0.41872  1.0000
  H   H255      1.0  0.6355999999999998  0.9001500000000002  0.45695  1.0000
  H   H256      1.0  0.5741999999999999  0.9220800000000002  0.38768  1.0000
  H   H257      1.0  0.6106899999999998  0.8608200000000001  0.39563  1.0000
  H   H258      1.0  0.6691799999999999  0.88985  0.35029  1.0000
  H   H259      1.0  0.23327  0.25342  0.48874999999999996  1.0000
  H   H260      1.0  0.10389000000000007  0.30585  0.53689  1.0000
  H   H261      1.0  0.98783  0.27235  0.5805200000000001  1.0000
  H   H262      1.0  0.005510000000000019  0.18696  0.5756  1.0000
  H   H263      1.0  0.4772700000000001  0.9992700000000001  0.41248  1.0000
  H   H264      1.0  0.46732000000000007  0.04414  0.37067  1.0000
  H   H265      1.0  0.36915  0.01154  0.34528  1.0000
  H   H266      1.0  0.46526999999999996  0.96899  0.34028  1.0000
  H   H267      1.0  0.37791999999999987  0.9669  0.38804  1.0000
  H   H268      1.0  0.68915  0.43434  0.48828  1.0000
  H   H269      1.0  0.6409100000000001  0.36476000000000003  0.48511  1.0000
  H   H270      1.0  0.73838  0.36786  0.33468  1.0000
  H   H271      1.0  0.7812  0.43754  0.34445  1.0000
  H   H272      1.0  0.70795  0.28657  0.4016  1.0000
  H   H273      1.0  0.6413600000000003  0.32148  0.37077  1.0000
  H   H274      1.0  0.012759999999999992  0.40987  0.24855  1.0000
  H   H275      1.0  0.95038  0.3643  0.31389  1.0000
  H   H276      1.0  0.8803900000000002  0.3078200000000001  0.2986  1.0000
  H   H277      1.0  0.8774399999999999  0.29725  0.21732  1.0000
  H   H278      1.0  0.13559000000000002  0.47152000000000005  0.00839  1.0000
  H   H279      1.0  0.10205999999999991  0.44443000000000005  0.97044  1.0000
  H   H280      1.0  0.25386999999999993  0.3979800000000001  0.00658  1.0000
  H   H281      1.0  0.25691  0.4218  0.94993  1.0000
  H   H282      1.0  0.21979  0.37189  0.96768  1.0000
  H   H283      1.0  0.18255999999999997  0.344  0.07686  1.0000
  H   H284      1.0  0.31592999999999993  0.28205  0.06098  1.0000
  H   H285      1.0  0.17914999999999998  0.18142  0.07192  1.0000
  H   H286      1.0  0.05202  0.24768  0.08563  1.0000
  H   H287      1.0  0.32637  0.15357  0.051570000000000005  1.0000
  H   H288      1.0  0.38121000000000005  0.19353  0.02277  1.0000
  H   H289      1.0  0.42388000000000003  0.4707  0.01435  1.0000
  H   H290      1.0  0.52935  0.39763  0.02613  1.0000
  H   H291      1.0  0.48351  0.3363  0.08026999999999998  1.0000
  H   H292      1.0  0.33425  0.34930000000000005  0.12301000000000001  1.0000
  H   H293      1.0  0.020530000000000017  0.62884  0.08002  1.0000
  H   H294      1.0  0.99291  0.59909  0.04246  1.0000
  H   H295      1.0  0.8839099999999999  0.57818  0.11185  1.0000
  H   H296      1.0  0.8675900000000002  0.63934  0.10384999999999998  1.0000
  H   H297      1.0  0.90966  0.6103  0.14917  1.0000
  H   H298      1.0  0.97597  0.24713  0.01098  1.0000
  H   H299      1.0  0.9470600000000001  0.19420000000000007  0.96328  1.0000
  H   H300      1.0  0.84119  0.22727  0.91956  1.0000
  H   H301      1.0  0.76797  0.31251  0.92429  1.0000
  H   H302      1.0  0.88831  0.50084  0.08721  1.0000
  H   H303      1.0  0.88172  0.45615  0.1291  1.0000
  H   H304      1.0  0.72568  0.48857  0.15482  1.0000
  H   H305      1.0  0.77413  0.53124  0.15968  1.0000
  H   H306      1.0  0.7321600000000001  0.53322  0.112  1.0000
  H   H307      1.0  0.61139  0.06572  0.01183  1.0000
  H   H308      1.0  0.49052000000000007  0.13532  0.014960000000000001  1.0000
  H   H309      1.0  0.44063  0.13217  0.16538  1.0000
  H   H310      1.0  0.5628  0.06246  0.15572  1.0000
  H   H311      1.0  0.39615  0.21346000000000004  0.09832  1.0000
  H   H312      1.0  0.3335199999999999  0.17864  0.12931  1.0000
  C   C1        1.0  0.20971999999999988  0.8131300000000002  0.84732  1.0000
  C   C2        1.0  0.13790000000000002  0.80457  0.87976  1.0000
  C   C3        1.0  0.13119999999999998  0.7584900000000001  0.88555  1.0000
  C   C4        1.0  0.19224999999999975  0.7212700000000002  0.86055  1.0000
  C   C5        1.0  0.2626  0.72982  0.8286100000000001  1.0000
  C   C6        1.0  0.27142999999999995  0.77476  0.82213  1.0000
  C   C7        1.0  0.06982999999999981  0.8417200000000002  0.90691  1.0000
  C   C8        1.0  0.0020899999999999  0.9622400000000002  0.91484  1.0000
  C   C9        1.0  0.93011  0.00242  0.93691  1.0000
  C   C10       1.0  0.87377  0.02085  0.90474  1.0000
  C   C11       1.0  0.009200000000000017  0.9245  0.80696  1.0000
  C   C12       1.0  0.96942  0.93321  0.77205  1.0000
  C   C13       1.0  0.015369999999999984  0.93501  0.72524  1.0000
  C   C14       1.0  0.10044999999999997  0.92738  0.71612  1.0000
  C   C15       1.0  0.13551999999999995  0.91926  0.75307  1.0000
  C   C16       1.0  0.9751800000000003  0.94412  0.68621  1.0000
  C   C17       1.0  0.78711  0.90759  0.9167900000000001  1.0000
  C   C18       1.0  0.72641  0.93905  0.9512900000000001  1.0000
  C   C19       1.0  0.64972  0.96249  0.94323  1.0000
  C   C20       1.0  0.6322499999999999  0.95584  0.9023900000000001  1.0000
  C   C21       1.0  0.69274  0.92529  0.86814  1.0000
  C   C22       1.0  0.7688199999999998  0.90158  0.87514  1.0000
  C   C23       1.0  0.74009  0.9484700000000003  0.99514  1.0000
  C   C24       1.0  0.88706  0.91456  0.05502  1.0000
  C   C25       1.0  0.90397  0.92195  0.09988  1.0000
  C   C26       1.0  0.98241  0.88747  0.10739  1.0000
  C   C27       1.0  0.34315  0.02945  0.82792  1.0000
  C   C28       1.0  0.3030399999999999  0.00403  0.80886  1.0000
  C   C29       1.0  0.30916  0.00795  0.76063  1.0000
  C   C30       1.0  0.35477000000000003  0.03488  0.73099  1.0000
  C   C31       1.0  0.39508000000000004  0.05932  0.74972  1.0000
  C   C32       1.0  0.38926  0.05680000000000002  0.7972  1.0000
  C   C33       1.0  0.25842999999999994  0.9723700000000002  0.83683  1.0000
  C   C34       1.0  0.21003999999999987  0.9292500000000002  0.94904  1.0000
  C   C35       1.0  0.17221999999999998  0.89401  0.97882  1.0000
  C   C36       1.0  0.2249199999999999  0.8654700000000002  0.00973  1.0000
  C   C37       1.0  0.8462700000000002  0.95506  0.58169  1.0000
  C   C38       1.0  0.8749200000000001  0.95279  0.62065  1.0000
  C   C39       1.0  0.9056500000000001  0.90924  0.63984  1.0000
  C   C40       1.0  0.90439  0.86963  0.61859  1.0000
  C   C41       1.0  0.8749400000000002  0.87477  0.57964  1.0000
  C   C42       1.0  0.93974  0.9042  0.68121  1.0000
  C   C43       1.0  0.86996  0.6869700000000001  0.65263  1.0000
  C   C44       1.0  0.82245  0.69565  0.61998  1.0000
  C   C45       1.0  0.7755400000000001  0.7417400000000002  0.6141700000000001  1.0000
  C   C46       1.0  0.77406  0.77884  0.63947  1.0000
  C   C47       1.0  0.8208399999999999  0.77019  0.67156  1.0000
  C   C48       1.0  0.86813  0.72524  0.67795  1.0000
  C   C49       1.0  0.81866  0.65856  0.5927899999999999  1.0000
  C   C50       1.0  0.8786800000000002  0.53799  0.5849  1.0000
  C   C51       1.0  0.86872  0.49788000000000004  0.56282  1.0000
  C   C52       1.0  0.7991  0.47921  0.59506  1.0000
  C   C53       1.0  0.7402300000000002  0.57533  0.69265  1.0000
  C   C54       1.0  0.67427  0.56667  0.72755  1.0000
  C   C55       1.0  0.6752500000000003  0.56486  0.77438  1.0000
  C   C56       1.0  0.7437100000000002  0.5724  0.78345  1.0000
  C   C57       1.0  0.8075500000000001  0.5805  0.74653  1.0000
  C   C58       1.0  0.6053  0.55578  0.8135  1.0000
  C   C59       1.0  0.6127100000000002  0.59271  0.583  1.0000
  C   C60       1.0  0.61779  0.56131  0.54846  1.0000
  C   C61       1.0  0.55654  0.53782  0.55652  1.0000
  C   C62       1.0  0.49167999999999995  0.54448  0.59737  1.0000
  C   C63       1.0  0.4874199999999997  0.5750600000000001  0.6316  1.0000
  C   C64       1.0  0.5467699999999999  0.59879  0.6246  1.0000
  C   C65       1.0  0.6846199999999999  0.55182  0.50464  1.0000
  C   C66       1.0  0.85748  0.58545  0.44466  1.0000
  C   C67       1.0  0.9266599999999999  0.57782  0.39989  1.0000
  C   C68       1.0  0.9779400000000001  0.6124  0.3924  1.0000
  C   C69       1.0  0.20021000000000003  0.47066  0.67198  1.0000
  C   C70       1.0  0.1157  0.49611  0.69106  1.0000
  C   C71       1.0  0.07773999999999995  0.49216000000000004  0.73932  1.0000
  C   C72       1.0  0.12073  0.46512  0.76889  1.0000
  C   C73       1.0  0.20414000000000002  0.44072  0.75011  1.0000
  C   C74       1.0  0.24302  0.44327  0.70263  1.0000
  C   C75       1.0  0.06730000000000003  0.52776  0.66314  1.0000
  C   C76       1.0  0.08749999999999994  0.57073  0.55092  1.0000
  C   C77       1.0  0.04458000000000003  0.60607  0.52102  1.0000
  C   C78       1.0  0.09975999999999996  0.6346300000000001  0.49022  1.0000
  C   C79       1.0  0.38340000000000013  0.54495  0.9185100000000002  1.0000
  C   C80       1.0  0.44849  0.54715  0.87942  1.0000
  C   C81       1.0  0.4548799999999999  0.59069  0.86018  1.0000
  C   C82       1.0  0.39297999999999994  0.63032  0.88143  1.0000
  C   C83       1.0  0.3299499999999999  0.6252600000000003  0.9205  1.0000
  C   C84       1.0  0.5249699999999997  0.5957000000000001  0.81867  1.0000
  C   C85       1.0  0.52314  0.84723  0.68696  1.0000
  C   C86       1.0  0.44269  0.87958  0.69573  1.0000
  C   C87       1.0  0.3900799999999999  0.8851600000000001  0.74191  1.0000
  C   C88       1.0  0.4142200000000001  0.86004  0.779  1.0000
  C   C89       1.0  0.49320999999999954  0.8281900000000001  0.77024  1.0000
  C   C90       1.0  0.54671  0.82192  0.72521  1.0000
  C   C91       1.0  0.4115499999999999  0.90687  0.65873  1.0000
  C   C92       1.0  0.4639999999999999  0.9155700000000001  0.53811  1.0000
  C   C93       1.0  0.4319299999999999  0.93751  0.49796  1.0000
  C   C94       1.0  0.39446  0.90522  0.47937  1.0000
  C   C95       1.0  0.4328100000000001  0.80748  0.57547  1.0000
  C   C96       1.0  0.40177999999999986  0.7725300000000002  0.56681  1.0000
  C   C97       1.0  0.4496299999999999  0.72576  0.56497  1.0000
  C   C98       1.0  0.5270900000000001  0.71673  0.57257  1.0000
  C   C99       1.0  0.5539799999999999  0.7536900000000001  0.58068  1.0000
  C   C100      1.0  0.41877999999999993  0.68665  0.55582  1.0000
  C   C101      1.0  0.19656999999999994  0.9159  0.5916  1.0000
  C   C102      1.0  0.1665900000000002  0.9510100000000002  0.56081  1.0000
  C   C103      1.0  0.11224000000000006  0.94373  0.53772  1.0000
  C   C104      1.0  0.08752999999999994  0.90313  0.54409  1.0000
  C   C105      1.0  0.11785999999999999  0.8683700000000001  0.57411  1.0000
  C   C106      1.0  0.17144999999999994  0.87454  0.59744  1.0000
  C   C107      1.0  0.18989000000000006  0.99477  0.55166  1.0000
  C   C108      1.0  0.30134  0.054700000000000006  0.58687  1.0000
  C   C109      1.0  0.3257300000000001  0.09948  0.57939  1.0000
  C   C110      1.0  0.37035999999999997  0.10705000000000002  0.6135  1.0000
  C   C111      1.0  0.87157  0.8282  0.47044  1.0000
  C   C112      1.0  0.80634  0.80896  0.49579  1.0000
  C   C113      1.0  0.8170100000000001  0.76066  0.49186  1.0000
  C   C114      1.0  0.88985  0.73126  0.4649  1.0000
  C   C115      1.0  0.9544  0.75021  0.44064  1.0000
  C   C116      1.0  0.94542  0.79772  0.4432  1.0000
  C   C117      1.0  0.7301099999999999  0.8368800000000002  0.52753  1.0000
  C   C118      1.0  0.6382700000000001  0.94904  0.57084  1.0000
  C   C119      1.0  0.5655100000000001  0.97877  0.60629  1.0000
  C   C120      1.0  0.58992  0.009700000000000002  0.6347200000000001  1.0000
  C   C121      1.0  0.30178000000000005  0.58165  0.54491  1.0000
  C   C122      1.0  0.32795  0.62066  0.54716  1.0000
  C   C123      1.0  0.31503000000000014  0.63992  0.59073  1.0000
  C   C124      1.0  0.27429000000000003  0.61869  0.63039  1.0000
  C   C125      1.0  0.25020000000000003  0.57968  0.62527  1.0000
  C   C126      1.0  0.34368  0.6814  0.59578  1.0000
  C   C127      1.0  0.05658999999999995  0.65277  0.81321  1.0000
  C   C128      1.0  0.01781999999999984  0.6202300000000002  0.80422  1.0000
  C   C129      1.0  0.017119999999999996  0.61476  0.75799  1.0000
  C   C130      1.0  0.053179999999999936  0.64005  0.72104  1.0000
  C   C131      1.0  0.09159999999999997  0.67182  0.73  1.0000
  C   C132      1.0  0.09355999999999999  0.67806  0.7751  1.0000
  C   C133      1.0  0.9771700000000001  0.59281  0.84119  1.0000
  C   C134      1.0  0.91703  0.5840700000000001  0.96179  1.0000
  C   C135      1.0  0.86663  0.5621600000000001  0.0019100000000000002  1.0000
  C   C136      1.0  0.7786199999999999  0.5948100000000002  0.02052  1.0000
  C   C137      1.0  0.8155200000000002  0.69249  0.92495  1.0000
  C   C138      1.0  0.74104  0.72746  0.93343  1.0000
  C   C139      1.0  0.7404299999999999  0.77423  0.93512  1.0000
  C   C140      1.0  0.81649  0.78319  0.92762  1.0000
  C   C141      1.0  0.8882700000000001  0.74619  0.91972  1.0000
  C   C142      1.0  0.66147  0.81337  0.94413  1.0000
  C   C143      1.0  0.7046799999999999  0.58329  0.90728  1.0000
  C   C144      1.0  0.6786599999999999  0.54864  0.9386  1.0000
  C   C145      1.0  0.5940799999999999  0.55656  0.96219  1.0000
  C   C146      1.0  0.53564  0.59733  0.95574  1.0000
  C   C147      1.0  0.5616499999999999  0.63162  0.92518  1.0000
  C   C148      1.0  0.6446100000000001  0.62481  0.90136  1.0000
  C   C149      1.0  0.7360399999999998  0.50485  0.94802  1.0000
  C   C150      1.0  0.9422999999999999  0.44487  0.91334  1.0000
  C   C151      1.0  0.004359999999999954  0.40048  0.92126  1.0000
  C   C152      1.0  0.09056000000000007  0.39284  0.88704  1.0000
  C   C153      1.0  0.17054  0.6719  0.02972  1.0000
  C   C154      1.0  0.11122000000000004  0.6909  0.004440000000000001  1.0000
  C   C155      1.0  0.06934000000000001  0.73912  0.00824  1.0000
  C   C156      1.0  0.08575999999999996  0.76873  0.03502  1.0000
  C   C157      1.0  0.14503  0.75004  0.05929000000000001  1.0000
  C   C158      1.0  0.18638000000000005  0.70258  0.05689000000000001  1.0000
  C   C159      1.0  0.09433000000000007  0.66291  0.9729  1.0000
  C   C160      1.0  0.1590900000000001  0.55087  0.92918  1.0000
  C   C161      1.0  0.1513  0.52103  0.89384  1.0000
  C   C162      1.0  0.23485  0.49012  0.8652700000000001  1.0000
  C   C163      1.0  0.4287500000000001  0.91834  0.95496  1.0000
  C   C164      1.0  0.49606999999999996  0.8793000000000002  0.95277  1.0000
  C   C165      1.0  0.5459500000000006  0.86005  0.9092  1.0000
  C   C166      1.0  0.5236900000000001  0.8813  0.86952  1.0000
  C   C167      1.0  0.45557  0.92032  0.87458  1.0000
  C   C168      1.0  0.6210199999999998  0.81854  0.90418  1.0000
  C   C169      1.0  0.79028  0.18687  0.15268  1.0000
  C   C170      1.0  0.8621  0.19543  0.12024  1.0000
  C   C171      1.0  0.8688099999999999  0.24151  0.11445  1.0000
  C   C172      1.0  0.80776  0.27873  0.13945  1.0000
  C   C173      1.0  0.7374100000000001  0.27018  0.17139  1.0000
  C   C174      1.0  0.72858  0.22524  0.17786  1.0000
  C   C175      1.0  0.9301799999999999  0.15828  0.09309000000000002  1.0000
  C   C176      1.0  0.99792  0.03775  0.08516  1.0000
  C   C177      1.0  0.06989999999999993  0.99758  0.06309  1.0000
  C   C178      1.0  0.12623  0.97915  0.09526  1.0000
  C   C179      1.0  0.9908  0.0755  0.19304  1.0000
  C   C180      1.0  0.030579999999999993  0.06678  0.22794  1.0000
  C   C181      1.0  0.98464  0.06499  0.27476  1.0000
  C   C182      1.0  0.8995600000000002  0.07261  0.28388  1.0000
  C   C183      1.0  0.8644800000000001  0.08073000000000001  0.24693  1.0000
  C   C184      1.0  0.024830000000000022  0.05588  0.31379  1.0000
  C   C185      1.0  0.21289000000000002  0.09241  0.08321000000000002  1.0000
  C   C186      1.0  0.2736  0.06095  0.0487  1.0000
  C   C187      1.0  0.35029  0.037510000000000016  0.05677  1.0000
  C   C188      1.0  0.36776000000000003  0.04416  0.09761  1.0000
  C   C189      1.0  0.30726  0.07471  0.13185  1.0000
  C   C190      1.0  0.23119  0.09842  0.12486000000000001  1.0000
  C   C191      1.0  0.25992  0.05153  0.00486  1.0000
  C   C192      1.0  0.11294000000000001  0.08544000000000003  0.94498  1.0000
  C   C193      1.0  0.09603999999999997  0.07805  0.90011  1.0000
  C   C194      1.0  0.017589999999999977  0.11253  0.8926  1.0000
  C   C195      1.0  0.6568599999999999  0.9705500000000002  0.17207  1.0000
  C   C196      1.0  0.69696  0.9959700000000001  0.19114  1.0000
  C   C197      1.0  0.6908399999999999  0.99205  0.23937  1.0000
  C   C198      1.0  0.64524  0.96512  0.26901  1.0000
  C   C199      1.0  0.6049299999999999  0.94068  0.25027  1.0000
  C   C200      1.0  0.61075  0.9432  0.2028  1.0000
  C   C201      1.0  0.7415800000000001  0.02763  0.16317  1.0000
  C   C202      1.0  0.78997  0.07074  0.05096  1.0000
  C   C203      1.0  0.82779  0.10599000000000001  0.02117  1.0000
  C   C204      1.0  0.77508  0.13453  0.99027  1.0000
  C   C205      1.0  0.15374  0.04494  0.41831  1.0000
  C   C206      1.0  0.12507999999999994  0.04721000000000001  0.3793500000000001  1.0000
  C   C207      1.0  0.09435000000000003  0.09076  0.36015  1.0000
  C   C208      1.0  0.09561999999999998  0.13037  0.3814  1.0000
  C   C209      1.0  0.12507000000000001  0.12522  0.42036  1.0000
  C   C210      1.0  0.060270000000000004  0.09579  0.31879  1.0000
  C   C211      1.0  0.13005000000000003  0.31303  0.34737  1.0000
  C   C212      1.0  0.17755999999999997  0.30435  0.38002  1.0000
  C   C213      1.0  0.22446999999999998  0.25826  0.38582  1.0000
  C   C214      1.0  0.22594  0.22116  0.36053  1.0000
  C   C215      1.0  0.17916999999999994  0.22981  0.32844  1.0000
  C   C216      1.0  0.13187  0.27476  0.32205  1.0000
  C   C217      1.0  0.18134000000000003  0.34144  0.40721  1.0000
  C   C218      1.0  0.12132999999999997  0.46201  0.4151  1.0000
  C   C219      1.0  0.13129000000000002  0.50212  0.43718  1.0000
  C   C220      1.0  0.20090999999999998  0.52079  0.40493  1.0000
  C   C221      1.0  0.25977000000000006  0.42467  0.30735  1.0000
  C   C222      1.0  0.32574000000000003  0.43333  0.27244  1.0000
  C   C223      1.0  0.32476000000000005  0.43514  0.22562  1.0000
  C   C224      1.0  0.2563000000000001  0.4276  0.21654  1.0000
  C   C225      1.0  0.19244999999999995  0.4195  0.25346  1.0000
  C   C226      1.0  0.39471  0.44422  0.1865  1.0000
  C   C227      1.0  0.3873000000000002  0.40729  0.417  1.0000
  C   C228      1.0  0.38222  0.43869  0.45154  1.0000
  C   C229      1.0  0.44346  0.46217  0.44347  1.0000
  C   C230      1.0  0.5083300000000002  0.45552  0.40263  1.0000
  C   C231      1.0  0.51258  0.42494  0.3684  1.0000
  C   C232      1.0  0.45324  0.40121  0.3754  1.0000
  C   C233      1.0  0.3153800000000001  0.44818  0.49535  1.0000
  C   C234      1.0  0.14253000000000002  0.41455000000000003  0.55534  1.0000
  C   C235      1.0  0.07333999999999996  0.42218  0.6001  1.0000
  C   C236      1.0  0.02207  0.3876  0.60759  1.0000
  C   C237      1.0  0.7997900000000001  0.52934  0.32802  1.0000
  C   C238      1.0  0.8843000000000001  0.50389  0.30893  1.0000
  C   C239      1.0  0.9222699999999999  0.50784  0.26067  1.0000
  C   C240      1.0  0.8792800000000001  0.53488  0.23111  1.0000
  C   C241      1.0  0.7958600000000001  0.55928  0.24989  1.0000
  C   C242      1.0  0.75698  0.55672  0.29737  1.0000
  C   C243      1.0  0.9327100000000002  0.47223  0.33686  1.0000
  C   C244      1.0  0.9125  0.42927  0.44908  1.0000
  C   C245      1.0  0.95543  0.3939300000000001  0.47898  1.0000
  C   C246      1.0  0.9002500000000001  0.36537  0.50978  1.0000
  C   C247      1.0  0.6166  0.45504  0.08149  1.0000
  C   C248      1.0  0.55152  0.45285  0.12057  1.0000
  C   C249      1.0  0.54512  0.40931  0.13982  1.0000
  C   C250      1.0  0.60702  0.36968  0.11857  1.0000
  C   C251      1.0  0.6700499999999999  0.3747400000000001  0.07950000000000002  1.0000
  C   C252      1.0  0.47502999999999995  0.40429  0.18133  1.0000
  C   C253      1.0  0.4768700000000001  0.15277  0.31304  1.0000
  C   C254      1.0  0.5573199999999999  0.12042000000000003  0.30426000000000003  1.0000
  C   C255      1.0  0.6099199999999999  0.11483  0.25809  1.0000
  C   C256      1.0  0.58579  0.13996  0.22099  1.0000
  C   C257      1.0  0.50679  0.17181  0.22976  1.0000
  C   C258      1.0  0.45329  0.17808  0.27479  1.0000
  C   C259      1.0  0.58845  0.09312  0.34127  1.0000
  C   C260      1.0  0.5359999999999999  0.08442000000000002  0.4618900000000001  1.0000
  C   C261      1.0  0.56807  0.06249000000000001  0.50204  1.0000
  C   C262      1.0  0.6055400000000002  0.09478  0.52063  1.0000
  C   C263      1.0  0.56719  0.19252  0.42453  1.0000
  C   C264      1.0  0.59823  0.22747000000000003  0.43319  1.0000
  C   C265      1.0  0.5503799999999999  0.27424  0.43503  1.0000
  C   C266      1.0  0.47290999999999994  0.28327  0.42743  1.0000
  C   C267      1.0  0.44603000000000004  0.2463  0.41932  1.0000
  C   C268      1.0  0.5812200000000001  0.3133500000000001  0.44418  1.0000
  C   C269      1.0  0.80344  0.08409  0.40840000000000004  1.0000
  C   C270      1.0  0.8334100000000001  0.04899  0.43919  1.0000
  C   C271      1.0  0.8877699999999998  0.056270000000000014  0.46227  1.0000
  C   C272      1.0  0.9124699999999997  0.09687000000000003  0.45591  1.0000
  C   C273      1.0  0.88215  0.13163  0.42589  1.0000
  C   C274      1.0  0.8285500000000001  0.12546  0.40256  1.0000
  C   C275      1.0  0.8101100000000001  0.00522  0.44833  1.0000
  C   C276      1.0  0.6986699999999999  0.9453000000000003  0.41313  1.0000
  C   C277      1.0  0.6742699999999998  0.90052  0.42061  1.0000
  C   C278      1.0  0.6296499999999999  0.89295  0.38649  1.0000
  C   C279      1.0  0.12844000000000003  0.17180000000000006  0.52956  1.0000
  C   C280      1.0  0.19367  0.19104  0.50421  1.0000
  C   C281      1.0  0.18299000000000007  0.23934  0.50813  1.0000
  C   C282      1.0  0.11016000000000002  0.26874  0.5351  1.0000
  C   C283      1.0  0.04560999999999995  0.24979000000000007  0.55936  1.0000
  C   C284      1.0  0.05457999999999997  0.20228  0.55679  1.0000
  C   C285      1.0  0.26989  0.16312000000000001  0.47246  1.0000
  C   C286      1.0  0.36173  0.05096  0.42916  1.0000
  C   C287      1.0  0.43449  0.02123  0.3937  1.0000
  C   C288      1.0  0.41007999999999983  0.9903000000000002  0.36528  1.0000
  C   C289      1.0  0.6982199999999998  0.41835  0.45508  1.0000
  C   C290      1.0  0.6720499999999999  0.37934000000000007  0.45284  1.0000
  C   C291      1.0  0.68497  0.36008  0.40926999999999997  1.0000
  C   C292      1.0  0.7257200000000001  0.38131  0.36961  1.0000
  C   C293      1.0  0.7498099999999999  0.42031  0.37473  1.0000
  C   C294      1.0  0.65632  0.3186  0.40422  1.0000
  C   C295      1.0  0.94341  0.34723  0.18679  1.0000
  C   C296      1.0  0.98219  0.37977  0.19577  1.0000
  C   C297      1.0  0.98289  0.38524  0.24201  1.0000
  C   C298      1.0  0.9468300000000001  0.35995  0.27895  1.0000
  C   C299      1.0  0.9084100000000002  0.32818  0.27  1.0000
  C   C300      1.0  0.90644  0.32194  0.2249  1.0000
  C   C301      1.0  0.02284000000000003  0.40719000000000005  0.1588  1.0000
  C   C302      1.0  0.08298000000000003  0.41593  0.03821  1.0000
  C   C303      1.0  0.13338  0.43784  0.99808  1.0000
  C   C304      1.0  0.2213799999999999  0.40519  0.97947  1.0000
  C   C305      1.0  0.18449  0.30751  0.07505  1.0000
  C   C306      1.0  0.25897  0.27253  0.06657  1.0000
  C   C307      1.0  0.25958  0.22577  0.06488  1.0000
  C   C308      1.0  0.18351  0.21681  0.07238  1.0000
  C   C309      1.0  0.11172999999999998  0.25381  0.08028  1.0000
  C   C310      1.0  0.33853  0.18663000000000002  0.05586  1.0000
  C   C311      1.0  0.29531999999999997  0.41671  0.09272  1.0000
  C   C312      1.0  0.32134000000000007  0.45136  0.0614  1.0000
  C   C313      1.0  0.40592  0.44344  0.03781  1.0000
  C   C314      1.0  0.46436000000000005  0.40267  0.04426  1.0000
  C   C315      1.0  0.43835  0.36838  0.07482  1.0000
  C   C316      1.0  0.3554  0.37519  0.09864  1.0000
  C   C317      1.0  0.26395999999999986  0.4951500000000001  0.05198  1.0000
  C   C318      1.0  0.057709999999999956  0.55513  0.08665000000000002  1.0000
  C   C319      1.0  0.99564  0.59952  0.07874  1.0000
  C   C320      1.0  0.9094399999999999  0.6071600000000001  0.11296000000000002  1.0000
  C   C321      1.0  0.8294699999999999  0.32809000000000005  0.97028  1.0000
  C   C322      1.0  0.8887899999999999  0.30910000000000004  0.99555  1.0000
  C   C323      1.0  0.9306600000000002  0.26088  0.99175  1.0000
  C   C324      1.0  0.9142500000000001  0.23126000000000005  0.96498  1.0000
  C   C325      1.0  0.8549699999999998  0.24996000000000004  0.94071  1.0000
  C   C326      1.0  0.8136300000000001  0.29741  0.9431  1.0000
  C   C327      1.0  0.90567  0.33709  0.0271  1.0000
  C   C328      1.0  0.84091  0.44913  0.07082  1.0000
  C   C329      1.0  0.8486999999999999  0.47896  0.10616  1.0000
  C   C330      1.0  0.7651500000000002  0.50988  0.13472  1.0000
  C   C331      1.0  0.5712599999999999  0.08166  0.04503  1.0000
  C   C332      1.0  0.50394  0.12069  0.04723  1.0000
  C   C333      1.0  0.45405  0.13994  0.09080000000000002  1.0000
  C   C334      1.0  0.47631999999999997  0.1187  0.13047  1.0000
  C   C335      1.0  0.54444  0.07968  0.12542  1.0000
  C   C336      1.0  0.37898  0.18146  0.09582000000000002  1.0000
  N   N1        1.0  0.07077  0.88637  0.8997700000000001  1.0000
  N   N2        1.0  0.0001700000000000697  0.9188900000000001  0.92642  1.0000
  N   N3        1.0  0.09107000000000005  0.91797  0.79794  1.0000
  N   N4        1.0  0.8128900000000002  0.92711  0.00385  1.0000
  N   N5        1.0  0.8171599999999999  0.93905  0.04706  1.0000
  N   N6        1.0  0.25376  0.96635  0.88246  1.0000
  N   N7        1.0  0.21718000000000007  0.9314500000000001  0.90396  1.0000
  N   N8        1.0  0.8468300000000001  0.91681  0.56099  1.0000
  N   N9        1.0  0.8570400000000001  0.61387  0.59986  1.0000
  N   N10       1.0  0.8456499999999999  0.58138  0.5731300000000001  1.0000
  N   N11       1.0  0.8065800000000002  0.58188  0.70166  1.0000
  N   N12       1.0  0.7445300000000002  0.5733  0.49577  1.0000
  N   N13       1.0  0.80399  0.56107  0.45266  1.0000
  N   N14       1.0  0.10215000000000002  0.53389  0.61754  1.0000
  N   N15       1.0  0.05190999999999998  0.56864  0.59603  1.0000
  N   N16       1.0  0.32537  0.58325  0.93927  1.0000
  N   N17       1.0  0.4572200000000001  0.9002  0.61402  1.0000
  N   N18       1.0  0.41911  0.92706  0.58158  1.0000
  N   N19       1.0  0.5081600000000001  0.79853  0.58199  1.0000
  N   N20       1.0  0.24056999999999998  0.00347  0.5735500000000001  1.0000
  N   N21       1.0  0.2570299999999999  0.0466  0.56172  1.0000
  N   N22       1.0  0.71949  0.88245  0.5338  1.0000
  N   N23       1.0  0.64831  0.90388  0.56895  1.0000
  N   N24       1.0  0.26424  0.56098  0.58321  1.0000
  N   N25       1.0  0.9712100000000001  0.59945  0.88598  1.0000
  N   N26       1.0  0.9273199999999999  0.57256  0.91829  1.0000
  N   N27       1.0  0.8884400000000001  0.70136  0.9185500000000001  1.0000
  N   N28       1.0  0.8173600000000005  0.49617  0.92648  1.0000
  N   N29       1.0  0.8649300000000001  0.45319  0.93869  1.0000
  N   N30       1.0  0.13597999999999988  0.61743  0.9664  1.0000
  N   N31       1.0  0.12099999999999995  0.5959100000000002  0.93141  1.0000
  N   N32       1.0  0.4089599999999999  0.9390600000000002  0.91664  1.0000
  N   N33       1.0  0.92924  0.11363  0.10023  1.0000
  N   N34       1.0  0.99983  0.08111  0.07357  1.0000
  N   N35       1.0  0.90894  0.08203000000000003  0.20205  1.0000
  N   N36       1.0  0.18711999999999998  0.07289  0.99615  1.0000
  N   N37       1.0  0.18285000000000004  0.06095  0.95294  1.0000
  N   N38       1.0  0.7462499999999999  0.03364  0.11754  1.0000
  N   N39       1.0  0.78282  0.06855  0.09604000000000001  1.0000
  N   N40       1.0  0.15316999999999997  0.08319  0.43901  1.0000
  N   N41       1.0  0.14295999999999998  0.38613  0.40013  1.0000
  N   N42       1.0  0.15434999999999996  0.4186200000000001  0.42687  1.0000
  N   N43       1.0  0.19343000000000002  0.41812  0.29834  1.0000
  N   N44       1.0  0.25548000000000004  0.4267  0.50422  1.0000
  N   N45       1.0  0.1960200000000001  0.43893  0.54733  1.0000
  N   N46       1.0  0.89786  0.46611  0.38246  1.0000
  N   N47       1.0  0.9480999999999999  0.43136000000000013  0.40397  1.0000
  N   N48       1.0  0.6746300000000001  0.41675  0.06072  1.0000
  N   N49       1.0  0.54279  0.09979  0.38598  1.0000
  N   N50       1.0  0.5809  0.07294  0.41841  1.0000
  N   N51       1.0  0.49184  0.20146  0.41801000000000005  1.0000
  N   N52       1.0  0.75943  0.99653  0.42645  1.0000
  N   N53       1.0  0.7429700000000001  0.9534000000000001  0.43828  1.0000
  N   N54       1.0  0.28051000000000004  0.11754  0.4662  1.0000
  N   N55       1.0  0.35170000000000007  0.09612  0.43105  1.0000
  N   N56       1.0  0.7357699999999999  0.43902  0.41678  1.0000
  N   N57       1.0  0.028799999999999992  0.4005500000000001  0.11401  1.0000
  N   N58       1.0  0.07268  0.42744  0.0817  1.0000
  N   N59       1.0  0.11156000000000003  0.29863  0.08145  1.0000
  N   N60       1.0  0.18264000000000002  0.50383  0.07352  1.0000
  N   N61       1.0  0.13508  0.54681  0.06131000000000001  1.0000
  N   N62       1.0  0.8640199999999999  0.38257  0.0336  1.0000
  N   N63       1.0  0.8790000000000001  0.40408  0.06859  1.0000
  N   N64       1.0  0.59105  0.06094  0.08336  1.0000
  O   O1        1.0  0.22352000000000005  0.85491  0.83924  1.0000
  O   O2        1.0  0.007669999999999992  0.83148  0.93762  1.0000
  O   O3        1.0  0.06413000000000031  0.97104  0.88279  1.0000
  O   O4        1.0  0.8605399999999999  0.8821800000000001  0.92139  1.0000
  O   O5        1.0  0.6822100000000001  0.97756  0.024760000000000004  1.0000
  O   O6        1.0  0.9424200000000001  0.88379  0.02435  1.0000
  O   O7        1.0  0.34058  0.02921  0.87291  1.0000
  O   O8        1.0  0.22537000000000001  0.9492  0.81704  1.0000
  O   O9        1.0  0.23497000000000007  0.95745  0.96892  1.0000
  O   O10       1.0  0.91691  0.6451000000000001  0.66086  1.0000
  O   O11       1.0  0.7768100000000001  0.66902  0.56215  1.0000
  O   O12       1.0  0.9172300000000001  0.52904  0.61705  1.0000
  O   O13       1.0  0.6655499999999998  0.61796  0.57854  1.0000
  O   O14       1.0  0.6857100000000003  0.52245  0.47520999999999997  1.0000
  O   O15       1.0  0.8515000000000003  0.61627  0.4753  1.0000
  O   O16       1.0  0.24244  0.47088  0.62703  1.0000
  O   O17       1.0  0.99125  0.5508  0.68287  1.0000
  O   O18       1.0  0.16039000000000003  0.54249  0.53112  1.0000
  O   O19       1.0  0.57865  0.83928  0.6451  1.0000
  O   O20       1.0  0.33884  0.93732  0.66923  1.0000
  O   O21       1.0  0.5349599999999999  0.88373  0.52906  1.0000
  O   O22       1.0  0.24634000000000006  0.91962  0.61627  1.0000
  O   O23       1.0  0.16178  0.02453  0.52245  1.0000
  O   O24       1.0  0.32465  0.02428  0.61816  1.0000
  O   O25       1.0  0.8681199999999999  0.87324  0.47066  1.0000
  O   O26       1.0  0.6739  0.81709  0.55061  1.0000
  O   O27       1.0  0.6907299999999998  0.9690700000000002  0.54226  1.0000
  O   O28       1.0  0.06113000000000001  0.66089  0.85527  1.0000
  O   O29       1.0  0.9458100000000002  0.56224  0.83058  1.0000
  O   O30       1.0  0.9468399999999999  0.61606  0.97097  1.0000
  O   O31       1.0  0.7826299999999999  0.57907  0.88195  1.0000
  O   O32       1.0  0.708  0.47529  0.9773  1.0000
  O   O33       1.0  0.9661299999999998  0.4750500000000001  0.88162  1.0000
  O   O34       1.0  0.21275  0.62696  0.02948  1.0000
  O   O35       1.0  0.04066000000000004  0.68264  0.95031  1.0000
  O   O36       1.0  0.20403999999999994  0.53108  0.95733  1.0000
  O   O37       1.0  0.77649  0.14509  0.16075000000000003  1.0000
  O   O38       1.0  0.99234  0.16852  0.06238  1.0000
  O   O39       1.0  0.9358699999999999  0.02895  0.11721  1.0000
  O   O40       1.0  0.13947  0.11781  0.07861  1.0000
  O   O41       1.0  0.31778999999999996  0.02244  0.97523  1.0000
  O   O42       1.0  0.057579999999999944  0.1162  0.97565  1.0000
  O   O43       1.0  0.6594199999999999  0.97079  0.12709  1.0000
  O   O44       1.0  0.77463  0.0508  0.18295  1.0000
  O   O45       1.0  0.76504  0.04255  0.03107  1.0000
  O   O46       1.0  0.08309  0.35489  0.33913  1.0000
  O   O47       1.0  0.22320000000000004  0.33098  0.43785  1.0000
  O   O48       1.0  0.08277999999999994  0.47096000000000005  0.38295  1.0000
  O   O49       1.0  0.3344500000000001  0.38204  0.42145  1.0000
  O   O50       1.0  0.3143  0.47755  0.52479  1.0000
  O   O51       1.0  0.14851000000000003  0.38373  0.5247  1.0000
  O   O52       1.0  0.7575600000000001  0.52912  0.37297  1.0000
  O   O53       1.0  0.00874999999999996  0.4492  0.31712000000000007  1.0000
  O   O54       1.0  0.8396099999999999  0.4575  0.46887999999999996  1.0000
  O   O55       1.0  0.4213600000000001  0.16072  0.35489  1.0000
  O   O56       1.0  0.6611599999999999  0.06268  0.33077  1.0000
  O   O57       1.0  0.46505  0.11627000000000003  0.47094  1.0000
  O   O58       1.0  0.7536700000000001  0.08038  0.38372000000000006  1.0000
  O   O59       1.0  0.8382300000000001  0.97547  0.47755  1.0000
  O   O60       1.0  0.67536  0.97572  0.38184  1.0000
  O   O61       1.0  0.13188999999999998  0.12676  0.52934  1.0000
  O   O62       1.0  0.32610999999999984  0.18291  0.44939  1.0000
  O   O63       1.0  0.30927999999999994  0.03093  0.45774000000000004  1.0000
  O   O64       1.0  0.93888  0.33911  0.14473  1.0000
  O   O65       1.0  0.054190000000000016  0.43776  0.16942  1.0000
  O   O66       1.0  0.05317000000000005  0.38394  0.02903  1.0000
  O   O67       1.0  0.21738000000000007  0.42093  0.11805  1.0000
  O   O68       1.0  0.29200000000000004  0.52471  0.022700000000000005  1.0000
  O   O69       1.0  0.033880000000000035  0.52495  0.11838  1.0000
  O   O70       1.0  0.7872600000000001  0.37304  0.97052  1.0000
  O   O71       1.0  0.9593499999999999  0.31736  0.04969  1.0000
  O   O72       1.0  0.7959600000000001  0.46892  0.04266  1.0000
