data_image0
_chemical_formula_structural       Zn40H160C296O168
_chemical_formula_sum              "Zn40 H160 C296 O168"
_cell_length_a       22.16944
_cell_length_b       22.47757
_cell_length_c       40.30733
_cell_angle_alpha    90.0
_cell_angle_beta     90.0
_cell_angle_gamma    90.0

_symmetry_space_group_name_H-M    'P 1'
_symmetry_Int_Tables_number       1

loop_
  _symmetry_equiv_pos_as_xyz
  'x,y,z'

loop_
  _atom_site_type_symbol
  _atom_site_label
  _atom_site_symmetry_multiplicity
  _atom_site_fract_x
  _atom_site_fract_y
  _atom_site_fract_z
  _atom_site_occupancy
  Zn  Zn1       1.0  0.82858  0.00131  0.7145600000000001  1.0000
  Zn  Zn2       1.0  0.27367  0.42386  0.96369  1.0000
  Zn  Zn3       1.0  0.76952  0.35289  0.71457  1.0000
  Zn  Zn4       1.0  0.20192  0.50208  0.01156  1.0000
  Zn  Zn5       1.0  0.75318  0.9267799999999999  0.76165  1.0000
  Zn  Zn6       1.0  0.18334999999999999  0.94542  0.99006  1.0000
  Zn  Zn7       1.0  0.62842  0.46796  0.97046  1.0000
  Zn  Zn8       1.0  0.19819  0.9537699999999999  0.73125  1.0000
  Zn  Zn9       1.0  0.66523  0.39086999999999994  0.73968  1.0000
  Zn  Zn10      1.0  0.72852  0.42413  0.011040000000000001  1.0000
  Zn  Zn11      1.0  0.67142  0.9986899999999999  0.21456000000000003  1.0000
  Zn  Zn12      1.0  0.22632999999999995  0.5761399999999999  0.4637  1.0000
  Zn  Zn13      1.0  0.7304799999999999  0.6471099999999999  0.21458  1.0000
  Zn  Zn14      1.0  0.29807999999999996  0.49791999999999986  0.5115600000000001  1.0000
  Zn  Zn15      1.0  0.74682  0.07322  0.26165  1.0000
  Zn  Zn16      1.0  0.31665  0.05457999999999999  0.49006000000000005  1.0000
  Zn  Zn17      1.0  0.8715799999999999  0.5320399999999998  0.47046000000000004  1.0000
  Zn  Zn18      1.0  0.3018199999999999  0.0462  0.23124  1.0000
  Zn  Zn19      1.0  0.8347799999999997  0.6091199999999999  0.23968000000000003  1.0000
  Zn  Zn20      1.0  0.77149  0.5758599999999999  0.51104  1.0000
  Zn  Zn21      1.0  0.17141999999999996  0.50131  0.7854300000000002  1.0000
  Zn  Zn22      1.0  0.72633  0.92386  0.5363  1.0000
  Zn  Zn23      1.0  0.23047999999999996  0.85289  0.78542  1.0000
  Zn  Zn24      1.0  0.7980799999999999  0.00208  0.48844  1.0000
  Zn  Zn25      1.0  0.24681999999999998  0.4267799999999999  0.73834  1.0000
  Zn  Zn26      1.0  0.81665  0.44542  0.5099400000000001  1.0000
  Zn  Zn27      1.0  0.37157  0.9679599999999999  0.52953  1.0000
  Zn  Zn28      1.0  0.8018199999999999  0.45378999999999997  0.76875  1.0000
  Zn  Zn29      1.0  0.33476999999999996  0.89087  0.7603200000000001  1.0000
  Zn  Zn30      1.0  0.27148999999999995  0.9241299999999999  0.48896  1.0000
  Zn  Zn31      1.0  0.32858  0.49868999999999997  0.28543  1.0000
  Zn  Zn32      1.0  0.77367  0.07613999999999999  0.0363  1.0000
  Zn  Zn33      1.0  0.26952  0.14711  0.28542  1.0000
  Zn  Zn34      1.0  0.7019199999999999  0.99792  0.9884400000000001  1.0000
  Zn  Zn35      1.0  0.25317999999999996  0.57322  0.23834  1.0000
  Zn  Zn36      1.0  0.68335  0.55458  0.00994  1.0000
  Zn  Zn37      1.0  0.12842  0.03204  0.029540000000000004  1.0000
  Zn  Zn38      1.0  0.6981799999999999  0.54621  0.26876000000000005  1.0000
  Zn  Zn39      1.0  0.16522999999999996  0.10911999999999998  0.26032  1.0000
  Zn  Zn40      1.0  0.22851999999999997  0.07586  0.98896  1.0000
  H   H1        1.0  0.25839  0.41268  0.85155  1.0000
  H   H2        1.0  0.37349  0.2853  0.8995000000000001  1.0000
  H   H3        1.0  0.35379  0.28245  0.7926200000000002  1.0000
  H   H4        1.0  0.46815999999999997  0.25443  0.87764  1.0000
  H   H5        1.0  0.41655  0.1975  0.89001  1.0000
  H   H6        1.0  0.56798  0.12342999999999998  0.87934  1.0000
  H   H7        1.0  0.50982  0.1375  0.9092100000000001  1.0000
  H   H8        1.0  0.55123  0.22549  0.83425  1.0000
  H   H9        1.0  0.4929499999999999  0.19833  0.80745  1.0000
  H   H10       1.0  0.61363  0.12001  0.92949  1.0000
  H   H11       1.0  0.7168799999999999  0.23518999999999995  0.99298  1.0000
  H   H12       1.0  0.59683  0.31051999999999996  0.9198600000000001  1.0000
  H   H13       1.0  0.6318599999999999  0.05524  0.7988000000000002  1.0000
  H   H14       1.0  0.74157  0.16226  0.73363  1.0000
  H   H15       1.0  0.59272  0.24198999999999998  0.7859  1.0000
  H   H16       1.0  0.39740999999999993  0.01172  0.82992  1.0000
  H   H17       1.0  0.48638  0.07301  0.8426500000000001  1.0000
  H   H18       1.0  0.42164  0.11590999999999997  0.8309900000000001  1.0000
  H   H19       1.0  0.36408  0.06368  0.9311  1.0000
  H   H20       1.0  0.26663  0.9160799999999999  0.8885300000000002  1.0000
  H   H21       1.0  0.71122  0.49773  0.88095  1.0000
  H   H22       1.0  0.7973099999999997  0.64163  0.93335  1.0000
  H   H23       1.0  0.84498  0.60414  0.8314600000000001  1.0000
  H   H24       1.0  0.8498199999999999  0.73443  0.91696  1.0000
  H   H25       1.0  0.8988499999999998  0.67375  0.9271400000000001  1.0000
  H   H26       1.0  0.88833  0.81505  0.8769200000000001  1.0000
  H   H27       1.0  0.90719  0.75958  0.84663  1.0000
  H   H28       1.0  0.8829499999999999  0.86084  0.8240600000000001  1.0000
  H   H29       1.0  0.9992799999999998  0.9448299999999998  0.75219  1.0000
  H   H30       1.0  0.07566  0.84424  0.83308  1.0000
  H   H31       1.0  0.02861  0.72468  0.8738200000000002  1.0000
  H   H32       1.0  0.9711299999999999  0.6716999999999999  0.86374  1.0000
  H   H33       1.0  0.0541  0.62209  0.8511600000000001  1.0000
  H   H34       1.0  0.17804  0.50038  0.89734  1.0000
  H   H35       1.0  0.06556  0.61308  0.9582000000000003  1.0000
  H   H36       1.0  0.8330699999999999  0.88386  0.95599  1.0000
  H   H37       1.0  0.00323  0.80461  0.91799  1.0000
  H   H38       1.0  0.9785199999999998  0.74871  0.94659  1.0000
  H   H39       1.0  0.024249999999999994  0.85006  0.9636500000000001  1.0000
  H   H40       1.0  0.9455799999999999  0.99701  0.01637  1.0000
  H   H41       1.0  0.24161  0.58732  0.35155000000000003  1.0000
  H   H42       1.0  0.12651  0.7146899999999998  0.39951  1.0000
  H   H43       1.0  0.14622  0.71755  0.29262  1.0000
  H   H44       1.0  0.03184  0.7455599999999998  0.37764  1.0000
  H   H45       1.0  0.08345  0.8024999999999999  0.3900200000000001  1.0000
  H   H46       1.0  0.9320199999999997  0.8765599999999999  0.37934  1.0000
  H   H47       1.0  0.99018  0.86249  0.40921  1.0000
  H   H48       1.0  0.9487699999999998  0.7745099999999999  0.33425  1.0000
  H   H49       1.0  0.007049999999999998  0.80167  0.30745000000000006  1.0000
  H   H50       1.0  0.88637  0.87999  0.42949  1.0000
  H   H51       1.0  0.78312  0.7648099999999999  0.49298  1.0000
  H   H52       1.0  0.9031699999999999  0.68947  0.4198700000000001  1.0000
  H   H53       1.0  0.8681499999999999  0.94476  0.2988  1.0000
  H   H54       1.0  0.75843  0.8377399999999999  0.23363  1.0000
  H   H55       1.0  0.90728  0.7580099999999999  0.2859  1.0000
  H   H56       1.0  0.10258999999999997  0.98827  0.32992  1.0000
  H   H57       1.0  0.013619999999999998  0.9269899999999998  0.34265  1.0000
  H   H58       1.0  0.07835999999999999  0.88408  0.33099  1.0000
  H   H59       1.0  0.13591  0.9363199999999998  0.43110000000000004  1.0000
  H   H60       1.0  0.23336999999999994  0.08392  0.38853  1.0000
  H   H61       1.0  0.7887799999999999  0.50227  0.38096  1.0000
  H   H62       1.0  0.70269  0.35837  0.43336  1.0000
  H   H63       1.0  0.65502  0.39585999999999993  0.33146  1.0000
  H   H64       1.0  0.6501799999999999  0.2655699999999999  0.41696  1.0000
  H   H65       1.0  0.6011599999999999  0.32624999999999993  0.4271400000000001  1.0000
  H   H66       1.0  0.6116699999999999  0.18494999999999998  0.37692  1.0000
  H   H67       1.0  0.59282  0.24042  0.34663  1.0000
  H   H68       1.0  0.61705  0.13916  0.32406  1.0000
  H   H69       1.0  0.50072  0.05517  0.2521900000000001  1.0000
  H   H70       1.0  0.42433999999999994  0.15576  0.33308  1.0000
  H   H71       1.0  0.47139  0.27531  0.37383000000000005  1.0000
  H   H72       1.0  0.52888  0.3283  0.36374  1.0000
  H   H73       1.0  0.4459  0.37791  0.35116  1.0000
  H   H74       1.0  0.32196  0.49961  0.39734000000000014  1.0000
  H   H75       1.0  0.43444  0.38691999999999993  0.4582  1.0000
  H   H76       1.0  0.6669299999999999  0.11612999999999998  0.45599  1.0000
  H   H77       1.0  0.49677  0.19538999999999998  0.41799  1.0000
  H   H78       1.0  0.5214799999999999  0.25129  0.44659000000000004  1.0000
  H   H79       1.0  0.47574999999999995  0.14994  0.46365  1.0000
  H   H80       1.0  0.5544199999999999  0.00299  0.51637  1.0000
  H   H81       1.0  0.74161  0.9126799999999999  0.6484500000000001  1.0000
  H   H82       1.0  0.6265099999999999  0.7853  0.60049  1.0000
  H   H83       1.0  0.64622  0.7824499999999999  0.70738  1.0000
  H   H84       1.0  0.53184  0.75443  0.6223500000000001  1.0000
  H   H85       1.0  0.58345  0.6974999999999999  0.60998  1.0000
  H   H86       1.0  0.43202  0.6234299999999999  0.62066  1.0000
  H   H87       1.0  0.4901799999999999  0.63751  0.5907800000000001  1.0000
  H   H88       1.0  0.44876999999999995  0.72549  0.6657400000000001  1.0000
  H   H89       1.0  0.50705  0.69833  0.6925500000000001  1.0000
  H   H90       1.0  0.38637  0.62001  0.57051  1.0000
  H   H91       1.0  0.28311  0.73519  0.50702  1.0000
  H   H92       1.0  0.4031699999999999  0.8105299999999998  0.58013  1.0000
  H   H93       1.0  0.36814  0.55524  0.7012  1.0000
  H   H94       1.0  0.25843  0.66226  0.76637  1.0000
  H   H95       1.0  0.40728  0.74199  0.71409  1.0000
  H   H96       1.0  0.60259  0.51172  0.67008  1.0000
  H   H97       1.0  0.5136199999999999  0.57301  0.65735  1.0000
  H   H98       1.0  0.57836  0.61592  0.66901  1.0000
  H   H99       1.0  0.63592  0.56368  0.5689  1.0000
  H   H100      1.0  0.7333699999999997  0.41607999999999995  0.61147  1.0000
  H   H101      1.0  0.28877  0.99771  0.6190300000000001  1.0000
  H   H102      1.0  0.20269  0.14163999999999996  0.56665  1.0000
  H   H103      1.0  0.155  0.10411999999999999  0.66854  1.0000
  H   H104      1.0  0.15017  0.23444  0.58303  1.0000
  H   H105      1.0  0.10115999999999997  0.17375  0.57286  1.0000
  H   H106      1.0  0.11166  0.31505  0.62308  1.0000
  H   H107      1.0  0.09281  0.25958  0.65336  1.0000
  H   H108      1.0  0.11703999999999999  0.3608399999999999  0.67594  1.0000
  H   H109      1.0  0.00072  0.44483  0.74781  1.0000
  H   H110      1.0  0.92434  0.34424  0.6669100000000001  1.0000
  H   H111      1.0  0.9713899999999998  0.22467999999999996  0.6261700000000001  1.0000
  H   H112      1.0  0.028879999999999996  0.1717  0.63626  1.0000
  H   H113      1.0  0.9458999999999999  0.12209  0.64884  1.0000
  H   H114      1.0  0.82196  0.0003799999999999999  0.60265  1.0000
  H   H115      1.0  0.9344399999999999  0.11307999999999999  0.54179  1.0000
  H   H116      1.0  0.16692999999999997  0.38386999999999993  0.544  1.0000
  H   H117      1.0  0.9967699999999998  0.30461  0.58201  1.0000
  H   H118      1.0  0.02148  0.24870999999999993  0.5534  1.0000
  H   H119      1.0  0.9757499999999998  0.3500599999999999  0.5363500000000001  1.0000
  H   H120      1.0  0.05442  0.49700999999999995  0.48362  1.0000
  H   H121      1.0  0.7584  0.08732  0.14845  1.0000
  H   H122      1.0  0.8734999999999998  0.21468999999999994  0.10049  1.0000
  H   H123      1.0  0.85379  0.21754999999999994  0.20738  1.0000
  H   H124      1.0  0.9681599999999998  0.24555999999999997  0.12236  1.0000
  H   H125      1.0  0.9165499999999999  0.3025  0.10998000000000001  1.0000
  H   H126      1.0  0.06798  0.37656  0.12066  1.0000
  H   H127      1.0  0.009819999999999999  0.36249  0.09078000000000001  1.0000
  H   H128      1.0  0.051229999999999984  0.27451  0.16575000000000004  1.0000
  H   H129      1.0  0.99295  0.30167  0.19255000000000003  1.0000
  H   H130      1.0  0.11362999999999998  0.3799899999999999  0.07051  1.0000
  H   H131      1.0  0.21688999999999997  0.26481  0.00702  1.0000
  H   H132      1.0  0.09683  0.18947  0.08013  1.0000
  H   H133      1.0  0.13185999999999998  0.44476  0.2012  1.0000
  H   H134      1.0  0.24156999999999995  0.33773999999999993  0.26637  1.0000
  H   H135      1.0  0.09272  0.25800999999999996  0.21410000000000004  1.0000
  H   H136      1.0  0.89741  0.48827  0.17008  1.0000
  H   H137      1.0  0.98638  0.42698999999999987  0.15735000000000002  1.0000
  H   H138      1.0  0.9216399999999998  0.38407999999999987  0.16901  1.0000
  H   H139      1.0  0.8640899999999999  0.43632  0.0689  1.0000
  H   H140      1.0  0.76663  0.58392  0.11147000000000001  1.0000
  H   H141      1.0  0.21122  0.00227  0.11904000000000003  1.0000
  H   H142      1.0  0.29731  0.85837  0.06664000000000002  1.0000
  H   H143      1.0  0.34498  0.8958499999999999  0.16854  1.0000
  H   H144      1.0  0.34981999999999996  0.7655699999999999  0.08304  1.0000
  H   H145      1.0  0.39885  0.8262499999999999  0.07286  1.0000
  H   H146      1.0  0.38832999999999995  0.68495  0.12308000000000002  1.0000
  H   H147      1.0  0.40718999999999994  0.7404199999999999  0.15336  1.0000
  H   H148      1.0  0.38294999999999996  0.63916  0.17594  1.0000
  H   H149      1.0  0.49929  0.55517  0.24781  1.0000
  H   H150      1.0  0.57566  0.65576  0.16692000000000004  1.0000
  H   H151      1.0  0.52861  0.7753099999999998  0.12617  1.0000
  H   H152      1.0  0.47112999999999994  0.8283  0.13626  1.0000
  H   H153      1.0  0.5541  0.8779099999999997  0.14884  1.0000
  H   H154      1.0  0.67804  0.9996199999999998  0.10266000000000002  1.0000
  H   H155      1.0  0.5655599999999998  0.8869199999999999  0.04179  1.0000
  H   H156      1.0  0.33307  0.61613  0.04401  1.0000
  H   H157      1.0  0.50323  0.6953899999999998  0.08201000000000001  1.0000
  H   H158      1.0  0.47851999999999995  0.7512899999999999  0.05341  1.0000
  H   H159      1.0  0.52425  0.64994  0.03635  1.0000
  H   H160      1.0  0.44558  0.50299  0.9836200000000003  1.0000
  C   C1        1.0  0.88026  0.9272899999999998  0.76983  1.0000
  C   C2        1.0  0.72617  0.04866999999999999  0.75723  1.0000
  C   C3        1.0  0.27868  0.3773199999999999  0.78846  1.0000
  C   C4        1.0  0.30334  0.34983  0.819  1.0000
  C   C5        1.0  0.2889  0.37487  0.8499300000000001  1.0000
  C   C6        1.0  0.31494  0.35092  0.87852  1.0000
  C   C7        1.0  0.35445999999999994  0.30219999999999997  0.87653  1.0000
  C   C8        1.0  0.36795  0.2772  0.8456500000000002  1.0000
  C   C9        1.0  0.34256999999999993  0.30111  0.8167300000000001  1.0000
  C   C10       1.0  0.44388  0.21455999999999995  0.8693400000000001  1.0000
  C   C11       1.0  0.4886999999999999  0.16605999999999999  0.85863  1.0000
  C   C12       1.0  0.5333399999999999  0.15531999999999999  0.88738  1.0000
  C   C13       1.0  0.52372  0.18649999999999997  0.8277600000000002  1.0000
  C   C14       1.0  0.60088  0.21461999999999995  0.92105  1.0000
  C   C15       1.0  0.62564  0.16497  0.9366800000000002  1.0000
  C   C16       1.0  0.6674599999999999  0.17288999999999996  0.96253  1.0000
  C   C17       1.0  0.68471  0.22980999999999996  0.97287  1.0000
  C   C18       1.0  0.6588399999999999  0.2794499999999999  0.9572700000000001  1.0000
  C   C19       1.0  0.61714  0.27182  0.9315200000000002  1.0000
  C   C20       1.0  0.67209  0.34159  0.96853  1.0000
  C   C21       1.0  0.60688  0.14774  0.79538  1.0000
  C   C22       1.0  0.6420599999999999  0.09795999999999998  0.7875  1.0000
  C   C23       1.0  0.69005  0.10304  0.7652200000000001  1.0000
  C   C24       1.0  0.70387  0.1583  0.7507100000000001  1.0000
  C   C25       1.0  0.6683  0.20788  0.75851  1.0000
  C   C26       1.0  0.61938  0.20261999999999994  0.78064  1.0000
  C   C27       1.0  0.68192  0.26795  0.7441600000000002  1.0000
  C   C28       1.0  0.3188  0.9230199999999997  0.82633  1.0000
  C   C29       1.0  0.33121  0.96022  0.8565000000000002  1.0000
  C   C30       1.0  0.3743099999999999  0.006089999999999999  0.8534400000000001  1.0000
  C   C31       1.0  0.3855999999999999  0.04318999999999999  0.8804400000000001  1.0000
  C   C32       1.0  0.45486999999999994  0.1078  0.85076  1.0000
  C   C33       1.0  0.3551  0.0342  0.9103500000000001  1.0000
  C   C34       1.0  0.31257  0.9887199999999999  0.9136900000000002  1.0000
  C   C35       1.0  0.30019999999999997  0.9511599999999998  0.88652  1.0000
  C   C36       1.0  0.27987999999999996  0.9856299999999998  0.9464500000000001  1.0000
  C   C37       1.0  0.10766999999999997  0.9008  0.7785600000000001  1.0000
  C   C38       1.0  0.7723199999999998  0.50694  0.82329  1.0000
  C   C39       1.0  0.77722  0.5468899999999999  0.8529000000000001  1.0000
  C   C40       1.0  0.7428499999999999  0.53456  0.88124  1.0000
  C   C41       1.0  0.7504599999999999  0.5686  0.9100300000000001  1.0000
  C   C42       1.0  0.7150499999999999  0.55171  0.94023  1.0000
  C   C43       1.0  0.052349999999999994  0.94234  0.00252  1.0000
  C   C44       1.0  0.7917799999999999  0.61617  0.9106300000000002  1.0000
  C   C45       1.0  0.8246299999999998  0.62879  0.8818600000000001  1.0000
  C   C46       1.0  0.8177799999999998  0.59424  0.85319  1.0000
  C   C47       1.0  0.8856599999999999  0.70521  0.9075300000000002  1.0000
  C   C48       1.0  0.9408999999999997  0.7413999999999998  0.8965900000000001  1.0000
  C   C49       1.0  0.92347  0.78409  0.86844  1.0000
  C   C50       1.0  0.97906  0.84958  0.8322500000000002  1.0000
  C   C51       1.0  0.9283299999999999  0.8705899999999999  0.81555  1.0000
  C   C52       1.0  0.93595  0.9055699999999998  0.7868600000000001  1.0000
  C   C53       1.0  0.9937899999999998  0.9184899999999998  0.7746000000000001  1.0000
  C   C54       1.0  0.04431  0.89539  0.7913  1.0000
  C   C55       1.0  0.03665  0.8620799999999998  0.82022  1.0000
  C   C56       1.0  0.9901099999999998  0.69945  0.8836  1.0000
  C   C57       1.0  0.05341999999999999  0.62207  0.90531  1.0000
  C   C58       1.0  0.07264999999999999  0.60371  0.8739  1.0000
  C   C59       1.0  0.11717  0.55942  0.8712700000000001  1.0000
  C   C60       1.0  0.13641  0.5392399999999999  0.8377600000000001  1.0000
  C   C61       1.0  0.1433  0.53434  0.89954  1.0000
  C   C62       1.0  0.12453999999999997  0.55458  0.9308000000000001  1.0000
  C   C63       1.0  0.07961  0.5978199999999999  0.93381  1.0000
  C   C64       1.0  0.15356  0.53196  0.9611800000000001  1.0000
  C   C65       1.0  0.6926199999999999  0.11882999999999998  0.97881  1.0000
  C   C66       1.0  0.30158  0.37676  0.9117700000000001  1.0000
  C   C67       1.0  0.8283599999999999  0.97919  0.9953600000000001  1.0000
  C   C68       1.0  0.8833799999999999  0.94396  0.9872700000000001  1.0000
  C   C69       1.0  0.8770099999999998  0.8952799999999999  0.9660200000000001  1.0000
  C   C70       1.0  0.92728  0.86111  0.9574500000000001  1.0000
  C   C71       1.0  0.96458  0.77765  0.92602  1.0000
  C   C72       1.0  0.9841899999999999  0.8754199999999999  0.9699400000000001  1.0000
  C   C73       1.0  0.9904899999999999  0.92475  0.99107  1.0000
  C   C74       1.0  0.94028  0.95894  5e-05  1.0000
  C   C75       1.0  0.61974  0.07271  0.26983  1.0000
  C   C76       1.0  0.7738299999999999  0.95133  0.25723  1.0000
  C   C77       1.0  0.22132  0.62268  0.28846  1.0000
  C   C78       1.0  0.19665999999999997  0.6501699999999999  0.319  1.0000
  C   C79       1.0  0.2111  0.62513  0.34993  1.0000
  C   C80       1.0  0.18506  0.64907  0.37853  1.0000
  C   C81       1.0  0.14553999999999997  0.69779  0.37654  1.0000
  C   C82       1.0  0.13204999999999997  0.7228  0.34565000000000007  1.0000
  C   C83       1.0  0.15742999999999996  0.69888  0.31673  1.0000
  C   C84       1.0  0.05611999999999999  0.7854299999999999  0.36934000000000006  1.0000
  C   C85       1.0  0.011299999999999996  0.8339399999999998  0.3586300000000001  1.0000
  C   C86       1.0  0.96667  0.8446799999999999  0.38738  1.0000
  C   C87       1.0  0.9762799999999998  0.8135  0.32776  1.0000
  C   C88       1.0  0.89912  0.7853799999999999  0.42105  1.0000
  C   C89       1.0  0.87436  0.8350299999999998  0.43668  1.0000
  C   C90       1.0  0.8325399999999998  0.82711  0.46253  1.0000
  C   C91       1.0  0.8152899999999998  0.77018  0.47287  1.0000
  C   C92       1.0  0.84116  0.72054  0.45728  1.0000
  C   C93       1.0  0.8828599999999998  0.7281699999999999  0.43152000000000007  1.0000
  C   C94       1.0  0.8279099999999998  0.65841  0.46854  1.0000
  C   C95       1.0  0.8931199999999998  0.85225  0.29538  1.0000
  C   C96       1.0  0.85795  0.9020399999999998  0.28751000000000004  1.0000
  C   C97       1.0  0.80995  0.89696  0.26522  1.0000
  C   C98       1.0  0.7961299999999998  0.8416999999999999  0.25071  1.0000
  C   C99       1.0  0.8316999999999999  0.79212  0.25852  1.0000
  C   C100      1.0  0.8806199999999997  0.79737  0.28064000000000006  1.0000
  C   C101      1.0  0.8180799999999999  0.7320499999999999  0.24416  1.0000
  C   C102      1.0  0.1812  0.07697999999999999  0.32633  1.0000
  C   C103      1.0  0.1688  0.03977  0.3565  1.0000
  C   C104      1.0  0.12569  0.9939099999999998  0.35344  1.0000
  C   C105      1.0  0.11440999999999998  0.9568099999999999  0.38044  1.0000
  C   C106      1.0  0.04513  0.8921999999999999  0.35076  1.0000
  C   C107      1.0  0.1449  0.9658  0.41035  1.0000
  C   C108      1.0  0.18742999999999996  0.011279999999999997  0.41369000000000006  1.0000
  C   C109      1.0  0.19979999999999998  0.04884  0.38652  1.0000
  C   C110      1.0  0.22011999999999998  0.01436  0.44645  1.0000
  C   C111      1.0  0.39233  0.09918999999999999  0.27856  1.0000
  C   C112      1.0  0.72769  0.4930499999999999  0.32329  1.0000
  C   C113      1.0  0.72279  0.45309999999999995  0.35290000000000005  1.0000
  C   C114      1.0  0.75715  0.4654399999999999  0.3812400000000001  1.0000
  C   C115      1.0  0.74954  0.43139999999999995  0.41003  1.0000
  C   C116      1.0  0.7849499999999999  0.44829  0.44023000000000007  1.0000
  C   C117      1.0  0.44764999999999994  0.05765999999999999  0.50252  1.0000
  C   C118      1.0  0.7082199999999998  0.3838199999999999  0.41064000000000006  1.0000
  C   C119      1.0  0.67537  0.37121  0.38186  1.0000
  C   C120      1.0  0.68222  0.40576  0.35319000000000006  1.0000
  C   C121      1.0  0.61434  0.29479  0.40753  1.0000
  C   C122      1.0  0.55911  0.2586  0.39659  1.0000
  C   C123      1.0  0.57653  0.21589999999999998  0.36844000000000005  1.0000
  C   C124      1.0  0.52094  0.15042  0.33225  1.0000
  C   C125      1.0  0.57167  0.12941  0.31555  1.0000
  C   C126      1.0  0.56405  0.09443  0.28686000000000006  1.0000
  C   C127      1.0  0.50621  0.08150999999999999  0.27460000000000007  1.0000
  C   C128      1.0  0.45569  0.10460999999999998  0.2913  1.0000
  C   C129      1.0  0.46334999999999993  0.13792  0.32022  1.0000
  C   C130      1.0  0.50989  0.30054  0.38361  1.0000
  C   C131      1.0  0.4465799999999999  0.37793  0.4053100000000001  1.0000
  C   C132      1.0  0.4273499999999999  0.39629  0.37390000000000007  1.0000
  C   C133      1.0  0.3828299999999999  0.44058  0.37127000000000004  1.0000
  C   C134      1.0  0.3635899999999999  0.46075999999999995  0.33777  1.0000
  C   C135      1.0  0.3567  0.46565999999999996  0.39954000000000006  1.0000
  C   C136      1.0  0.37546  0.44542  0.4308  1.0000
  C   C137      1.0  0.42039  0.40218  0.43381  1.0000
  C   C138      1.0  0.34644  0.46803  0.46118000000000003  1.0000
  C   C139      1.0  0.8073799999999999  0.88117  0.47881  1.0000
  C   C140      1.0  0.19841999999999996  0.6232399999999999  0.41177  1.0000
  C   C141      1.0  0.67164  0.02081  0.49536  1.0000
  C   C142      1.0  0.61662  0.056039999999999986  0.48727  1.0000
  C   C143      1.0  0.62299  0.10470999999999998  0.46602000000000005  1.0000
  C   C144      1.0  0.5727199999999999  0.13889  0.45746  1.0000
  C   C145      1.0  0.53542  0.22234999999999994  0.42602000000000007  1.0000
  C   C146      1.0  0.5158099999999999  0.12457999999999997  0.46995  1.0000
  C   C147      1.0  0.5095099999999999  0.07524999999999998  0.49107000000000006  1.0000
  C   C148      1.0  0.55972  0.04106  0.50005  1.0000
  C   C149      1.0  0.11974  0.42729  0.73016  1.0000
  C   C150      1.0  0.27383  0.54867  0.7427700000000002  1.0000
  C   C151      1.0  0.7213199999999999  0.87732  0.7115400000000001  1.0000
  C   C152      1.0  0.69666  0.8498299999999999  0.681  1.0000
  C   C153      1.0  0.7111  0.87487  0.6500600000000001  1.0000
  C   C154      1.0  0.6850599999999999  0.8509199999999999  0.62147  1.0000
  C   C155      1.0  0.64555  0.8022  0.62346  1.0000
  C   C156      1.0  0.6320499999999999  0.7771999999999999  0.65435  1.0000
  C   C157      1.0  0.6574299999999998  0.80111  0.68327  1.0000
  C   C158      1.0  0.55612  0.71456  0.6306600000000001  1.0000
  C   C159      1.0  0.5113  0.66606  0.6413600000000002  1.0000
  C   C160      1.0  0.46665999999999996  0.6553199999999999  0.6126100000000001  1.0000
  C   C161      1.0  0.4762799999999999  0.6865  0.67223  1.0000
  C   C162      1.0  0.39911999999999986  0.71462  0.57895  1.0000
  C   C163      1.0  0.37436  0.66497  0.56332  1.0000
  C   C164      1.0  0.33254  0.67289  0.53747  1.0000
  C   C165      1.0  0.31529  0.7298199999999998  0.52712  1.0000
  C   C166      1.0  0.34116  0.77945  0.54272  1.0000
  C   C167      1.0  0.38285  0.77183  0.56848  1.0000
  C   C168      1.0  0.32791  0.8415899999999997  0.5314600000000002  1.0000
  C   C169      1.0  0.39311999999999997  0.64774  0.70462  1.0000
  C   C170      1.0  0.35795  0.59796  0.7124900000000001  1.0000
  C   C171      1.0  0.30995  0.60304  0.7347700000000001  1.0000
  C   C172      1.0  0.29613  0.6582999999999999  0.74929  1.0000
  C   C173      1.0  0.3317  0.70788  0.74148  1.0000
  C   C174      1.0  0.38062  0.70262  0.71935  1.0000
  C   C175      1.0  0.3180799999999999  0.76794  0.75584  1.0000
  C   C176      1.0  0.6811999999999999  0.42302  0.67367  1.0000
  C   C177      1.0  0.66879  0.46021999999999996  0.64349  1.0000
  C   C178      1.0  0.62569  0.5060899999999999  0.64656  1.0000
  C   C179      1.0  0.61441  0.54319  0.61956  1.0000
  C   C180      1.0  0.54514  0.6077999999999999  0.64924  1.0000
  C   C181      1.0  0.6449  0.5341999999999999  0.58965  1.0000
  C   C182      1.0  0.68743  0.48872  0.5863000000000002  1.0000
  C   C183      1.0  0.6998  0.45115999999999995  0.61348  1.0000
  C   C184      1.0  0.72012  0.4856299999999999  0.55354  1.0000
  C   C185      1.0  0.8923199999999999  0.40081  0.72144  1.0000
  C   C186      1.0  0.22770999999999997  0.006919999999999998  0.6767000000000001  1.0000
  C   C187      1.0  0.22278  0.046869999999999995  0.64709  1.0000
  C   C188      1.0  0.25714  0.03454999999999999  0.61875  1.0000
  C   C189      1.0  0.24952999999999995  0.06859  0.58996  1.0000
  C   C190      1.0  0.28495  0.05171  0.55976  1.0000
  C   C191      1.0  0.9476499999999998  0.4423399999999999  0.49748000000000003  1.0000
  C   C192      1.0  0.20821999999999996  0.11616999999999997  0.58936  1.0000
  C   C193      1.0  0.17536  0.12877999999999998  0.6181300000000001  1.0000
  C   C194      1.0  0.18221  0.09422  0.6468  1.0000
  C   C195      1.0  0.11434  0.20520999999999995  0.59247  1.0000
  C   C196      1.0  0.05909999999999999  0.24139999999999998  0.60341  1.0000
  C   C197      1.0  0.07653  0.28409999999999996  0.63155  1.0000
  C   C198      1.0  0.02093  0.34958  0.66775  1.0000
  C   C199      1.0  0.07165999999999999  0.37059  0.68444  1.0000
  C   C200      1.0  0.06403999999999999  0.40557  0.7131300000000002  1.0000
  C   C201      1.0  0.00621  0.41849  0.7254  1.0000
  C   C202      1.0  0.9556899999999999  0.39538999999999996  0.7087  1.0000
  C   C203      1.0  0.96335  0.36207999999999996  0.67978  1.0000
  C   C204      1.0  0.00989  0.19945  0.61639  1.0000
  C   C205      1.0  0.94658  0.12206999999999998  0.59468  1.0000
  C   C206      1.0  0.9273499999999998  0.10370999999999997  0.6260900000000001  1.0000
  C   C207      1.0  0.88283  0.05942  0.62873  1.0000
  C   C208      1.0  0.86359  0.03923999999999999  0.66223  1.0000
  C   C209      1.0  0.8567  0.03434  0.60046  1.0000
  C   C210      1.0  0.87546  0.05457999999999999  0.5692  1.0000
  C   C211      1.0  0.92039  0.09781999999999999  0.56618  1.0000
  C   C212      1.0  0.84644  0.03196  0.53881  1.0000
  C   C213      1.0  0.30738  0.61883  0.52118  1.0000
  C   C214      1.0  0.69842  0.87676  0.5882300000000001  1.0000
  C   C215      1.0  0.17164  0.47919  0.50463  1.0000
  C   C216      1.0  0.11661999999999999  0.44396  0.51272  1.0000
  C   C217      1.0  0.12298999999999999  0.39528  0.53397  1.0000
  C   C218      1.0  0.07272  0.36111  0.54254  1.0000
  C   C219      1.0  0.03542  0.27765  0.57397  1.0000
  C   C220      1.0  0.01581  0.37542  0.53005  1.0000
  C   C221      1.0  0.009509999999999998  0.4247499999999999  0.50893  1.0000
  C   C222      1.0  0.059719999999999995  0.45893999999999996  0.49994000000000005  1.0000
  C   C223      1.0  0.3802599999999999  0.57271  0.23017000000000004  1.0000
  C   C224      1.0  0.22617  0.45132999999999995  0.24277000000000004  1.0000
  C   C225      1.0  0.77868  0.12268  0.21154000000000003  1.0000
  C   C226      1.0  0.80334  0.15016999999999997  0.181  1.0000
  C   C227      1.0  0.78891  0.12513  0.15006  1.0000
  C   C228      1.0  0.81494  0.14907  0.12147  1.0000
  C   C229      1.0  0.85446  0.19779  0.12346000000000001  1.0000
  C   C230      1.0  0.86795  0.22279999999999994  0.15435  1.0000
  C   C231      1.0  0.84258  0.19888999999999998  0.18327  1.0000
  C   C232      1.0  0.94388  0.28544  0.13066  1.0000
  C   C233      1.0  0.9887  0.33393999999999996  0.14137  1.0000
  C   C234      1.0  0.03334  0.34467999999999993  0.11261  1.0000
  C   C235      1.0  0.02372  0.3135  0.17223  1.0000
  C   C236      1.0  0.10087999999999998  0.28538  0.07895  1.0000
  C   C237      1.0  0.12564  0.33503  0.06332  1.0000
  C   C238      1.0  0.16746  0.32711  0.03747  1.0000
  C   C239      1.0  0.18471  0.2701799999999999  0.027130000000000005  1.0000
  C   C240      1.0  0.15883999999999998  0.22055  0.04272  1.0000
  C   C241      1.0  0.11715  0.22816999999999998  0.06848  1.0000
  C   C242      1.0  0.17209  0.15841  0.03146  1.0000
  C   C243      1.0  0.10687999999999999  0.35224999999999995  0.20462  1.0000
  C   C244      1.0  0.14205  0.40204  0.21249  1.0000
  C   C245      1.0  0.19005  0.39696  0.23477000000000003  1.0000
  C   C246      1.0  0.20386999999999997  0.3417  0.24929000000000004  1.0000
  C   C247      1.0  0.1683  0.29212  0.24148000000000006  1.0000
  C   C248      1.0  0.11938  0.29737  0.21935000000000002  1.0000
  C   C249      1.0  0.18192  0.23205  0.25584  1.0000
  C   C250      1.0  0.8187999999999999  0.57698  0.17367  1.0000
  C   C251      1.0  0.8312099999999999  0.53977  0.14349  1.0000
  C   C252      1.0  0.87431  0.49390999999999996  0.14656  1.0000
  C   C253      1.0  0.8855999999999999  0.45680999999999994  0.11956000000000001  1.0000
  C   C254      1.0  0.95487  0.3922  0.14924  1.0000
  C   C255      1.0  0.8550999999999997  0.4658  0.08965000000000001  1.0000
  C   C256      1.0  0.81257  0.51128  0.08631000000000001  1.0000
  C   C257      1.0  0.8002  0.54884  0.11348  1.0000
  C   C258      1.0  0.77988  0.51436  0.05355  1.0000
  C   C259      1.0  0.6076799999999999  0.5991899999999999  0.22144  1.0000
  C   C260      1.0  0.27231999999999995  0.9930499999999998  0.1767  1.0000
  C   C261      1.0  0.27722  0.9530999999999998  0.14709000000000003  1.0000
  C   C262      1.0  0.24284999999999998  0.9654399999999999  0.11876000000000002  1.0000
  C   C263      1.0  0.25046  0.9313999999999999  0.08997000000000001  1.0000
  C   C264      1.0  0.21504999999999996  0.94829  0.059770000000000004  1.0000
  C   C265      1.0  0.55236  0.55766  0.9974800000000001  1.0000
  C   C266      1.0  0.29178  0.88382  0.08936  1.0000
  C   C267      1.0  0.3246299999999999  0.8712099999999999  0.11813  1.0000
  C   C268      1.0  0.31777999999999995  0.90575  0.14680000000000004  1.0000
  C   C269      1.0  0.38566  0.7947899999999999  0.09247  1.0000
  C   C270      1.0  0.4409  0.7586  0.10341000000000003  1.0000
  C   C271      1.0  0.4234699999999999  0.71591  0.13155000000000003  1.0000
  C   C272      1.0  0.47905999999999993  0.65042  0.16775000000000004  1.0000
  C   C273      1.0  0.42834  0.6294099999999999  0.18445  1.0000
  C   C274      1.0  0.43595  0.59443  0.21313000000000001  1.0000
  C   C275      1.0  0.49379  0.58151  0.2254  1.0000
  C   C276      1.0  0.5443099999999998  0.60461  0.2087  1.0000
  C   C277      1.0  0.53665  0.63792  0.17978  1.0000
  C   C278      1.0  0.49011  0.8005499999999998  0.11639000000000001  1.0000
  C   C279      1.0  0.55342  0.8779299999999999  0.09468  1.0000
  C   C280      1.0  0.57265  0.89629  0.1261  1.0000
  C   C281      1.0  0.61717  0.9405799999999999  0.12873  1.0000
  C   C282      1.0  0.63641  0.9607599999999998  0.16223  1.0000
  C   C283      1.0  0.6433  0.96566  0.10046000000000001  1.0000
  C   C284      1.0  0.62454  0.94542  0.0692  1.0000
  C   C285      1.0  0.5796099999999998  0.9021799999999999  0.06618000000000002  1.0000
  C   C286      1.0  0.65356  0.9680399999999998  0.038810000000000004  1.0000
  C   C287      1.0  0.19262  0.38117  0.02119  1.0000
  C   C288      1.0  0.80158  0.12323999999999997  0.08823  1.0000
  C   C289      1.0  0.32836  0.52081  0.00463  1.0000
  C   C290      1.0  0.3833799999999999  0.5560399999999999  0.01272  1.0000
  C   C291      1.0  0.37701  0.60471  0.03397  1.0000
  C   C292      1.0  0.42728  0.63889  0.04254  1.0000
  C   C293      1.0  0.46458  0.7223499999999998  0.07398  1.0000
  C   C294      1.0  0.48419  0.62458  0.030050000000000004  1.0000
  C   C295      1.0  0.49049  0.57525  0.008930000000000002  1.0000
  C   C296      1.0  0.4402799999999999  0.54106  0.9999400000000002  1.0000
  O   O1        1.0  0.88586  0.9599199999999999  0.74417  1.0000
  O   O2        1.0  0.8297299999999999  0.91089  0.7828  1.0000
  O   O3        1.0  0.7120299999999999  0.00041  0.7726700000000001  1.0000
  O   O4        1.0  0.7680099999999999  0.05379999999999999  0.7358500000000001  1.0000
  O   O5        1.0  0.23976  0.41954  0.79094  1.0000
  O   O6        1.0  0.29676  0.36072999999999994  0.75945  1.0000
  O   O7        1.0  0.40601  0.22926999999999997  0.84147  1.0000
  O   O8        1.0  0.5617  0.13740999999999998  0.81795  1.0000
  O   O9        1.0  0.56039  0.21194999999999997  0.8953600000000002  1.0000
  O   O10       1.0  0.64281  0.30928999999999995  0.75051  1.0000
  O   O11       1.0  0.7300599999999999  0.27418999999999993  0.72715  1.0000
  O   O12       1.0  0.63677  0.3817899999999999  0.9579000000000001  1.0000
  O   O13       1.0  0.71802  0.34871  0.98816  1.0000
  O   O14       1.0  0.7452799999999998  0.40167  0.75207  1.0000
  O   O15       1.0  0.35501999999999995  0.93139  0.8014200000000001  1.0000
  O   O16       1.0  0.27467  0.88685  0.82654  1.0000
  O   O17       1.0  0.14546  0.8655799999999999  0.7928500000000003  1.0000
  O   O18       1.0  0.11878999999999999  0.9375899999999998  0.75538  1.0000
  O   O19       1.0  0.81338  0.51596  0.79993  1.0000
  O   O20       1.0  0.7333699999999997  0.46727  0.82157  1.0000
  O   O21       1.0  0.05438999999999999  0.9849899999999999  0.02359  1.0000
  O   O22       1.0  0.0972  0.91398  0.9901  1.0000
  O   O23       1.0  0.67832  0.50839  0.93628  1.0000
  O   O24       1.0  0.72417  0.58002  0.9675000000000001  1.0000
  O   O25       1.0  0.16054  0.02855  0.9850300000000001  1.0000
  O   O26       1.0  0.29079999999999995  0.029869999999999994  0.9663000000000002  1.0000
  O   O27       1.0  0.24543999999999996  0.94174  0.95253  1.0000
  O   O28       1.0  0.8659499999999999  0.6738499999999998  0.8785700000000001  1.0000
  O   O29       1.0  0.42491999999999996  0.09015  0.88082  1.0000
  O   O30       1.0  0.97805  0.81571  0.86038  1.0000
  O   O31       1.0  0.11773999999999998  0.56548  0.81162  1.0000
  O   O32       1.0  0.17247  0.49439  0.8352600000000001  1.0000
  O   O33       1.0  0.13939  0.55367  0.98976  1.0000
  O   O34       1.0  0.19393  0.49098999999999987  0.9593900000000001  1.0000
  O   O35       1.0  0.67611  0.06862999999999998  0.9662  1.0000
  O   O36       1.0  0.7277  0.12534999999999996  0.00349  1.0000
  O   O37       1.0  0.7792599999999998  0.96169  0.98131  1.0000
  O   O38       1.0  0.83338  0.0233  0.01507  1.0000
  O   O39       1.0  0.26651  0.42237999999999987  0.9138500000000002  1.0000
  O   O40       1.0  0.32424  0.35419999999999996  0.93797  1.0000
  O   O41       1.0  0.91534  0.81516  0.9361800000000001  1.0000
  O   O42       1.0  0.009199999999999998  0.66347  0.91108  1.0000
  O   O43       1.0  0.6141499999999999  0.04008  0.24417000000000003  1.0000
  O   O44       1.0  0.6702699999999999  0.08909999999999998  0.2828  1.0000
  O   O45       1.0  0.78798  0.9995899999999999  0.27268  1.0000
  O   O46       1.0  0.73199  0.9461999999999998  0.23585  1.0000
  O   O47       1.0  0.26024  0.58046  0.29094  1.0000
  O   O48       1.0  0.20323999999999995  0.63926  0.25945  1.0000
  O   O49       1.0  0.09398999999999999  0.7707199999999998  0.34147000000000005  1.0000
  O   O50       1.0  0.9383  0.86258  0.3179600000000001  1.0000
  O   O51       1.0  0.9396199999999999  0.78805  0.39536000000000004  1.0000
  O   O52       1.0  0.85719  0.6907  0.25052  1.0000
  O   O53       1.0  0.76994  0.72581  0.22715  1.0000
  O   O54       1.0  0.8632299999999999  0.6182  0.4579  1.0000
  O   O55       1.0  0.78199  0.65128  0.48816  1.0000
  O   O56       1.0  0.75472  0.59833  0.25207  1.0000
  O   O57       1.0  0.14498  0.06861  0.30142  1.0000
  O   O58       1.0  0.22533  0.11314999999999997  0.32654000000000005  1.0000
  O   O59       1.0  0.35453999999999997  0.13441999999999998  0.29285  1.0000
  O   O60       1.0  0.38121  0.06239999999999999  0.25538  1.0000
  O   O61       1.0  0.68663  0.48404  0.29993  1.0000
  O   O62       1.0  0.76663  0.53273  0.32157  1.0000
  O   O63       1.0  0.44560999999999995  0.015009999999999999  0.52359  1.0000
  O   O64       1.0  0.4027999999999999  0.08601999999999999  0.4901  1.0000
  O   O65       1.0  0.82168  0.4916099999999999  0.43628000000000006  1.0000
  O   O66       1.0  0.77584  0.41997999999999996  0.4675000000000001  1.0000
  O   O67       1.0  0.33946  0.9714399999999997  0.48503000000000007  1.0000
  O   O68       1.0  0.2092  0.9701299999999998  0.46630000000000005  1.0000
  O   O69       1.0  0.25456  0.05825  0.45253  1.0000
  O   O70       1.0  0.63406  0.32615  0.3785700000000001  1.0000
  O   O71       1.0  0.07509  0.9098399999999999  0.38082  1.0000
  O   O72       1.0  0.52195  0.18428  0.36038  1.0000
  O   O73       1.0  0.38225999999999993  0.43451999999999996  0.31162  1.0000
  O   O74       1.0  0.32753  0.50561  0.33526  1.0000
  O   O75       1.0  0.36061  0.44633  0.48977  1.0000
  O   O76       1.0  0.30607  0.50901  0.4593900000000001  1.0000
  O   O77       1.0  0.82389  0.93137  0.4662  1.0000
  O   O78       1.0  0.7722999999999999  0.87465  0.50349  1.0000
  O   O79       1.0  0.7207499999999999  0.03831  0.48131  1.0000
  O   O80       1.0  0.66663  0.9766999999999999  0.5150700000000001  1.0000
  O   O81       1.0  0.23349  0.57761  0.41386  1.0000
  O   O82       1.0  0.17576  0.6458  0.4379700000000001  1.0000
  O   O83       1.0  0.58466  0.18484  0.43618  1.0000
  O   O84       1.0  0.4908  0.33653  0.4110800000000001  1.0000
  O   O85       1.0  0.11415  0.45992  0.75582  1.0000
  O   O86       1.0  0.17027  0.41088999999999987  0.7172000000000001  1.0000
  O   O87       1.0  0.28798  0.50041  0.72732  1.0000
  O   O88       1.0  0.23199  0.5538  0.76415  1.0000
  O   O89       1.0  0.76024  0.9195399999999999  0.70905  1.0000
  O   O90       1.0  0.7032399999999999  0.86073  0.74054  1.0000
  O   O91       1.0  0.59399  0.72927  0.65853  1.0000
  O   O92       1.0  0.4383  0.63741  0.6820400000000001  1.0000
  O   O93       1.0  0.43962  0.7119499999999999  0.60464  1.0000
  O   O94       1.0  0.35719  0.80929  0.74948  1.0000
  O   O95       1.0  0.26994  0.7741799999999999  0.77285  1.0000
  O   O96       1.0  0.36322999999999994  0.8817999999999999  0.5421000000000001  1.0000
  O   O97       1.0  0.28199  0.84872  0.51184  1.0000
  O   O98       1.0  0.25472  0.9016599999999999  0.7479300000000001  1.0000
  O   O99       1.0  0.6449799999999999  0.4313899999999999  0.6985700000000001  1.0000
  O   O100      1.0  0.72533  0.38685  0.67345  1.0000
  O   O101      1.0  0.85454  0.36557999999999996  0.70715  1.0000
  O   O102      1.0  0.88121  0.4376  0.74461  1.0000
  O   O103      1.0  0.18666999999999997  0.015939999999999996  0.70007  1.0000
  O   O104      1.0  0.26666999999999996  0.9672499999999999  0.67841  1.0000
  O   O105      1.0  0.94561  0.4849899999999999  0.47641  1.0000
  O   O106      1.0  0.9028  0.41398  0.50989  1.0000
  O   O107      1.0  0.32168  0.00839  0.5637100000000002  1.0000
  O   O108      1.0  0.27584  0.08001999999999998  0.5324900000000001  1.0000
  O   O109      1.0  0.8394599999999999  0.52855  0.51496  1.0000
  O   O110      1.0  0.70921  0.52987  0.5337000000000001  1.0000
  O   O111      1.0  0.7545599999999998  0.44174  0.54746  1.0000
  O   O112      1.0  0.13407  0.17386  0.62143  1.0000
  O   O113      1.0  0.57509  0.59015  0.6191700000000001  1.0000
  O   O114      1.0  0.021949999999999997  0.31571999999999995  0.63961  1.0000
  O   O115      1.0  0.8822699999999998  0.06547999999999998  0.6883800000000001  1.0000
  O   O116      1.0  0.8275299999999999  0.9943899999999999  0.66474  1.0000
  O   O117      1.0  0.86062  0.05366999999999999  0.51023  1.0000
  O   O118      1.0  0.8060699999999998  0.9909899999999999  0.5406  1.0000
  O   O119      1.0  0.32389  0.56863  0.5337900000000001  1.0000
  O   O120      1.0  0.2723  0.62535  0.49651000000000006  1.0000
  O   O121      1.0  0.22074  0.46169  0.51868  1.0000
  O   O122      1.0  0.16663  0.5233  0.48493  1.0000
  O   O123      1.0  0.73349  0.92238  0.58614  1.0000
  O   O124      1.0  0.67576  0.8542  0.56203  1.0000
  O   O125      1.0  0.08466  0.31516  0.56382  1.0000
  O   O126      1.0  0.9908  0.16346999999999998  0.58892  1.0000
  O   O127      1.0  0.38585  0.54008  0.25582  1.0000
  O   O128      1.0  0.32973  0.5891  0.21720000000000003  1.0000
  O   O129      1.0  0.21201999999999996  0.49959  0.22732  1.0000
  O   O130      1.0  0.26801  0.4462  0.26415  1.0000
  O   O131      1.0  0.7397599999999999  0.08046  0.20906000000000002  1.0000
  O   O132      1.0  0.79676  0.13926  0.24054000000000003  1.0000
  O   O133      1.0  0.9060199999999998  0.27072  0.15853  1.0000
  O   O134      1.0  0.0617  0.36258  0.18204  1.0000
  O   O135      1.0  0.06038  0.28805  0.10464000000000001  1.0000
  O   O136      1.0  0.14281  0.1907  0.24948000000000004  1.0000
  O   O137      1.0  0.23006  0.22581  0.27285  1.0000
  O   O138      1.0  0.13677  0.11820999999999998  0.042100000000000005  1.0000
  O   O139      1.0  0.21800999999999995  0.15128  0.011840000000000002  1.0000
  O   O140      1.0  0.24527999999999994  0.09833  0.24793000000000004  1.0000
  O   O141      1.0  0.8550199999999999  0.56861  0.19858  1.0000
  O   O142      1.0  0.7746699999999999  0.61315  0.17345  1.0000
  O   O143      1.0  0.64546  0.63442  0.20715  1.0000
  O   O144      1.0  0.6187899999999998  0.5624  0.24461  1.0000
  O   O145      1.0  0.3133699999999999  0.9840399999999999  0.20007  1.0000
  O   O146      1.0  0.23336999999999994  0.032729999999999995  0.17843  1.0000
  O   O147      1.0  0.5543899999999999  0.51501  0.97641  1.0000
  O   O148      1.0  0.59721  0.5860199999999999  0.0099  1.0000
  O   O149      1.0  0.17832  0.99161  0.06372  1.0000
  O   O150      1.0  0.22416  0.91998  0.0325  1.0000
  O   O151      1.0  0.6605499999999999  0.47144  0.014970000000000002  1.0000
  O   O152      1.0  0.7907999999999998  0.47013  0.0337  1.0000
  O   O153      1.0  0.74544  0.55825  0.04747  1.0000
  O   O154      1.0  0.36594999999999994  0.8261499999999999  0.12143  1.0000
  O   O155      1.0  0.9249199999999999  0.40984  0.11917  1.0000
  O   O156      1.0  0.47805  0.6842799999999999  0.13962  1.0000
  O   O157      1.0  0.61774  0.9345199999999998  0.18838  1.0000
  O   O158      1.0  0.67247  0.00561  0.16474000000000003  1.0000
  O   O159      1.0  0.63939  0.94633  0.01023  1.0000
  O   O160      1.0  0.6939299999999999  0.009009999999999999  0.0406  1.0000
  O   O161      1.0  0.17611  0.4313699999999999  0.03379  1.0000
  O   O162      1.0  0.22769999999999999  0.3746499999999999  0.99651  1.0000
  O   O163      1.0  0.27926  0.53831  0.01869  1.0000
  O   O164      1.0  0.33337  0.47669999999999996  0.9849200000000002  1.0000
  O   O165      1.0  0.76652  0.07761  0.08614  1.0000
  O   O166      1.0  0.82424  0.1458  0.06203000000000001  1.0000
  O   O167      1.0  0.41533999999999993  0.68484  0.06382  1.0000
  O   O168      1.0  0.5092  0.83653  0.08892  1.0000
