data_image0
_chemical_formula_structural       Ag16H336C240N96
_chemical_formula_sum              "Ag16 H336 C240 N96"
_cell_length_a       22.61448
_cell_length_b       22.79467
_cell_length_c       22.80508
_cell_angle_alpha    93.60159999999999
_cell_angle_beta     117.98744000000002
_cell_angle_gamma    117.98586

_symmetry_space_group_name_H-M    'P 1'
_symmetry_Int_Tables_number       1

loop_
  _symmetry_equiv_pos_as_xyz
  'x,y,z'

loop_
  _atom_site_type_symbol
  _atom_site_label
  _atom_site_symmetry_multiplicity
  _atom_site_fract_x
  _atom_site_fract_y
  _atom_site_fract_z
  _atom_site_occupancy
  Ag  Ag1       1.0  0.010559999999999998  0.05630000000000001  0.98377  1.0000
  Ag  Ag2       1.0  0.4898600000000001  0.9722999999999999  0.54541  1.0000
  Ag  Ag3       1.0  0.07271000000000002  0.044900000000000016  0.55723  1.0000
  Ag  Ag4       1.0  0.42640000000000006  0.4832099999999999  0.47089  1.0000
  Ag  Ag5       1.0  0.42733999999999994  0.4426999999999999  0.9550499999999998  1.0000
  Ag  Ag6       1.0  0.07352999999999996  0.52899  0.51664  1.0000
  Ag  Ag7       1.0  0.010139999999999998  0.45464  0.027819999999999998  1.0000
  Ag  Ag8       1.0  0.48947  0.01633000000000002  0.94378  1.0000
  Ag  Ag9       1.0  0.9894399999999999  0.9436999999999999  0.01624  1.0000
  Ag  Ag10      1.0  0.51014  0.02768999999999998  0.45458999999999994  1.0000
  Ag  Ag11      1.0  0.92729  0.95509  0.44277  1.0000
  Ag  Ag12      1.0  0.5736  0.51679  0.52911  1.0000
  Ag  Ag13      1.0  0.57266  0.5573  0.04495  1.0000
  Ag  Ag14      1.0  0.92647  0.4709999999999999  0.48336  1.0000
  Ag  Ag15      1.0  0.9898599999999999  0.5453599999999997  0.9721899999999999  1.0000
  Ag  Ag16      1.0  0.51053  0.98366  0.056220000000000006  1.0000
  H   H1        1.0  0.8072  0.08591  0.11566999999999998  1.0000
  H   H2        1.0  0.82463  0.04871999999999999  0.18279  1.0000
  H   H3        1.0  0.7657200000000001  0.9932599999999999  0.09236  1.0000
  H   H4        1.0  0.11218  0.07476  0.19657  1.0000
  H   H5        1.0  0.11731  0.09539  0.2765  1.0000
  H   H6        1.0  0.15176  0.16325999999999996  0.24256  1.0000
  H   H7        1.0  0.8656  0.90377  0.18492  1.0000
  H   H8        1.0  0.8002299999999998  0.9306899999999999  0.17273  1.0000
  H   H9        1.0  0.82221  0.8884699999999999  0.23522000000000004  1.0000
  H   H10       1.0  0.09881  0.20584  0.33017  1.0000
  H   H11       1.0  0.15979  0.18470999999999999  0.39572  1.0000
  H   H12       1.0  0.10874999999999999  0.21578  0.41301  1.0000
  H   H13       1.0  0.96966  0.2594699999999999  0.82204  1.0000
  H   H14       1.0  0.07298000000000003  0.32076  0.85496  1.0000
  H   H15       1.0  0.03901  0.32281  0.91033  1.0000
  H   H16       1.0  0.20663999999999993  0.17393999999999998  0.00906  1.0000
  H   H17       1.0  0.1859599999999999  0.15465  0.92211  1.0000
  H   H18       1.0  0.12247999999999985  0.08873999999999987  0.9427399999999999  1.0000
  H   H19       1.0  0.8772399999999999  0.06522  0.04272  1.0000
  H   H20       1.0  0.03898999999999998  0.08383999999999997  0.4332599999999999  1.0000
  H   H21       1.0  0.96475  0.17691999999999997  0.91713  1.0000
  H   H22       1.0  0.69202  0.30881  0.77841  1.0000
  H   H23       1.0  0.67518  0.35901  0.72426  1.0000
  H   H24       1.0  0.73534  0.32818  0.72852  1.0000
  H   H25       1.0  0.38886  0.0839  0.46509  1.0000
  H   H26       1.0  0.38609  0.16084000000000004  0.47634  1.0000
  H   H27       1.0  0.3500200000000001  0.09644999999999998  0.51282  1.0000
  H   H28       1.0  0.63654  0.32198  0.54  1.0000
  H   H29       1.0  0.70098  0.37478  0.63184  1.0000
  H   H30       1.0  0.6789099999999999  0.4152799999999999  0.5676  1.0000
  H   H31       1.0  0.39941  0.23078999999999994  0.60529  1.0000
  H   H32       1.0  0.33901000000000003  0.23533  0.52311  1.0000
  H   H33       1.0  0.3873799999999999  0.30254999999999993  0.60437  1.0000
  H   H34       1.0  0.53081  0.85011  0.78788  1.0000
  H   H35       1.0  0.42724  0.78094  0.7465  1.0000
  H   H36       1.0  0.46211  0.8703099999999999  0.78266  1.0000
  H   H37       1.0  0.29653  0.8053  0.4672299999999999  1.0000
  H   H38       1.0  0.31305999999999995  0.73614  0.46841999999999995  1.0000
  H   H39       1.0  0.37959000000000004  0.81854  0.46597  1.0000
  H   H40       1.0  0.62535  0.16751  0.68746  1.0000
  H   H41       1.0  0.45882000000000006  0.39422  0.5436  1.0000
  H   H42       1.0  0.5365899999999999  0.9506499999999999  0.71069  1.0000
  H   H43       1.0  0.97429  0.28043999999999997  0.58918  1.0000
  H   H44       1.0  0.86851  0.22534  0.54946  1.0000
  H   H45       1.0  0.90651  0.23072  0.49607  1.0000
  H   H46       1.0  0.8828899999999997  0.9663499999999998  0.57533  1.0000
  H   H47       1.0  0.81632  0.9782599999999999  0.58797  1.0000
  H   H48       1.0  0.9171  0.01350000000000003  0.66141  1.0000
  H   H49       1.0  0.72107  0.039980000000000016  0.40307  1.0000
  H   H50       1.0  0.7605500000000002  0.13178999999999993  0.4307099999999999  1.0000
  H   H51       1.0  0.65464  0.06757  0.38695  1.0000
  H   H52       1.0  0.87589  0.10763999999999999  0.70348  1.0000
  H   H53       1.0  0.7885900000000001  0.02501  0.68102  1.0000
  H   H54       1.0  0.80151  0.10599000000000004  0.71319  1.0000
  H   H55       1.0  0.44032000000000004  0.28624  0.75478  1.0000
  H   H56       1.0  0.47096  0.24647999999999998  0.81697  1.0000
  H   H57       1.0  0.41927999999999993  0.28402  0.82071  1.0000
  H   H58       1.0  0.1672099999999998  0.9685699999999999  0.68128  1.0000
  H   H59       1.0  0.23155999999999988  0.96744  0.65789  1.0000
  H   H60       1.0  0.14302000000000017  0.96406  0.59437  1.0000
  H   H61       1.0  0.02737999999999999  0.19035  0.56718  1.0000
  H   H62       1.0  0.6482  0.04364999999999999  0.58019  1.0000
  H   H63       1.0  0.2623  0.20999999999999996  0.6757  1.0000
  H   H64       1.0  0.52599  0.61244  0.80363  1.0000
  H   H65       1.0  0.63077  0.68116  0.85545  1.0000
  H   H66       1.0  0.59822  0.59146  0.82488  1.0000
  H   H67       1.0  0.61596  0.6965699999999999  0.58136  1.0000
  H   H68       1.0  0.6880699999999997  0.7733699999999999  0.66205  1.0000
  H   H69       1.0  0.58842  0.75174  0.60237  1.0000
  H   H70       1.0  0.78087  0.68417  0.82046  1.0000
  H   H71       1.0  0.7440900000000001  0.67401  0.87507  1.0000
  H   H72       1.0  0.84929  0.73593  0.91362  1.0000
  H   H73       1.0  0.62386  0.82829  0.73137  1.0000
  H   H74       1.0  0.71095  0.89244  0.73515  1.0000
  H   H75       1.0  0.69768  0.91249  0.80281  1.0000
  H   H76       1.0  0.05934999999999999  0.31921  0.34823  1.0000
  H   H77       1.0  0.02925000000000003  0.3503200000000001  0.27736  1.0000
  H   H78       1.0  0.08195999999999998  0.40668  0.366  1.0000
  H   H79       1.0  0.33342  0.51154  0.30105  1.0000
  H   H80       1.0  0.26749  0.42448  0.23508000000000004  1.0000
  H   H81       1.0  0.35519  0.44705999999999996  0.31939  1.0000
  H   H82       1.0  0.47848000000000007  0.54086  0.66265  1.0000
  H   H83       1.0  0.8507999999999998  0.9332599999999999  0.89513  1.0000
  H   H84       1.0  0.23743000000000003  0.4144999999999999  0.44771  1.0000
  H   H85       1.0  0.52581  0.41081999999999996  0.71966  1.0000
  H   H86       1.0  0.63159  0.4506  0.77474  1.0000
  H   H87       1.0  0.59355  0.50398  0.76929  1.0000
  H   H88       1.0  0.61704  0.42461999999999994  0.03355  1.0000
  H   H89       1.0  0.68378  0.4121699999999999  0.02176  1.0000
  H   H90       1.0  0.5830300000000002  0.33859000000000006  0.9864300000000001  1.0000
  H   H91       1.0  0.77908  0.59707  0.95996  1.0000
  H   H92       1.0  0.7395499999999998  0.5693599999999998  0.8681799999999998  1.0000
  H   H93       1.0  0.8454599999999998  0.6131199999999999  0.9323599999999999  1.0000
  H   H94       1.0  0.62414  0.29654  0.89246  1.0000
  H   H95       1.0  0.7114500000000001  0.31899999999999995  0.97504  1.0000
  H   H96       1.0  0.69846  0.28675  0.89408  1.0000
  H   H97       1.0  0.05961999999999996  0.24507  0.71388  1.0000
  H   H98       1.0  0.029049999999999986  0.18289000000000002  0.75367  1.0000
  H   H99       1.0  0.08064000000000002  0.1791  0.71606  1.0000
  H   H100      1.0  0.3328499999999999  0.31877  0.03141  1.0000
  H   H101      1.0  0.26856  0.3422799999999999  0.03249  1.0000
  H   H102      1.0  0.3571  0.40571  0.03581  1.0000
  H   H103      1.0  0.47272999999999993  0.4329299999999999  0.80971  1.0000
  H   H104      1.0  0.85184  0.4197900000000001  0.9563900000000001  1.0000
  H   H105      1.0  0.23771000000000003  0.32392999999999994  0.78996  1.0000
  H   H106      1.0  0.97411  0.19656  0.38768  1.0000
  H   H107      1.0  0.86931  0.14468999999999996  0.31902  1.0000
  H   H108      1.0  0.9019199999999999  0.17538999999999993  0.40869  1.0000
  H   H109      1.0  0.8839000000000001  0.41871  0.30321  1.0000
  H   H110      1.0  0.81204  0.33802  0.22644  1.0000
  H   H111      1.0  0.91176  0.39788999999999997  0.24828  1.0000
  H   H112      1.0  0.71894  0.17964999999999998  0.31574  1.0000
  H   H113      1.0  0.7561600000000002  0.12534  0.32624  1.0000
  H   H114      1.0  0.6508900000000002  0.0864  0.26422  1.0000
  H   H115      1.0  0.8761900000000001  0.26862  0.17176  1.0000
  H   H116      1.0  0.78909  0.26478  0.10756999999999999  1.0000
  H   H117      1.0  0.8023899999999999  0.19707  0.08765  1.0000
  H   H118      1.0  0.4406300000000001  0.6516900000000001  0.68064  1.0000
  H   H119      1.0  0.47076  0.7226199999999999  0.64958  1.0000
  H   H120      1.0  0.41807000000000005  0.6339599999999999  0.59323  1.0000
  H   H121      1.0  0.16679  0.69913  0.48841  1.0000
  H   H122      1.0  0.23243000000000005  0.76484  0.57556  1.0000
  H   H123      1.0  0.14460999999999988  0.6803599999999999  0.55258  1.0000
  H   H124      1.0  0.02158999999999999  0.33766  0.45911  1.0000
  H   H125      1.0  0.64926  0.10482  0.06692  1.0000
  H   H126      1.0  0.2625600000000001  0.55217  0.58531  1.0000
  H   H127      1.0  0.80786  0.22165999999999997  0.69125  1.0000
  H   H128      1.0  0.8248399999999997  0.27573  0.64104  1.0000
  H   H129      1.0  0.7646900000000001  0.27169  0.67178  1.0000
  H   H130      1.0  0.11141999999999999  0.5349499999999999  0.9162  1.0000
  H   H131      1.0  0.11388999999999995  0.5239499999999999  0.83909  1.0000
  H   H132      1.0  0.15002  0.48719  0.9031  1.0000
  H   H133      1.0  0.86348  0.45994  0.678  1.0000
  H   H134      1.0  0.79898  0.36814999999999987  0.62489  1.0000
  H   H135      1.0  0.82137  0.43271  0.58477  1.0000
  H   H136      1.0  0.10057999999999996  0.39466  0.7692  1.0000
  H   H137      1.0  0.16104999999999997  0.47689  0.76474  1.0000
  H   H138      1.0  0.11273000000000001  0.39563  0.69753  1.0000
  H   H139      1.0  0.9691000000000001  0.21198  0.1498  1.0000
  H   H140      1.0  0.07266  0.25333  0.21894  1.0000
  H   H141      1.0  0.03781  0.21723  0.1296  1.0000
  H   H142      1.0  0.20333  0.5328  0.19462  1.0000
  H   H143      1.0  0.18713000000000007  0.53158  0.26397  1.0000
  H   H144      1.0  0.12041000000000002  0.53409  0.18176  1.0000
  H   H145      1.0  0.87468  0.31277  0.83246  1.0000
  H   H146      1.0  0.041309999999999965  0.45636  0.60582  1.0000
  H   H147      1.0  0.96332  0.2893  0.04941  1.0000
  H   H148      1.0  0.6929000000000001  0.8841399999999999  0.9139099999999999  1.0000
  H   H149      1.0  0.67539  0.8170799999999999  0.95119  1.0000
  H   H150      1.0  0.73441  0.90759  0.00654  1.0000
  H   H151      1.0  0.3883400000000002  0.80383  0.92554  1.0000
  H   H152      1.0  0.3827999999999999  0.7237199999999999  0.90443  1.0000
  H   H153      1.0  0.3484899999999999  0.7580499999999998  0.83689  1.0000
  H   H154      1.0  0.63439  0.8152399999999999  0.09609  1.0000
  H   H155      1.0  0.69976  0.82736  0.06919  1.0000
  H   H156      1.0  0.6777699999999999  0.7649  0.11144  1.0000
  H   H157      1.0  0.4012300000000001  0.66982  0.79415  1.0000
  H   H158      1.0  0.34023  0.6043  0.81529  1.0000
  H   H159      1.0  0.3912700000000001  0.58694  0.78429  1.0000
  H   H160      1.0  0.5306  0.17816999999999997  0.74084  1.0000
  H   H161      1.0  0.42729000000000006  0.14526000000000006  0.67952  1.0000
  H   H162      1.0  0.46124000000000004  0.08984  0.67752  1.0000
  H   H163      1.0  0.29338000000000014  0.99087  0.82607  1.0000
  H   H164      1.0  0.31381999999999993  0.07777999999999997  0.84517  1.0000
  H   H165      1.0  0.37739  0.05733  0.91122  1.0000
  H   H166      1.0  0.62306  0.9573699999999999  0.9344899999999999  1.0000
  H   H167      1.0  0.4609500000000001  0.56673  0.91621  1.0000
  H   H168      1.0  0.53553  0.08319  0.82348  1.0000
  H   H169      1.0  0.19279999999999994  0.91408  0.88433  1.0000
  H   H170      1.0  0.17538000000000004  0.95128  0.81721  1.0000
  H   H171      1.0  0.2342899999999999  0.0067399999999999665  0.9076499999999998  1.0000
  H   H172      1.0  0.88782  0.9252399999999998  0.80343  1.0000
  H   H173      1.0  0.8827  0.90461  0.7235  1.0000
  H   H174      1.0  0.84824  0.83674  0.75744  1.0000
  H   H175      1.0  0.13439999999999996  0.09622  0.81508  1.0000
  H   H176      1.0  0.1997700000000001  0.06930000000000001  0.82727  1.0000
  H   H177      1.0  0.17779000000000003  0.11152000000000004  0.76478  1.0000
  H   H178      1.0  0.90119  0.7941500000000001  0.66983  1.0000
  H   H179      1.0  0.8402200000000001  0.8152899999999998  0.60428  1.0000
  H   H180      1.0  0.89125  0.7842199999999999  0.58699  1.0000
  H   H181      1.0  0.030339999999999936  0.7405199999999998  0.17796  1.0000
  H   H182      1.0  0.9270200000000001  0.6792399999999998  0.14505  1.0000
  H   H183      1.0  0.9609900000000001  0.67719  0.08967  1.0000
  H   H184      1.0  0.79336  0.8260599999999998  0.99094  1.0000
  H   H185      1.0  0.81404  0.84535  0.07789  1.0000
  H   H186      1.0  0.8775200000000001  0.91125  0.05726  1.0000
  H   H187      1.0  0.1227599999999999  0.9347799999999999  0.95728  1.0000
  H   H188      1.0  0.96101  0.9161599999999999  0.56674  1.0000
  H   H189      1.0  0.03525999999999992  0.8230799999999998  0.08287  1.0000
  H   H190      1.0  0.30798  0.69118  0.2216  1.0000
  H   H191      1.0  0.32482999999999995  0.6409899999999998  0.27574  1.0000
  H   H192      1.0  0.26466  0.67181  0.27148  1.0000
  H   H193      1.0  0.6111399999999999  0.9160999999999999  0.53491  1.0000
  H   H194      1.0  0.61391  0.83916  0.52367  1.0000
  H   H195      1.0  0.64998  0.9035399999999999  0.48718  1.0000
  H   H196      1.0  0.36345999999999984  0.6780199999999998  0.46  1.0000
  H   H197      1.0  0.29903  0.62522  0.36816  1.0000
  H   H198      1.0  0.3211  0.58472  0.43241  1.0000
  H   H199      1.0  0.60059  0.7692100000000001  0.39471  1.0000
  H   H200      1.0  0.6609900000000001  0.76467  0.47689  1.0000
  H   H201      1.0  0.61263  0.69744  0.39564  1.0000
  H   H202      1.0  0.46920000000000006  0.14989  0.21212  1.0000
  H   H203      1.0  0.57276  0.21906  0.2535  1.0000
  H   H204      1.0  0.53789  0.12968000000000002  0.21735000000000002  1.0000
  H   H205      1.0  0.70348  0.19469999999999998  0.53277  1.0000
  H   H206      1.0  0.68694  0.26385  0.53158  1.0000
  H   H207      1.0  0.6204100000000001  0.18145  0.53403  1.0000
  H   H208      1.0  0.37465  0.83249  0.31254  1.0000
  H   H209      1.0  0.54118  0.6057699999999999  0.45640000000000003  1.0000
  H   H210      1.0  0.46342000000000005  0.04933999999999998  0.28931  1.0000
  H   H211      1.0  0.02571999999999994  0.7195599999999999  0.41082  1.0000
  H   H212      1.0  0.13149000000000002  0.77466  0.45054  1.0000
  H   H213      1.0  0.09349000000000005  0.76927  0.50393  1.0000
  H   H214      1.0  0.11712000000000003  0.03365000000000001  0.42467  1.0000
  H   H215      1.0  0.18368000000000004  0.021740000000000016  0.41204  1.0000
  H   H216      1.0  0.08289999999999999  0.9864999999999999  0.33859  1.0000
  H   H217      1.0  0.2789400000000002  0.96002  0.59693  1.0000
  H   H218      1.0  0.23945  0.8682  0.56929  1.0000
  H   H219      1.0  0.34535999999999994  0.93243  0.61305  1.0000
  H   H220      1.0  0.12410999999999993  0.8923599999999999  0.29652  1.0000
  H   H221      1.0  0.21141  0.97499  0.31898  1.0000
  H   H222      1.0  0.19849  0.89401  0.28681  1.0000
  H   H223      1.0  0.55968  0.7137599999999998  0.24522  1.0000
  H   H224      1.0  0.5290399999999998  0.7535199999999999  0.18303  1.0000
  H   H225      1.0  0.58072  0.71598  0.17929  1.0000
  H   H226      1.0  0.8327900000000001  0.03143  0.31872  1.0000
  H   H227      1.0  0.76844  0.03254999999999999  0.34212  1.0000
  H   H228      1.0  0.85698  0.03592999999999998  0.40563  1.0000
  H   H229      1.0  0.97262  0.80965  0.43282  1.0000
  H   H230      1.0  0.3517999999999999  0.9563399999999999  0.41981  1.0000
  H   H231      1.0  0.73771  0.79  0.3243  1.0000
  H   H232      1.0  0.47401  0.38756  0.19637  1.0000
  H   H233      1.0  0.36923000000000006  0.31884  0.14456  1.0000
  H   H234      1.0  0.40178  0.40853999999999996  0.17512  1.0000
  H   H235      1.0  0.38405  0.3034299999999999  0.41865  1.0000
  H   H236      1.0  0.31193  0.22662  0.33796  1.0000
  H   H237      1.0  0.41158  0.24824999999999994  0.39763  1.0000
  H   H238      1.0  0.21913  0.31583  0.17954  1.0000
  H   H239      1.0  0.25591  0.32599  0.12493  1.0000
  H   H240      1.0  0.15071  0.26406  0.08638  1.0000
  H   H241      1.0  0.3761399999999999  0.1717  0.26863  1.0000
  H   H242      1.0  0.28906  0.10756  0.26485  1.0000
  H   H243      1.0  0.30233  0.08751  0.19719  1.0000
  H   H244      1.0  0.9406499999999999  0.68079  0.65177  1.0000
  H   H245      1.0  0.97076  0.64967  0.72264  1.0000
  H   H246      1.0  0.91804  0.5933199999999998  0.634  1.0000
  H   H247      1.0  0.66659  0.48844999999999994  0.69895  1.0000
  H   H248      1.0  0.73252  0.57552  0.76492  1.0000
  H   H249      1.0  0.64481  0.55294  0.68061  1.0000
  H   H250      1.0  0.5215199999999999  0.4591399999999999  0.33735  1.0000
  H   H251      1.0  0.1492  0.06673  0.10487  1.0000
  H   H252      1.0  0.76257  0.5855  0.5523  1.0000
  H   H253      1.0  0.47420000000000007  0.58918  0.28034  1.0000
  H   H254      1.0  0.36842  0.5494  0.22526  1.0000
  H   H255      1.0  0.40645  0.49601  0.23071  1.0000
  H   H256      1.0  0.38296000000000013  0.57538  0.9664500000000001  1.0000
  H   H257      1.0  0.3162200000000001  0.58782  0.97824  1.0000
  H   H258      1.0  0.41697000000000006  0.66141  0.013569999999999999  1.0000
  H   H259      1.0  0.22093  0.40293  0.04004  1.0000
  H   H260      1.0  0.26046  0.43062999999999996  0.13182  1.0000
  H   H261      1.0  0.15453999999999996  0.38687999999999995  0.06764  1.0000
  H   H262      1.0  0.37586  0.70345  0.10754  1.0000
  H   H263      1.0  0.2885599999999999  0.6809999999999999  0.02496  1.0000
  H   H264      1.0  0.30154  0.71325  0.10592  1.0000
  H   H265      1.0  0.9403800000000001  0.75493  0.28613  1.0000
  H   H266      1.0  0.97095  0.81711  0.24633  1.0000
  H   H267      1.0  0.9193700000000001  0.8208899999999999  0.28395  1.0000
  H   H268      1.0  0.66715  0.68122  0.9686  1.0000
  H   H269      1.0  0.73144  0.65772  0.96752  1.0000
  H   H270      1.0  0.64291  0.59429  0.9642000000000001  1.0000
  H   H271      1.0  0.52727  0.56707  0.19029  1.0000
  H   H272      1.0  0.14816  0.58021  0.04362  1.0000
  H   H273      1.0  0.76229  0.67607  0.21004  1.0000
  H   H274      1.0  0.02590000000000006  0.80344  0.61232  1.0000
  H   H275      1.0  0.13069999999999993  0.8553099999999998  0.68098  1.0000
  H   H276      1.0  0.09809000000000004  0.8246  0.59131  1.0000
  H   H277      1.0  0.11610999999999996  0.58128  0.69679  1.0000
  H   H278      1.0  0.18797  0.66198  0.77356  1.0000
  H   H279      1.0  0.08824999999999998  0.6021  0.75172  1.0000
  H   H280      1.0  0.2810599999999999  0.8203499999999999  0.68427  1.0000
  H   H281      1.0  0.2438399999999999  0.8746499999999999  0.67377  1.0000
  H   H282      1.0  0.34912  0.9136  0.73578  1.0000
  H   H283      1.0  0.12381000000000006  0.73138  0.82824  1.0000
  H   H284      1.0  0.21091  0.7352199999999999  0.89243  1.0000
  H   H285      1.0  0.19762000000000016  0.80293  0.91235  1.0000
  H   H286      1.0  0.55938  0.34831000000000006  0.31936  1.0000
  H   H287      1.0  0.52925  0.27737  0.35042  1.0000
  H   H288      1.0  0.58193  0.3660300000000001  0.40677  1.0000
  H   H289      1.0  0.8332099999999999  0.30086999999999997  0.51159  1.0000
  H   H290      1.0  0.7675700000000002  0.23516  0.42444  1.0000
  H   H291      1.0  0.8553900000000001  0.31963  0.44742  1.0000
  H   H292      1.0  0.9784199999999998  0.6623399999999999  0.54089  1.0000
  H   H293      1.0  0.3507500000000001  0.8951799999999999  0.9330900000000001  1.0000
  H   H294      1.0  0.73745  0.44783  0.41469  1.0000
  H   H295      1.0  0.19213999999999992  0.7783299999999999  0.30875  1.0000
  H   H296      1.0  0.17515999999999998  0.7242599999999999  0.35897  1.0000
  H   H297      1.0  0.23530999999999994  0.72831  0.32822  1.0000
  H   H298      1.0  0.8885799999999999  0.46503999999999995  0.08381  1.0000
  H   H299      1.0  0.88612  0.47603999999999996  0.16091  1.0000
  H   H300      1.0  0.84998  0.5128099999999999  0.0969  1.0000
  H   H301      1.0  0.13652  0.54006  0.322  1.0000
  H   H302      1.0  0.20102999999999993  0.6318399999999998  0.37511  1.0000
  H   H303      1.0  0.17863  0.56729  0.41523  1.0000
  H   H304      1.0  0.8994300000000001  0.6053400000000001  0.2308  1.0000
  H   H305      1.0  0.83896  0.5230999999999999  0.23526  1.0000
  H   H306      1.0  0.88728  0.60437  0.30247  1.0000
  H   H307      1.0  0.03090000000000006  0.78802  0.8502  1.0000
  H   H308      1.0  0.92734  0.74667  0.78106  1.0000
  H   H309      1.0  0.9621899999999999  0.7827699999999999  0.8703999999999998  1.0000
  H   H310      1.0  0.79667  0.46719  0.80538  1.0000
  H   H311      1.0  0.81287  0.46841  0.73604  1.0000
  H   H312      1.0  0.8796  0.4659  0.81824  1.0000
  H   H313      1.0  0.12531999999999996  0.6872299999999999  0.16754  1.0000
  H   H314      1.0  0.9586900000000005  0.54364  0.39418  1.0000
  H   H315      1.0  0.03668  0.7107  0.9505900000000002  1.0000
  H   H316      1.0  0.30711  0.11584999999999998  0.08609  1.0000
  H   H317      1.0  0.32461  0.18291999999999997  0.04881  1.0000
  H   H318      1.0  0.2655899999999998  0.09239999999999995  0.9934699999999999  1.0000
  H   H319      1.0  0.61166  0.19616  0.07447  1.0000
  H   H320      1.0  0.6172  0.27628  0.09558  1.0000
  H   H321      1.0  0.65152  0.24194  0.16311  1.0000
  H   H322      1.0  0.3656099999999999  0.18474999999999994  0.90391  1.0000
  H   H323      1.0  0.30025  0.17263999999999996  0.9308099999999999  1.0000
  H   H324      1.0  0.32223  0.23509999999999998  0.88856  1.0000
  H   H325      1.0  0.59877  0.33018  0.20585  1.0000
  H   H326      1.0  0.6597800000000001  0.39569999999999994  0.18472  1.0000
  H   H327      1.0  0.6087400000000001  0.41306  0.21571  1.0000
  H   H328      1.0  0.46941  0.82183  0.25916  1.0000
  H   H329      1.0  0.57271  0.85474  0.32048  1.0000
  H   H330      1.0  0.5387600000000002  0.91016  0.32248  1.0000
  H   H331      1.0  0.70662  0.009129999999999994  0.17393  1.0000
  H   H332      1.0  0.6861899999999999  0.9222199999999999  0.15483  1.0000
  H   H333      1.0  0.62261  0.94267  0.08878  1.0000
  H   H334      1.0  0.37694000000000005  0.042629999999999994  0.06551  1.0000
  H   H335      1.0  0.53905  0.43326999999999993  0.08379  1.0000
  H   H336      1.0  0.46447  0.91681  0.17653  1.0000
  C   C1        1.0  0.81933  0.04632  0.13223  1.0000
  C   C2        1.0  0.8961600000000001  0.06144999999999999  0.14336  1.0000
  C   C3        1.0  0.9650200000000001  0.07214999999999999  0.20331  1.0000
  C   C4        1.0  0.02155999999999999  0.09024999999999998  0.18414  1.0000
  C   C5        1.0  0.10542000000000003  0.10693  0.22769000000000003  1.0000
  C   C6        1.0  0.84799  0.9260799999999999  0.21278  1.0000
  C   C7        1.0  0.9194899999999999  0.996  0.2715  1.0000
  C   C8        1.0  0.97211  0.06054  0.26805  1.0000
  C   C9        1.0  0.030570000000000007  0.10750999999999998  0.33915  1.0000
  C   C10       1.0  0.10318  0.18229  0.37133  1.0000
  C   C11       1.0  0.03214000000000006  0.28706  0.8694000000000001  1.0000
  C   C12       1.0  0.05279000000000002  0.23665999999999998  0.8945300000000002  1.0000
  C   C13       1.0  0.11390000000000002  0.22915  0.90324  1.0000
  C   C14       1.0  0.10603999999999998  0.17354  0.93079  1.0000
  C   C15       1.0  0.1580200000000001  0.14584  0.95191  1.0000
  C   C16       1.0  0.68092  0.31393999999999994  0.7272  1.0000
  C   C17       1.0  0.60496  0.24875  0.66537  1.0000
  C   C18       1.0  0.53597  0.23988  0.60747  1.0000
  C   C19       1.0  0.48042  0.16459  0.56883  1.0000
  C   C20       1.0  0.39667  0.12446999999999998  0.50204  1.0000
  C   C21       1.0  0.65336  0.3671  0.57952  1.0000
  C   C22       1.0  0.5810499999999998  0.35378999999999994  0.57749  1.0000
  C   C23       1.0  0.52809  0.29724999999999996  0.58877  1.0000
  C   C24       1.0  0.46835  0.30893  0.57628  1.0000
  C   C25       1.0  0.3948  0.2675  0.57733  1.0000
  C   C26       1.0  0.46852  0.8359  0.75355  1.0000
  C   C27       1.0  0.448  0.84065  0.68271  1.0000
  C   C28       1.0  0.38685999999999987  0.7887899999999999  0.61444  1.0000
  C   C29       1.0  0.3949899999999999  0.8242799999999999  0.56681  1.0000
  C   C30       1.0  0.3432900000000001  0.79408  0.48752  1.0000
  C   C31       1.0  0.9180500000000001  0.22906  0.54828  1.0000
  C   C32       1.0  0.92139  0.16738999999999996  0.56222  1.0000
  C   C33       1.0  0.8708000000000001  0.10907999999999995  0.57146  1.0000
  C   C34       1.0  0.90783  0.07068  0.58906  1.0000
  C   C35       1.0  0.87931  0.003490000000000031  0.60436  1.0000
  C   C36       1.0  0.7150200000000001  0.07952  0.42519  1.0000
  C   C37       1.0  0.72511  0.07765000000000001  0.49445000000000006  1.0000
  C   C38       1.0  0.79333  0.08982000000000001  0.55908  1.0000
  C   C39       1.0  0.76801  0.07731  0.60517  1.0000
  C   C40       1.0  0.81043  0.07906999999999997  0.67954  1.0000
  C   C41       1.0  0.42228999999999994  0.25345999999999996  0.78416  1.0000
  C   C42       1.0  0.34507000000000004  0.18239999999999998  0.73593  1.0000
  C   C43       1.0  0.32788  0.11420999999999995  0.73033  1.0000
  C   C44       1.0  0.24331000000000003  0.06629  0.67641  1.0000
  C   C45       1.0  0.19357000000000002  0.98703  0.65077  1.0000
  C   C46       1.0  0.58386  0.63034  0.81013  1.0000
  C   C47       1.0  0.58189  0.6419  0.74589  1.0000
  C   C48       1.0  0.63198  0.7025599999999999  0.73872  1.0000
  C   C49       1.0  0.5961299999999999  0.6840799999999998  0.66376  1.0000
  C   C50       1.0  0.62388  0.7291  0.62542  1.0000
  C   C51       1.0  0.78812  0.7132  0.8663  1.0000
  C   C52       1.0  0.7766400000000001  0.77161  0.85358  1.0000
  C   C53       1.0  0.7082799999999999  0.7675699999999999  0.79699  1.0000
  C   C54       1.0  0.7323  0.8384599999999999  0.8092  1.0000
  C   C55       1.0  0.68921  0.86978  0.76773  1.0000
  C   C56       1.0  0.07795000000000003  0.36604  0.33274  1.0000
  C   C57       1.0  0.15467999999999998  0.39271  0.33796  1.0000
  C   C58       1.0  0.17154  0.40292  0.28651  1.0000
  C   C59       1.0  0.2558200000000001  0.4318  0.32232  1.0000
  C   C60       1.0  0.30564  0.45457  0.29253  1.0000
  C   C61       1.0  0.58203  0.45177999999999996  0.77101  1.0000
  C   C62       1.0  0.57871  0.43787  0.83266  1.0000
  C   C63       1.0  0.6293  0.42861  0.89094  1.0000
  C   C64       1.0  0.59225  0.41101000000000004  0.9293300000000001  1.0000
  C   C65       1.0  0.62075  0.39568  0.9964700000000001  1.0000
  C   C66       1.0  0.7850900000000001  0.57489  0.92044  1.0000
  C   C67       1.0  0.7749700000000002  0.5056000000000002  0.9223300000000001  1.0000
  C   C68       1.0  0.7067399999999999  0.4409699999999999  0.91019  1.0000
  C   C69       1.0  0.73205  0.39485  0.92273  1.0000
  C   C70       1.0  0.68959  0.32046  0.921  1.0000
  C   C71       1.0  0.07769  0.21569  0.74664  1.0000
  C   C72       1.0  0.15493999999999997  0.26395  0.81763  1.0000
  C   C73       1.0  0.17216  0.26967  0.88582  1.0000
  C   C74       1.0  0.25676  0.32356999999999997  0.93367  1.0000
  C   C75       1.0  0.30651999999999996  0.34929999999999994  0.0129  1.0000
  C   C76       1.0  0.91624  0.19006  0.36978  1.0000
  C   C77       1.0  0.9182099999999999  0.25432  0.35815  1.0000
  C   C78       1.0  0.8681000000000001  0.26142  0.29747  1.0000
  C   C79       1.0  0.90395  0.33641999999999994  0.31585  1.0000
  C   C80       1.0  0.87617  0.37472  0.27078  1.0000
  C   C81       1.0  0.7119600000000001  0.13386000000000003  0.28691  1.0000
  C   C82       1.0  0.72344  0.14652  0.2285  1.0000
  C   C83       1.0  0.79179  0.20309999999999997  0.23251  1.0000
  C   C84       1.0  0.76776  0.19082  0.16164  1.0000
  C   C85       1.0  0.8108400000000001  0.23221999999999998  0.1303  1.0000
  C   C86       1.0  0.4220399999999999  0.6672099999999999  0.63384  1.0000
  C   C87       1.0  0.34532  0.66197  0.60717  1.0000
  C   C88       1.0  0.32843  0.7134499999999999  0.59696  1.0000
  C   C89       1.0  0.24415  0.67759  0.56805  1.0000
  C   C90       1.0  0.19432999999999995  0.7074099999999999  0.5453  1.0000
  C   C91       1.0  0.8190700000000001  0.27290999999999993  0.68607  1.0000
  C   C92       1.0  0.8950600000000001  0.33475999999999995  0.75122  1.0000
  C   C93       1.0  0.96407  0.39263  0.76007  1.0000
  C   C94       1.0  0.01964000000000005  0.43131  0.83532  1.0000
  C   C95       1.0  0.10343  0.49808  0.8754  1.0000
  C   C96       1.0  0.84672  0.42056  0.63281  1.0000
  C   C97       1.0  0.9190299999999999  0.42256  0.64616  1.0000
  C   C98       1.0  0.9719700000000001  0.41126999999999997  0.70271  1.0000
  C   C99       1.0  0.031719999999999964  0.42372  0.69107  1.0000
  C   C100      1.0  0.10525000000000001  0.42266  0.73254  1.0000
  C   C101      1.0  0.03139999999999998  0.24632999999999997  0.16403  1.0000
  C   C102      1.0  0.05195000000000001  0.3172  0.15932  1.0000
  C   C103      1.0  0.11313  0.3855  0.21121  1.0000
  C   C104      1.0  0.10497999999999996  0.43317999999999995  0.17578  1.0000
  C   C105      1.0  0.15672999999999998  0.51251  0.20603  1.0000
  C   C106      1.0  0.68077  0.86768  0.95352  1.0000
  C   C107      1.0  0.60399  0.85668  0.9384  1.0000
  C   C108      1.0  0.5351100000000001  0.7968  0.92777  1.0000
  C   C109      1.0  0.47867  0.8161  0.90969  1.0000
  C   C110      1.0  0.39484999999999987  0.7726799999999998  0.8931200000000001  1.0000
  C   C111      1.0  0.6519999999999998  0.78733  0.07382  1.0000
  C   C112      1.0  0.58049  0.72857  0.00395  1.0000
  C   C113      1.0  0.5279199999999997  0.7320199999999999  0.93941  1.0000
  C   C114      1.0  0.46944  0.66088  0.89248  1.0000
  C   C115      1.0  0.39683999999999997  0.6286599999999999  0.81773  1.0000
  C   C116      1.0  0.46811  0.1308  0.71324  1.0000
  C   C117      1.0  0.4474  0.10566  0.76358  1.0000
  C   C118      1.0  0.38617  0.09684999999999996  0.77097  1.0000
  C   C119      1.0  0.39399999999999996  0.06929999999999997  0.82656  1.0000
  C   C120      1.0  0.3419  0.04807999999999999  0.85412  1.0000
  C   C121      1.0  0.18066999999999991  0.9536799999999999  0.86777  1.0000
  C   C122      1.0  0.10383999999999989  0.9385499999999999  0.85664  1.0000
  C   C123      1.0  0.03498000000000002  0.92785  0.79669  1.0000
  C   C124      1.0  0.97844  0.90975  0.81586  1.0000
  C   C125      1.0  0.89458  0.89307  0.77231  1.0000
  C   C126      1.0  0.1520100000000001  0.07392000000000003  0.78722  1.0000
  C   C127      1.0  0.08051000000000001  0.003990000000000007  0.7285  1.0000
  C   C128      1.0  0.027889999999999988  0.9394499999999999  0.73195  1.0000
  C   C129      1.0  0.9694300000000001  0.8924899999999999  0.66085  1.0000
  C   C130      1.0  0.8968199999999998  0.8177099999999999  0.62867  1.0000
  C   C131      1.0  0.96786  0.7129299999999998  0.1306  1.0000
  C   C132      1.0  0.94722  0.76333  0.10547  1.0000
  C   C133      1.0  0.8861  0.7708499999999999  0.09676  1.0000
  C   C134      1.0  0.8939600000000001  0.82646  0.06921  1.0000
  C   C135      1.0  0.84198  0.85415  0.04809  1.0000
  C   C136      1.0  0.31908  0.68606  0.27281  1.0000
  C   C137      1.0  0.3950499999999999  0.7512499999999999  0.33464  1.0000
  C   C138      1.0  0.46403999999999984  0.7601199999999998  0.39254  1.0000
  C   C139      1.0  0.51958  0.8354099999999999  0.43116999999999994  1.0000
  C   C140      1.0  0.60334  0.8755299999999999  0.49796  1.0000
  C   C141      1.0  0.34664  0.63289  0.42049  1.0000
  C   C142      1.0  0.41895  0.64621  0.42252  1.0000
  C   C143      1.0  0.47192  0.70275  0.41123  1.0000
  C   C144      1.0  0.53166  0.69107  0.42372  1.0000
  C   C145      1.0  0.6052  0.7325  0.42267  1.0000
  C   C146      1.0  0.53148  0.1641  0.24646  1.0000
  C   C147      1.0  0.55201  0.15933999999999998  0.31729  1.0000
  C   C148      1.0  0.61315  0.2112  0.38556  1.0000
  C   C149      1.0  0.60501  0.17571999999999993  0.43318999999999996  1.0000
  C   C150      1.0  0.65672  0.20591  0.51248  1.0000
  C   C151      1.0  0.08195000000000005  0.77094  0.45173  1.0000
  C   C152      1.0  0.07860999999999994  0.8326099999999999  0.43779  1.0000
  C   C153      1.0  0.12920999999999994  0.8909099999999999  0.42854  1.0000
  C   C154      1.0  0.09217000000000003  0.92932  0.41094  1.0000
  C   C155      1.0  0.12070000000000007  0.9965099999999999  0.39564  1.0000
  C   C156      1.0  0.28499  0.92048  0.57481  1.0000
  C   C157      1.0  0.2748900000000001  0.92234  0.50555  1.0000
  C   C158      1.0  0.20666999999999996  0.91017  0.44093  1.0000
  C   C159      1.0  0.232  0.92268  0.39484  1.0000
  C   C160      1.0  0.1895699999999999  0.9209299999999999  0.32046  1.0000
  C   C161      1.0  0.57772  0.7465399999999999  0.21584000000000003  1.0000
  C   C162      1.0  0.65494  0.81759  0.26408  1.0000
  C   C163      1.0  0.6721199999999998  0.8857799999999998  0.26967  1.0000
  C   C164      1.0  0.7566900000000001  0.93371  0.32359  1.0000
  C   C165      1.0  0.80643  0.012960000000000015  0.34923  1.0000
  C   C166      1.0  0.4161499999999999  0.3696499999999999  0.18987  1.0000
  C   C167      1.0  0.41812  0.3580999999999999  0.25412  1.0000
  C   C168      1.0  0.36802  0.2974399999999999  0.26128  1.0000
  C   C169      1.0  0.40388  0.31592  0.33624  1.0000
  C   C170      1.0  0.37612  0.27089  0.37458  1.0000
  C   C171      1.0  0.21188  0.2868  0.1337  1.0000
  C   C172      1.0  0.22336000000000003  0.22837999999999997  0.14642  1.0000
  C   C173      1.0  0.2917200000000001  0.23243  0.20302  1.0000
  C   C174      1.0  0.2677  0.16153  0.19081  1.0000
  C   C175      1.0  0.31079  0.13021  0.23228  1.0000
  C   C176      1.0  0.92205  0.63395  0.66726  1.0000
  C   C177      1.0  0.84532  0.60728  0.66204  1.0000
  C   C178      1.0  0.82846  0.59708  0.7135  1.0000
  C   C179      1.0  0.74418  0.5682  0.67768  1.0000
  C   C180      1.0  0.6943700000000003  0.54543  0.70747  1.0000
  C   C181      1.0  0.41796999999999995  0.5482199999999999  0.22899  1.0000
  C   C182      1.0  0.42128999999999994  0.56212  0.16734  1.0000
  C   C183      1.0  0.37071  0.57139  0.10906  1.0000
  C   C184      1.0  0.40775000000000006  0.58898  0.07067  1.0000
  C   C185      1.0  0.37925  0.60431  0.0035300000000000006  1.0000
  C   C186      1.0  0.21491  0.4251  0.07956  1.0000
  C   C187      1.0  0.22502999999999995  0.4943999999999999  0.07767  1.0000
  C   C188      1.0  0.29326  0.55903  0.08982  1.0000
  C   C189      1.0  0.26796000000000003  0.60515  0.07727  1.0000
  C   C190      1.0  0.31040999999999996  0.6795399999999999  0.079  1.0000
  C   C191      1.0  0.92232  0.78431  0.25336  1.0000
  C   C192      1.0  0.84506  0.7360399999999999  0.18237  1.0000
  C   C193      1.0  0.82784  0.73032  0.11418  1.0000
  C   C194      1.0  0.7432400000000001  0.6764299999999999  0.06633  1.0000
  C   C195      1.0  0.69348  0.65069  0.9871100000000002  1.0000
  C   C196      1.0  0.08375999999999997  0.80993  0.63022  1.0000
  C   C197      1.0  0.08179000000000002  0.7456799999999999  0.64185  1.0000
  C   C198      1.0  0.13191000000000003  0.73857  0.70253  1.0000
  C   C199      1.0  0.09605000000000005  0.66358  0.68415  1.0000
  C   C200      1.0  0.12382999999999998  0.6252799999999998  0.72922  1.0000
  C   C201      1.0  0.28804  0.86614  0.7131  1.0000
  C   C202      1.0  0.27656999999999987  0.85348  0.7715  1.0000
  C   C203      1.0  0.20821  0.7969  0.76749  1.0000
  C   C204      1.0  0.23224  0.80918  0.83836  1.0000
  C   C205      1.0  0.18915999999999977  0.7677699999999998  0.8697099999999999  1.0000
  C   C206      1.0  0.57796  0.33277999999999996  0.36616  1.0000
  C   C207      1.0  0.65468  0.33802  0.39284  1.0000
  C   C208      1.0  0.67157  0.28654  0.40304  1.0000
  C   C209      1.0  0.75586  0.32241  0.43195  1.0000
  C   C210      1.0  0.8056700000000001  0.29259  0.4547  1.0000
  C   C211      1.0  0.18094000000000002  0.72709  0.31393  1.0000
  C   C212      1.0  0.10493999999999998  0.66524  0.24877999999999997  1.0000
  C   C213      1.0  0.035929999999999955  0.60736  0.23994  1.0000
  C   C214      1.0  0.9803700000000001  0.56868  0.16468  1.0000
  C   C215      1.0  0.89658  0.5019200000000001  0.1246  1.0000
  C   C216      1.0  0.15327999999999994  0.5794399999999998  0.36719  1.0000
  C   C217      1.0  0.08096999999999999  0.5774399999999998  0.35384  1.0000
  C   C218      1.0  0.02804000000000002  0.58873  0.29729  1.0000
  C   C219      1.0  0.9682800000000001  0.57628  0.30893  1.0000
  C   C220      1.0  0.89475  0.5773399999999999  0.26747  1.0000
  C   C221      1.0  0.9686  0.75367  0.83598  1.0000
  C   C222      1.0  0.9480600000000001  0.6827999999999999  0.84068  1.0000
  C   C223      1.0  0.88688  0.6145  0.78879  1.0000
  C   C224      1.0  0.89502  0.56682  0.82422  1.0000
  C   C225      1.0  0.8432700000000002  0.48747999999999997  0.79398  1.0000
  C   C226      1.0  0.31924  0.13232  0.04648  1.0000
  C   C227      1.0  0.39601  0.14332  0.0616  1.0000
  C   C228      1.0  0.4649  0.20319999999999996  0.07223  1.0000
  C   C229      1.0  0.52133  0.18389  0.09031  1.0000
  C   C230      1.0  0.60515  0.22732  0.10688  1.0000
  C   C231      1.0  0.34800999999999993  0.21266999999999994  0.92618  1.0000
  C   C232      1.0  0.4195099999999999  0.27141999999999994  0.9960499999999999  1.0000
  C   C233      1.0  0.47208  0.26798  0.06059  1.0000
  C   C234      1.0  0.53057  0.33912  0.10752000000000002  1.0000
  C   C235      1.0  0.6031600000000001  0.37133  0.18227  1.0000
  C   C236      1.0  0.5318999999999999  0.8691999999999999  0.28677  1.0000
  C   C237      1.0  0.5526  0.89434  0.23643  1.0000
  C   C238      1.0  0.6138399999999999  0.9031499999999999  0.22904  1.0000
  C   C239      1.0  0.606  0.9306899999999999  0.17344  1.0000
  C   C240      1.0  0.6580999999999999  0.9519199999999999  0.14588  1.0000
  N   N1        1.0  0.9900700000000001  0.09015  0.11751000000000002  1.0000
  N   N2        1.0  0.91431  0.07238  0.09408  1.0000
  N   N3        1.0  0.010019999999999977  0.07066999999999997  0.37883  1.0000
  N   N4        1.0  0.94331  0.0031099999999999912  0.33894  1.0000
  N   N5        1.0  0.04381999999999996  0.14778999999999995  0.9378899999999999  1.0000
  N   N6        1.0  0.01264000000000002  0.18696000000000004  0.91579  1.0000
  N   N7        1.0  0.51266  0.12964  0.59983  1.0000
  N   N8        1.0  0.5878599999999999  0.18168999999999993  0.65782  1.0000
  N   N9        1.0  0.4885499999999999  0.36922  0.56014  1.0000
  N   N10       1.0  0.55625  0.3968499999999999  0.56025  1.0000
  N   N11       1.0  0.45736000000000004  0.89316  0.60307  1.0000
  N   N12       1.0  0.48827999999999994  0.9019099999999999  0.67311  1.0000
  N   N13       1.0  0.9756500000000001  0.10226000000000005  0.59008  1.0000
  N   N14       1.0  0.98225  0.16035  0.57351  1.0000
  N   N15       1.0  0.6906  0.06029000000000004  0.56779  1.0000
  N   N16       1.0  0.66343  0.059899999999999995  0.50065  1.0000
  N   N17       1.0  0.21044999999999997  0.10227999999999994  0.64998  1.0000
  N   N18       1.0  0.2731800000000001  0.17248  0.68702  1.0000
  N   N19       1.0  0.52963  0.61706  0.62736  1.0000
  N   N20       1.0  0.5224  0.5928  0.67815  1.0000
  N   N21       1.0  0.80908  0.8786899999999999  0.86992  1.0000
  N   N22       1.0  0.83713  0.8392999999999999  0.89728  1.0000
  N   N23       1.0  0.28872999999999993  0.43833999999999995  0.391  1.0000
  N   N24       1.0  0.22646  0.41477  0.39934  1.0000
  N   N25       1.0  0.52445  0.41001  0.89775  1.0000
  N   N26       1.0  0.51786  0.4266  0.8397  1.0000
  N   N27       1.0  0.80946  0.43221  0.93974  1.0000
  N   N28       1.0  0.8366400000000002  0.4993699999999999  0.9400900000000001  1.0000
  N   N29       1.0  0.28960000000000014  0.34987  0.89765  1.0000
  N   N30       1.0  0.2268300000000001  0.31278  0.8275  1.0000
  N   N31       1.0  0.9704599999999999  0.37288  0.38283  1.0000
  N   N32       1.0  0.97769  0.32211  0.40717  1.0000
  N   N33       1.0  0.69099  0.13007  0.12147000000000001  1.0000
  N   N34       1.0  0.66294  0.10276  0.16086  1.0000
  N   N35       1.0  0.21123999999999993  0.6088899999999999  0.56148  1.0000
  N   N36       1.0  0.27351  0.60055  0.58506  1.0000
  N   N37       1.0  0.9873799999999998  0.4003699999999999  0.8702699999999999  1.0000
  N   N38       1.0  0.9121699999999999  0.34235999999999994  0.81827  1.0000
  N   N39       1.0  0.011539999999999953  0.43984  0.63079  1.0000
  N   N40       1.0  0.9438600000000001  0.4397599999999999  0.60313  1.0000
  N   N41       1.0  0.042609999999999995  0.39696  0.10695  1.0000
  N   N42       1.0  0.011680000000000005  0.32688  0.09814  1.0000
  N   N43       1.0  0.51025  0.88275  0.90973  1.0000
  N   N44       1.0  0.5859599999999999  0.9060499999999999  0.92745  1.0000
  N   N45       1.0  0.48991999999999997  0.6211799999999998  0.92936  1.0000
  N   N46       1.0  0.55663  0.6611  0.9968899999999999  1.0000
  N   N47       1.0  0.45629  0.06229000000000001  0.8524  1.0000
  N   N48       1.0  0.48755999999999994  0.08444999999999993  0.81333  1.0000
  N   N49       1.0  0.00993000000000003  0.9098399999999999  0.8824900000000001  1.0000
  N   N50       1.0  0.08569000000000002  0.92761  0.9059200000000001  1.0000
  N   N51       1.0  0.9899899999999999  0.9293299999999999  0.62117  1.0000
  N   N52       1.0  0.05670000000000002  0.9968899999999999  0.66106  1.0000
  N   N53       1.0  0.95619  0.8522  0.062110000000000005  1.0000
  N   N54       1.0  0.98737  0.81304  0.08421  1.0000
  N   N55       1.0  0.4873399999999999  0.8703499999999998  0.40017  1.0000
  N   N56       1.0  0.4121399999999999  0.8183099999999998  0.34218  1.0000
  N   N57       1.0  0.51145  0.63078  0.43986  1.0000
  N   N58       1.0  0.44376  0.60315  0.4397499999999999  1.0000
  N   N59       1.0  0.54264  0.10684  0.39693  1.0000
  N   N60       1.0  0.51173  0.09809  0.3269  1.0000
  N   N61       1.0  0.024359999999999955  0.8977299999999998  0.40992  1.0000
  N   N62       1.0  0.01774999999999987  0.83965  0.42649999999999993  1.0000
  N   N63       1.0  0.3094100000000002  0.93971  0.43221000000000004  1.0000
  N   N64       1.0  0.33657  0.94009  0.49935  1.0000
  N   N65       1.0  0.78955  0.89772  0.35003  1.0000
  N   N66       1.0  0.72682  0.8275099999999999  0.31298  1.0000
  N   N67       1.0  0.47038  0.38293  0.37264  1.0000
  N   N68       1.0  0.47761  0.4072  0.32186  1.0000
  N   N69       1.0  0.19092999999999996  0.12131  0.13009  1.0000
  N   N70       1.0  0.16288  0.1607  0.10272  1.0000
  N   N71       1.0  0.7112800000000001  0.5616599999999999  0.609  1.0000
  N   N72       1.0  0.7735399999999999  0.58523  0.60067  1.0000
  N   N73       1.0  0.47555  0.58998  0.10225  1.0000
  N   N74       1.0  0.48214  0.5734  0.1603  1.0000
  N   N75       1.0  0.19054999999999997  0.5677899999999999  0.06026  1.0000
  N   N76       1.0  0.16337  0.50063  0.05991  1.0000
  N   N77       1.0  0.7104  0.65013  0.10235  1.0000
  N   N78       1.0  0.77318  0.68722  0.1725  1.0000
  N   N79       1.0  0.029539999999999917  0.6271199999999999  0.61717  1.0000
  N   N80       1.0  0.022310000000000052  0.67788  0.59283  1.0000
  N   N81       1.0  0.30901999999999996  0.86992  0.87853  1.0000
  N   N82       1.0  0.33706  0.8972399999999999  0.83914  1.0000
  N   N83       1.0  0.7887600000000001  0.39110999999999996  0.43852  1.0000
  N   N84       1.0  0.72649  0.39945  0.41494  1.0000
  N   N85       1.0  0.012619999999999996  0.59963  0.12973  1.0000
  N   N86       1.0  0.08782999999999994  0.6576399999999999  0.18174  1.0000
  N   N87       1.0  0.9884600000000001  0.56016  0.36921  1.0000
  N   N88       1.0  0.05613999999999993  0.56024  0.39687  1.0000
  N   N89       1.0  0.95739  0.60304  0.89305  1.0000
  N   N90       1.0  0.98832  0.67312  0.9018599999999999  1.0000
  N   N91       1.0  0.48976  0.11724999999999998  0.09027  1.0000
  N   N92       1.0  0.4140400000000001  0.09394999999999999  0.07256  1.0000
  N   N93       1.0  0.5100799999999999  0.37880999999999987  0.07064  1.0000
  N   N94       1.0  0.44338  0.3389  0.00311  1.0000
  N   N95       1.0  0.5437099999999999  0.9377099999999998  0.1476  1.0000
  N   N96       1.0  0.5124399999999999  0.9155499999999999  0.18667  1.0000
