data_image0
_chemical_formula_structural       Cd8H368C336O64
_chemical_formula_sum              "Cd8 H368 C336 O64"
_cell_length_a       15.67507
_cell_length_b       25.00002
_cell_length_c       25.15947
_cell_angle_alpha    90.0
_cell_angle_beta     90.23915
_cell_angle_gamma    90.0

_space_group_name_H-M_alt    "P 1"
_space_group_IT_number       1

loop_
  _space_group_symop_operation_xyz
  'x, y, z'

loop_
  _atom_site_type_symbol
  _atom_site_label
  _atom_site_symmetry_multiplicity
  _atom_site_fract_x
  _atom_site_fract_y
  _atom_site_fract_z
  _atom_site_occupancy
  Cd  Cd1       1.0  0.06967  0.9495  0.08104  1.0000
  Cd  Cd2       1.0  0.15225  0.00959  0.9568199999999998  1.0000
  Cd  Cd3       1.0  0.9303300000000002  0.4495  0.4189599999999999  1.0000
  Cd  Cd4       1.0  0.8477500000000002  0.50959  0.54319  1.0000
  Cd  Cd5       1.0  0.9303300000000002  0.0505  0.9189599999999998  1.0000
  Cd  Cd6       1.0  0.8477500000000002  0.99041  0.043179999999999996  1.0000
  Cd  Cd7       1.0  0.06967  0.5505  0.58104  1.0000
  Cd  Cd8       1.0  0.15225  0.49041000000000007  0.45681  1.0000
  H   H1        1.0  0.18651000000000006  0.89462  0.90881  1.0000
  H   H2        1.0  0.28274  0.74048  0.8329999999999997  1.0000
  H   H3        1.0  0.38673  0.7162500000000002  0.8188699999999998  1.0000
  H   H4        1.0  0.37719  0.65391  0.89609  1.0000
  H   H5        1.0  0.2771800000000001  0.6806399999999999  0.91366  1.0000
  H   H6        1.0  0.25805  0.59387  0.8635399999999998  1.0000
  H   H7        1.0  0.21364000000000005  0.64749  0.82674  1.0000
  H   H8        1.0  0.3138600000000001  0.6206  0.8084999999999998  1.0000
  H   H9        1.0  0.26413  0.80395  0.04555999999999999  1.0000
  H   H10       1.0  0.4005100000000001  0.70927  0.9704  1.0000
  H   H11       1.0  0.3592700000000001  0.72672  0.03391  1.0000
  H   H12       1.0  0.41156  0.82578  0.06543999999999998  1.0000
  H   H13       1.0  0.543  0.87895  0.08132999999999997  1.0000
  H   H14       1.0  0.6733700000000002  0.86  0.029  1.0000
  H   H15       1.0  0.63012  0.66931  0.9986999999999999  1.0000
  H   H16       1.0  0.5192000000000002  0.65852  0.00805  1.0000
  H   H17       1.0  0.50843  0.61934  0.91641  1.0000
  H   H18       1.0  0.61774  0.63039  0.9065999999999997  1.0000
  H   H19       1.0  0.5429800000000002  0.55661  0.99373  1.0000
  H   H20       1.0  0.58999  0.53431  0.93377  1.0000
  H   H21       1.0  0.65319  0.56718  0.9822899999999998  1.0000
  H   H22       1.0  0.69047  0.74565  0.9322399999999998  1.0000
  H   H23       1.0  0.75533  0.7797499999999999  0.9796799999999999  1.0000
  H   H24       1.0  0.79905  0.87255  0.96561  1.0000
  H   H25       1.0  0.7179100000000003  0.95551  0.8251399999999999  1.0000
  H   H26       1.0  0.6728100000000002  0.77096  0.78804  1.0000
  H   H27       1.0  0.6955600000000002  0.7304000000000002  0.8440699999999999  1.0000
  H   H28       1.0  0.52357  0.7347  0.7859899999999999  1.0000
  H   H29       1.0  0.54618  0.69453  0.84145  1.0000
  H   H30       1.0  0.66252  0.64625  0.78759  1.0000
  H   H31       1.0  0.56083  0.63952  0.7574199999999998  1.0000
  H   H32       1.0  0.6355300000000003  0.68591  0.7317499999999998  1.0000
  H   H33       1.0  0.6311400000000003  0.90878  0.75912  1.0000
  H   H34       1.0  0.59653  0.84221  0.7688199999999997  1.0000
  H   H35       1.0  0.5669600000000002  0.9783299999999999  0.82823  1.0000
  H   H36       1.0  0.43020000000000014  0.01211  0.8650999999999998  1.0000
  H   H37       1.0  0.30431000000000014  0.95172  0.8684399999999999  1.0000
  H   H38       1.0  0.50286  0.79112  0.71433  1.0000
  H   H39       1.0  0.4609800000000001  0.85703  0.7099599999999998  1.0000
  H   H40       1.0  0.3547  0.75439  0.72108  1.0000
  H   H41       1.0  0.31204  0.81918  0.7167399999999999  1.0000
  H   H42       1.0  0.37195  0.83021  0.6246499999999999  1.0000
  H   H43       1.0  0.41843000000000014  0.7657600000000001  0.62808  1.0000
  H   H44       1.0  0.30549  0.77299  0.62814  1.0000
  H   H45       1.0  0.29776000000000014  0.8153100000000001  0.80922  1.0000
  H   H46       1.0  0.23256  0.87155  0.8230599999999999  1.0000
  H   H47       1.0  0.07199000000000001  0.029399999999999996  0.17790999999999996  1.0000
  H   H48       1.0  0.9977600000000002  0.03063  0.42714  1.0000
  H   H49       1.0  0.9423500000000002  0.99444  0.37716  1.0000
  H   H50       1.0  0.13624000000000006  0.9948899999999999  0.39311  1.0000
  H   H51       1.0  0.08227000000000002  0.9597599999999998  0.34238  1.0000
  H   H52       1.0  0.00921  0.90134  0.40913  1.0000
  H   H53       1.0  0.12073000000000003  0.8991900000000002  0.42005  1.0000
  H   H54       1.0  0.05510000000000002  0.93783  0.46225  1.0000
  H   H55       1.0  0.8099200000000002  0.04414  0.22534  1.0000
  H   H56       1.0  0.77469  0.06885  0.31324  1.0000
  H   H57       1.0  0.8442000000000002  0.05263  0.36648999999999987  1.0000
  H   H58       1.0  0.8428500000000002  0.15654  0.25796  1.0000
  H   H59       1.0  0.8728300000000002  0.25275  0.27449  1.0000
  H   H60       1.0  0.9153700000000002  0.28286  0.3651899999999999  1.0000
  H   H61       1.0  0.8002200000000003  0.14358  0.49858  1.0000
  H   H62       1.0  0.7448100000000002  0.14298  0.43703  1.0000
  H   H63       1.0  0.75062  0.04225  0.43658  1.0000
  H   H64       1.0  0.7988900000000002  0.04318  0.49988  1.0000
  H   H65       1.0  0.6381500000000002  0.03031  0.50641  1.0000
  H   H66       1.0  0.6696800000000003  0.09066  0.53779  1.0000
  H   H67       1.0  0.6222900000000002  0.09238  0.47382  1.0000
  H   H68       1.0  0.934  0.18808  0.48132999999999987  1.0000
  H   H69       1.0  0.8917400000000002  0.2532  0.47226999999999997  1.0000
  H   H70       1.0  0.97979  0.32728999999999997  0.4601999999999999  1.0000
  H   H71       1.0  0.23911000000000004  0.31135  0.40848  1.0000
  H   H72       1.0  0.04450000000000001  0.15323  0.51047  1.0000
  H   H73       1.0  0.057020000000000015  0.09305  0.47395  1.0000
  H   H74       1.0  0.21418000000000006  0.104  0.47547  1.0000
  H   H75       1.0  0.20470000000000005  0.16695  0.5067299999999999  1.0000
  H   H76       1.0  0.14852000000000007  0.05994  0.55741  1.0000
  H   H77       1.0  0.24141000000000007  0.09653  0.57469  1.0000
  H   H78       1.0  0.13938000000000006  0.12368000000000001  0.58768  1.0000
  H   H79       1.0  0.2541700000000001  0.16837  0.4192899999999999  1.0000
  H   H80       1.0  0.29962  0.22751  0.39263999999999993  1.0000
  H   H81       1.0  0.20197000000000007  0.2636  0.30726  1.0000
  H   H82       1.0  0.14880000000000004  0.23246  0.21918  1.0000
  H   H83       1.0  0.12068000000000002  0.13592  0.20424  1.0000
  H   H84       1.0  0.3217000000000001  0.0638  0.31538  1.0000
  H   H85       1.0  0.36026  0.1058  0.36696  1.0000
  H   H86       1.0  0.2836100000000001  0.99371  0.3818  1.0000
  H   H87       1.0  0.3208700000000001  0.03461  0.4337099999999999  1.0000
  H   H88       1.0  0.4697900000000001  0.03347  0.39278  1.0000
  H   H89       1.0  0.4343200000000001  0.9679900000000001  0.40805  1.0000
  H   H90       1.0  0.43144  0.99119  0.34154  1.0000
  H   H91       1.0  0.18342000000000006  0.03637  0.23937999999999995  1.0000
  H   H92       1.0  0.16479  0.03073  0.30883  1.0000
  H   H93       1.0  0.8134800000000002  0.39462  0.59119  1.0000
  H   H94       1.0  0.7172600000000002  0.24048  0.667  1.0000
  H   H95       1.0  0.61326  0.21625  0.68113  1.0000
  H   H96       1.0  0.6228100000000002  0.15391  0.6039099999999998  1.0000
  H   H97       1.0  0.7228200000000002  0.18064  0.5863399999999999  1.0000
  H   H98       1.0  0.7419500000000001  0.09387000000000001  0.63646  1.0000
  H   H99       1.0  0.7863600000000002  0.14749  0.6732599999999999  1.0000
  H   H100      1.0  0.6861400000000002  0.1206  0.6915  1.0000
  H   H101      1.0  0.7358700000000002  0.30395  0.45444  1.0000
  H   H102      1.0  0.5994800000000002  0.20927  0.5296  1.0000
  H   H103      1.0  0.6407300000000002  0.22670999999999997  0.4660899999999999  1.0000
  H   H104      1.0  0.58843  0.32577  0.4345599999999999  1.0000
  H   H105      1.0  0.45700000000000013  0.37895000000000006  0.4186699999999999  1.0000
  H   H106      1.0  0.3266300000000001  0.36  0.471  1.0000
  H   H107      1.0  0.36988  0.16931  0.5013  1.0000
  H   H108      1.0  0.4808000000000001  0.15852  0.49194999999999994  1.0000
  H   H109      1.0  0.4915700000000001  0.11934000000000002  0.58359  1.0000
  H   H110      1.0  0.38226  0.13039  0.5933999999999999  1.0000
  H   H111      1.0  0.45702  0.056620000000000004  0.50627  1.0000
  H   H112      1.0  0.41001  0.03431  0.56623  1.0000
  H   H113      1.0  0.3468100000000001  0.06718  0.51771  1.0000
  H   H114      1.0  0.30952000000000013  0.24565  0.5677599999999999  1.0000
  H   H115      1.0  0.24467000000000005  0.27976  0.52032  1.0000
  H   H116      1.0  0.20094  0.37255  0.53439  1.0000
  H   H117      1.0  0.28208  0.4555100000000001  0.67487  1.0000
  H   H118      1.0  0.3271900000000001  0.27096  0.7119599999999998  1.0000
  H   H119      1.0  0.30443  0.23040000000000002  0.65593  1.0000
  H   H120      1.0  0.47643000000000013  0.23470000000000002  0.71401  1.0000
  H   H121      1.0  0.4538200000000001  0.19452  0.6585499999999997  1.0000
  H   H122      1.0  0.33748  0.14625  0.7124099999999999  1.0000
  H   H123      1.0  0.4391700000000001  0.13952  0.74258  1.0000
  H   H124      1.0  0.3644700000000001  0.18591  0.7682499999999998  1.0000
  H   H125      1.0  0.36886  0.40878  0.74089  1.0000
  H   H126      1.0  0.4034700000000001  0.34221  0.73118  1.0000
  H   H127      1.0  0.4330400000000001  0.47831999999999997  0.6717699999999999  1.0000
  H   H128      1.0  0.5698  0.51211  0.6349  1.0000
  H   H129      1.0  0.6956900000000003  0.45172000000000007  0.6315599999999998  1.0000
  H   H130      1.0  0.49714000000000014  0.29112  0.7856699999999999  1.0000
  H   H131      1.0  0.5390200000000003  0.35703  0.79005  1.0000
  H   H132      1.0  0.6453000000000002  0.25439  0.7789199999999998  1.0000
  H   H133      1.0  0.6879600000000002  0.31918  0.78326  1.0000
  H   H134      1.0  0.62805  0.33021  0.8753499999999997  1.0000
  H   H135      1.0  0.58157  0.26576  0.87192  1.0000
  H   H136      1.0  0.6945000000000002  0.27299  0.87186  1.0000
  H   H137      1.0  0.70224  0.31531  0.6907799999999997  1.0000
  H   H138      1.0  0.7674400000000002  0.37154999999999994  0.67694  1.0000
  H   H139      1.0  0.9280100000000002  0.5294  0.32209  1.0000
  H   H140      1.0  0.00224  0.53063  0.07285999999999998  1.0000
  H   H141      1.0  0.05765000000000001  0.49444  0.12283999999999999  1.0000
  H   H142      1.0  0.8637600000000002  0.49489  0.10688999999999997  1.0000
  H   H143      1.0  0.9177300000000003  0.45976  0.15761999999999998  1.0000
  H   H144      1.0  0.99079  0.40134000000000003  0.09087  1.0000
  H   H145      1.0  0.8792700000000002  0.39919  0.07995  1.0000
  H   H146      1.0  0.9449000000000002  0.43783  0.03774999999999999  1.0000
  H   H147      1.0  0.19008000000000005  0.54414  0.27465999999999996  1.0000
  H   H148      1.0  0.22531000000000007  0.56885  0.18675999999999995  1.0000
  H   H149      1.0  0.1558  0.55264  0.13351  1.0000
  H   H150      1.0  0.15715  0.65654  0.24203999999999995  1.0000
  H   H151      1.0  0.12717  0.75275  0.22550999999999993  1.0000
  H   H152      1.0  0.08463000000000002  0.78286  0.13480999999999999  1.0000
  H   H153      1.0  0.19978000000000007  0.6435899999999999  0.00142  1.0000
  H   H154      1.0  0.2551900000000001  0.64298  0.06297  1.0000
  H   H155      1.0  0.24938000000000005  0.54225  0.06342  1.0000
  H   H156      1.0  0.20112  0.54318  0.00012  1.0000
  H   H157      1.0  0.36185  0.53031  0.9935899999999998  1.0000
  H   H158      1.0  0.3303200000000001  0.59066  0.9622099999999998  1.0000
  H   H159      1.0  0.37771  0.59239  0.02618  1.0000
  H   H160      1.0  0.066  0.68808  0.01867  1.0000
  H   H161      1.0  0.10826000000000002  0.7532  0.02773  1.0000
  H   H162      1.0  0.02021  0.82729  0.039789999999999985  1.0000
  H   H163      1.0  0.7608800000000001  0.81135  0.09150999999999997  1.0000
  H   H164      1.0  0.9555000000000002  0.65323  0.9895299999999999  1.0000
  H   H165      1.0  0.9429800000000003  0.59305  0.02605  1.0000
  H   H166      1.0  0.7858200000000002  0.60401  0.024529999999999993  1.0000
  H   H167      1.0  0.7953000000000002  0.66695  0.9932699999999998  1.0000
  H   H168      1.0  0.8514800000000002  0.55994  0.94259  1.0000
  H   H169      1.0  0.7585900000000002  0.59653  0.9253099999999997  1.0000
  H   H170      1.0  0.86061  0.62369  0.91232  1.0000
  H   H171      1.0  0.74582  0.6683699999999999  0.08071  1.0000
  H   H172      1.0  0.70038  0.7275100000000001  0.10735999999999997  1.0000
  H   H173      1.0  0.7980300000000002  0.7636  0.19273999999999994  1.0000
  H   H174      1.0  0.85119  0.73246  0.28081999999999996  1.0000
  H   H175      1.0  0.8793200000000002  0.63592  0.29575999999999997  1.0000
  H   H176      1.0  0.6783000000000002  0.5638  0.18461999999999995  1.0000
  H   H177      1.0  0.63974  0.6058  0.13304  1.0000
  H   H178      1.0  0.7163900000000002  0.49371  0.11819999999999997  1.0000
  H   H179      1.0  0.6791300000000002  0.53461  0.06629  1.0000
  H   H180      1.0  0.53021  0.53347  0.10721999999999997  1.0000
  H   H181      1.0  0.56568  0.46799  0.09195  1.0000
  H   H182      1.0  0.56856  0.49118999999999996  0.15846  1.0000
  H   H183      1.0  0.8165800000000002  0.53637  0.26062  1.0000
  H   H184      1.0  0.8352100000000002  0.53074  0.19116999999999995  1.0000
  H   H185      1.0  0.8134800000000002  0.10538  0.09119  1.0000
  H   H186      1.0  0.7172600000000002  0.25952  0.16699999999999998  1.0000
  H   H187      1.0  0.61326  0.28376  0.18112999999999999  1.0000
  H   H188      1.0  0.6228100000000002  0.34609  0.10391  1.0000
  H   H189      1.0  0.7228200000000002  0.31936  0.08634  1.0000
  H   H190      1.0  0.7419500000000001  0.40612999999999994  0.13646  1.0000
  H   H191      1.0  0.7863600000000002  0.35251  0.17325999999999994  1.0000
  H   H192      1.0  0.6861400000000002  0.3794  0.1915  1.0000
  H   H193      1.0  0.7358700000000002  0.19605000000000003  0.9544399999999997  1.0000
  H   H194      1.0  0.5994800000000002  0.29073  0.029599999999999998  1.0000
  H   H195      1.0  0.6407300000000002  0.27329  0.9660899999999998  1.0000
  H   H196      1.0  0.58844  0.17423000000000002  0.93456  1.0000
  H   H197      1.0  0.45700000000000013  0.12105  0.91867  1.0000
  H   H198      1.0  0.3266300000000001  0.14  0.9709999999999999  1.0000
  H   H199      1.0  0.36988  0.33069  0.0013  1.0000
  H   H200      1.0  0.4808000000000001  0.34148  0.9919499999999998  1.0000
  H   H201      1.0  0.4915700000000001  0.38066  0.08358999999999998  1.0000
  H   H202      1.0  0.38226  0.36961  0.0934  1.0000
  H   H203      1.0  0.45702  0.44339  0.00627  1.0000
  H   H204      1.0  0.41001  0.46569000000000005  0.06622999999999998  1.0000
  H   H205      1.0  0.3468  0.43282  0.01771  1.0000
  H   H206      1.0  0.30953  0.25436  0.06776  1.0000
  H   H207      1.0  0.24467000000000005  0.22025  0.020319999999999998  1.0000
  H   H208      1.0  0.20095000000000005  0.12745  0.03438999999999999  1.0000
  H   H209      1.0  0.2820900000000001  0.04449  0.17486  1.0000
  H   H210      1.0  0.3271900000000001  0.22904  0.21195999999999995  1.0000
  H   H211      1.0  0.30443  0.2696  0.15593  1.0000
  H   H212      1.0  0.47643000000000013  0.2653  0.21401  1.0000
  H   H213      1.0  0.4538200000000001  0.30548  0.15855  1.0000
  H   H214      1.0  0.33748  0.35374999999999995  0.21241  1.0000
  H   H215      1.0  0.4391600000000001  0.36048  0.24257999999999993  1.0000
  H   H216      1.0  0.3644700000000001  0.31409  0.26825  1.0000
  H   H217      1.0  0.36886  0.09122  0.24088  1.0000
  H   H218      1.0  0.4034700000000001  0.15779  0.23117999999999997  1.0000
  H   H219      1.0  0.4330400000000001  0.02167  0.17176999999999995  1.0000
  H   H220      1.0  0.5698  0.98789  0.13489999999999996  1.0000
  H   H221      1.0  0.6956900000000003  0.04828  0.13155999999999998  1.0000
  H   H222      1.0  0.49714000000000014  0.20887999999999998  0.2856699999999999  1.0000
  H   H223      1.0  0.5390100000000002  0.14297  0.29003999999999996  1.0000
  H   H224      1.0  0.6453000000000002  0.24561  0.27892  1.0000
  H   H225      1.0  0.6879600000000002  0.18082  0.28326  1.0000
  H   H226      1.0  0.62805  0.16979  0.37535  1.0000
  H   H227      1.0  0.58157  0.23424000000000003  0.37192  1.0000
  H   H228      1.0  0.6945100000000002  0.22701  0.3718599999999999  1.0000
  H   H229      1.0  0.70224  0.18469  0.19077999999999995  1.0000
  H   H230      1.0  0.7674300000000002  0.12845  0.17693999999999993  1.0000
  H   H231      1.0  0.9280100000000002  0.9706  0.8220899999999999  1.0000
  H   H232      1.0  0.0022400000000000002  0.96938  0.57286  1.0000
  H   H233      1.0  0.05765000000000001  0.00556  0.6228399999999998  1.0000
  H   H234      1.0  0.8637600000000002  0.00511  0.6068899999999999  1.0000
  H   H235      1.0  0.9177300000000003  0.04024  0.65762  1.0000
  H   H236      1.0  0.99079  0.09866  0.5908699999999999  1.0000
  H   H237      1.0  0.8792700000000002  0.10082  0.57995  1.0000
  H   H238      1.0  0.9449000000000002  0.06217  0.53775  1.0000
  H   H239      1.0  0.19008000000000005  0.95586  0.7746599999999998  1.0000
  H   H240      1.0  0.22531000000000007  0.93115  0.68676  1.0000
  H   H241      1.0  0.1558  0.94737  0.63351  1.0000
  H   H242      1.0  0.15714  0.8434600000000001  0.7420399999999998  1.0000
  H   H243      1.0  0.12717  0.74725  0.7255099999999999  1.0000
  H   H244      1.0  0.08463000000000002  0.71714  0.63481  1.0000
  H   H245      1.0  0.19978000000000007  0.85642  0.5014199999999999  1.0000
  H   H246      1.0  0.2551900000000001  0.85702  0.5629699999999999  1.0000
  H   H247      1.0  0.24938000000000005  0.95775  0.5634199999999999  1.0000
  H   H248      1.0  0.20111000000000007  0.95682  0.5001199999999999  1.0000
  H   H249      1.0  0.36185  0.9697  0.49358999999999986  1.0000
  H   H250      1.0  0.3303200000000001  0.90934  0.4622099999999999  1.0000
  H   H251      1.0  0.37771  0.90762  0.5261799999999999  1.0000
  H   H252      1.0  0.066  0.81192  0.51867  1.0000
  H   H253      1.0  0.10826000000000002  0.74681  0.5277299999999999  1.0000
  H   H254      1.0  0.02021  0.67271  0.5397999999999998  1.0000
  H   H255      1.0  0.7608900000000002  0.68865  0.5915199999999999  1.0000
  H   H256      1.0  0.9555000000000002  0.84677  0.4895299999999999  1.0000
  H   H257      1.0  0.9429800000000003  0.90695  0.5260499999999999  1.0000
  H   H258      1.0  0.7858200000000002  0.896  0.52453  1.0000
  H   H259      1.0  0.7953000000000002  0.83305  0.49327  1.0000
  H   H260      1.0  0.8514800000000002  0.94006  0.4425899999999999  1.0000
  H   H261      1.0  0.7585900000000002  0.90348  0.4253099999999999  1.0000
  H   H262      1.0  0.86061  0.87632  0.4123199999999999  1.0000
  H   H263      1.0  0.74582  0.8316300000000001  0.5807099999999998  1.0000
  H   H264      1.0  0.70038  0.7724899999999999  0.60736  1.0000
  H   H265      1.0  0.7980300000000002  0.7364  0.69274  1.0000
  H   H266      1.0  0.85119  0.76754  0.7808199999999997  1.0000
  H   H267      1.0  0.8793200000000002  0.86409  0.79576  1.0000
  H   H268      1.0  0.6783000000000002  0.9362000000000001  0.6846199999999998  1.0000
  H   H269      1.0  0.63974  0.8942  0.6330399999999999  1.0000
  H   H270      1.0  0.7163900000000002  0.00629  0.6181999999999999  1.0000
  H   H271      1.0  0.6791300000000002  0.96539  0.56629  1.0000
  H   H272      1.0  0.53021  0.96653  0.6072199999999999  1.0000
  H   H273      1.0  0.56568  0.03201  0.5919499999999999  1.0000
  H   H274      1.0  0.56856  0.00881  0.65846  1.0000
  H   H275      1.0  0.8165800000000002  0.96363  0.76062  1.0000
  H   H276      1.0  0.8352100000000002  0.9692700000000001  0.6911699999999997  1.0000
  H   H277      1.0  0.18652  0.60538  0.40880999999999995  1.0000
  H   H278      1.0  0.28274  0.75952  0.3329999999999999  1.0000
  H   H279      1.0  0.38673  0.7837600000000001  0.3188699999999999  1.0000
  H   H280      1.0  0.37719  0.84609  0.39609  1.0000
  H   H281      1.0  0.2771800000000001  0.8193600000000001  0.41366  1.0000
  H   H282      1.0  0.25805  0.90613  0.36353999999999986  1.0000
  H   H283      1.0  0.21364000000000005  0.85251  0.32674  1.0000
  H   H284      1.0  0.3138600000000001  0.87941  0.30849999999999994  1.0000
  H   H285      1.0  0.2641299999999999  0.69605  0.5455599999999999  1.0000
  H   H286      1.0  0.4005200000000001  0.79073  0.4703999999999999  1.0000
  H   H287      1.0  0.3592700000000001  0.77329  0.53391  1.0000
  H   H288      1.0  0.41156  0.67423  0.56544  1.0000
  H   H289      1.0  0.543  0.62105  0.58133  1.0000
  H   H290      1.0  0.6733700000000002  0.64  0.5289999999999999  1.0000
  H   H291      1.0  0.63012  0.83069  0.49869999999999987  1.0000
  H   H292      1.0  0.5192000000000002  0.84148  0.50805  1.0000
  H   H293      1.0  0.50843  0.8806599999999999  0.4164099999999999  1.0000
  H   H294      1.0  0.61774  0.86961  0.4066  1.0000
  H   H295      1.0  0.5429800000000002  0.94339  0.49372999999999995  1.0000
  H   H296      1.0  0.58999  0.96569  0.43376999999999993  1.0000
  H   H297      1.0  0.65319  0.9328199999999999  0.48228999999999994  1.0000
  H   H298      1.0  0.6904800000000002  0.75436  0.43223999999999996  1.0000
  H   H299      1.0  0.75533  0.72024  0.4796799999999999  1.0000
  H   H300      1.0  0.79905  0.62745  0.4656099999999999  1.0000
  H   H301      1.0  0.7179200000000002  0.54449  0.32512999999999986  1.0000
  H   H302      1.0  0.6728100000000002  0.72904  0.28804  1.0000
  H   H303      1.0  0.6955600000000002  0.7695999999999998  0.34407  1.0000
  H   H304      1.0  0.52357  0.7653  0.28598999999999997  1.0000
  H   H305      1.0  0.54618  0.80548  0.34145  1.0000
  H   H306      1.0  0.66252  0.85375  0.28758999999999996  1.0000
  H   H307      1.0  0.56083  0.86048  0.2574199999999999  1.0000
  H   H308      1.0  0.6355300000000003  0.81409  0.23174999999999996  1.0000
  H   H309      1.0  0.6311400000000003  0.59122  0.25911  1.0000
  H   H310      1.0  0.59653  0.6577900000000001  0.26882  1.0000
  H   H311      1.0  0.5669600000000002  0.52168  0.32822999999999997  1.0000
  H   H312      1.0  0.43020000000000014  0.48789  0.36509999999999987  1.0000
  H   H313      1.0  0.30431000000000014  0.54828  0.36844  1.0000
  H   H314      1.0  0.50286  0.70888  0.21432999999999994  1.0000
  H   H315      1.0  0.4609800000000001  0.64297  0.20994999999999994  1.0000
  H   H316      1.0  0.3547  0.74561  0.22107999999999997  1.0000
  H   H317      1.0  0.31204  0.68082  0.21673999999999996  1.0000
  H   H318      1.0  0.37195  0.66979  0.12464999999999997  1.0000
  H   H319      1.0  0.41843000000000014  0.73424  0.12808  1.0000
  H   H320      1.0  0.30549  0.72701  0.12813999999999998  1.0000
  H   H321      1.0  0.29776000000000014  0.6846899999999999  0.30922  1.0000
  H   H322      1.0  0.23256  0.62845  0.32306  1.0000
  H   H323      1.0  0.07199000000000001  0.4706  0.67791  1.0000
  H   H324      1.0  0.9977600000000002  0.46937  0.9271399999999997  1.0000
  H   H325      1.0  0.9423500000000002  0.50556  0.87716  1.0000
  H   H326      1.0  0.13624000000000006  0.50511  0.8931099999999997  1.0000
  H   H327      1.0  0.08227000000000002  0.54024  0.8423799999999999  1.0000
  H   H328      1.0  0.00921  0.59866  0.90913  1.0000
  H   H329      1.0  0.12073000000000003  0.60082  0.9200499999999998  1.0000
  H   H330      1.0  0.05510000000000002  0.56217  0.9622499999999998  1.0000
  H   H331      1.0  0.80991  0.45586  0.72534  1.0000
  H   H332      1.0  0.77469  0.43115000000000003  0.8132399999999997  1.0000
  H   H333      1.0  0.8442000000000002  0.44737  0.86649  1.0000
  H   H334      1.0  0.8428500000000002  0.34346  0.75796  1.0000
  H   H335      1.0  0.8728300000000002  0.24725  0.77449  1.0000
  H   H336      1.0  0.9153700000000002  0.21714000000000003  0.86519  1.0000
  H   H337      1.0  0.8002200000000003  0.35642000000000007  0.9985799999999998  1.0000
  H   H338      1.0  0.7448100000000002  0.35702000000000006  0.9370299999999999  1.0000
  H   H339      1.0  0.75062  0.45774999999999993  0.9365799999999999  1.0000
  H   H340      1.0  0.79888  0.45682  0.9998799999999999  1.0000
  H   H341      1.0  0.6381400000000003  0.46969999999999995  0.006409999999999999  1.0000
  H   H342      1.0  0.6696800000000003  0.40934000000000004  0.03779  1.0000
  H   H343      1.0  0.6222900000000002  0.40761  0.9738199999999998  1.0000
  H   H344      1.0  0.9339900000000002  0.31192  0.9813299999999998  1.0000
  H   H345      1.0  0.8917400000000002  0.2468  0.9722699999999997  1.0000
  H   H346      1.0  0.97979  0.17271  0.96021  1.0000
  H   H347      1.0  0.23911000000000004  0.18865  0.9084799999999997  1.0000
  H   H348      1.0  0.04450000000000001  0.34677  0.010469999999999998  1.0000
  H   H349      1.0  0.057020000000000015  0.40695  0.9739499999999998  1.0000
  H   H350      1.0  0.21418000000000006  0.396  0.9754699999999998  1.0000
  H   H351      1.0  0.20470000000000005  0.33305  0.006729999999999999  1.0000
  H   H352      1.0  0.14852000000000007  0.44006  0.05740999999999999  1.0000
  H   H353      1.0  0.24141000000000007  0.40348  0.07468999999999999  1.0000
  H   H354      1.0  0.13938000000000006  0.37632  0.08768  1.0000
  H   H355      1.0  0.2541700000000001  0.33163  0.9192899999999998  1.0000
  H   H356      1.0  0.29962  0.27249  0.8926399999999998  1.0000
  H   H357      1.0  0.20197000000000007  0.2364  0.8072599999999998  1.0000
  H   H358      1.0  0.14880000000000004  0.26754  0.71918  1.0000
  H   H359      1.0  0.12068000000000002  0.36408  0.7042399999999999  1.0000
  H   H360      1.0  0.3217000000000001  0.4361999999999999  0.8153799999999998  1.0000
  H   H361      1.0  0.36026  0.3942  0.8669599999999998  1.0000
  H   H362      1.0  0.2836100000000001  0.50629  0.8817999999999999  1.0000
  H   H363      1.0  0.3208700000000001  0.46539  0.93371  1.0000
  H   H364      1.0  0.4697900000000001  0.46653  0.8927799999999998  1.0000
  H   H365      1.0  0.4343200000000001  0.53201  0.9080499999999999  1.0000
  H   H366      1.0  0.43144  0.50881  0.8415399999999998  1.0000
  H   H367      1.0  0.18342000000000006  0.46363  0.7393799999999998  1.0000
  H   H368      1.0  0.16479  0.46927  0.80883  1.0000
  C   C1        1.0  0.16487  0.88581  0.014909999999999996  1.0000
  C   C2        1.0  0.21888  0.8520400000000001  0.9805599999999998  1.0000
  C   C3        1.0  0.22405  0.86232  0.9258799999999999  1.0000
  C   C4        1.0  0.2778500000000001  0.83262  0.8930999999999998  1.0000
  C   C5        1.0  0.3262000000000001  0.79107  0.91646  1.0000
  C   C6        1.0  0.3406000000000001  0.72309  0.8508199999999998  1.0000
  C   C7        1.0  0.3182800000000001  0.6711800000000001  0.8795999999999998  1.0000
  C   C8        1.0  0.27365  0.63116  0.8425899999999998  1.0000
  C   C9        1.0  0.32418  0.78107  0.9717299999999998  1.0000
  C   C10       1.0  0.2686000000000001  0.81117  0.00302  1.0000
  C   C11       1.0  0.3871400000000001  0.7426700000000002  0.9971999999999998  1.0000
  C   C12       1.0  0.4701800000000001  0.77191  0.00965  1.0000
  C   C13       1.0  0.4703500000000001  0.81514  0.04516999999999999  1.0000
  C   C14       1.0  0.5437600000000002  0.8456  0.05354  1.0000
  C   C15       1.0  0.61736  0.83456  0.024559999999999995  1.0000
  C   C16       1.0  0.61984  0.79152  0.9888899999999999  1.0000
  C   C17       1.0  0.54673  0.75923  0.9833199999999999  1.0000
  C   C18       1.0  0.56838  0.6659300000000001  0.9776999999999998  1.0000
  C   C19       1.0  0.57025  0.62076  0.9371699999999998  1.0000
  C   C20       1.0  0.5901200000000002  0.56679  0.96313  1.0000
  C   C21       1.0  0.6981800000000002  0.78303  0.9544399999999997  1.0000
  C   C22       1.0  0.70868  0.82985  0.9166099999999999  1.0000
  C   C23       1.0  0.7608600000000002  0.8733299999999999  0.9295199999999998  1.0000
  C   C24       1.0  0.7643300000000002  0.91851  0.8965199999999999  1.0000
  C   C25       1.0  0.8193400000000002  0.9648200000000001  0.9100599999999999  1.0000
  C   C26       1.0  0.7150400000000002  0.91994  0.8498999999999999  1.0000
  C   C27       1.0  0.6624200000000002  0.87729  0.8356999999999999  1.0000
  C   C28       1.0  0.6602000000000002  0.8323  0.86938  1.0000
  C   C29       1.0  0.64371  0.7510900000000001  0.8225799999999998  1.0000
  C   C30       1.0  0.5746000000000002  0.71194  0.8055699999999998  1.0000
  C   C31       1.0  0.6102300000000003  0.66862  0.76866  1.0000
  C   C32       1.0  0.60308  0.88115  0.78817  1.0000
  C   C33       1.0  0.5163500000000002  0.90153  0.8059699999999997  1.0000
  C   C34       1.0  0.5103200000000002  0.95316  0.8273099999999998  1.0000
  C   C35       1.0  0.43425000000000014  0.9718299999999999  0.84896  1.0000
  C   C36       1.0  0.3637400000000001  0.93794  0.85104  1.0000
  C   C37       1.0  0.3671000000000001  0.8861  0.8300099999999998  1.0000
  C   C38       1.0  0.4431  0.86877  0.8057199999999998  1.0000
  C   C39       1.0  0.44866  0.8167  0.7255799999999998  1.0000
  C   C40       1.0  0.36537  0.7941  0.7035399999999998  1.0000
  C   C41       1.0  0.3655200000000001  0.7904200000000001  0.64277  1.0000
  C   C42       1.0  0.28998  0.84964  0.83562  1.0000
  C   C43       1.0  0.9101700000000003  0.020670000000000004  0.14152999999999996  1.0000
  C   C44       1.0  0.9378100000000003  0.03292  0.19647999999999996  1.0000
  C   C45       1.0  0.024950000000000007  0.03549  0.20894  1.0000
  C   C46       1.0  0.05272  0.04533  0.26081999999999994  1.0000
  C   C47       1.0  0.99079  0.05173  0.3007099999999999  1.0000
  C   C48       1.0  0.0034400000000000017  0.01376  0.38702  1.0000
  C   C49       1.0  0.07676000000000002  0.97362  0.38368  1.0000
  C   C50       1.0  0.06465  0.92556  0.42076  1.0000
  C   C51       1.0  0.9028300000000002  0.05419  0.28820999999999997  1.0000
  C   C52       1.0  0.8773  0.043669999999999994  0.23603999999999997  1.0000
  C   C53       1.0  0.8396800000000002  0.07453  0.32887999999999995  1.0000
  C   C54       1.0  0.8561900000000002  0.1335  0.33988  1.0000
  C   C55       1.0  0.8565  0.1705  0.29807999999999996  1.0000
  C   C56       1.0  0.87468  0.22436  0.30721  1.0000
  C   C57       1.0  0.8975300000000003  0.24138  0.35813  1.0000
  C   C58       1.0  0.8997800000000002  0.20526  0.4007099999999999  1.0000
  C   C59       1.0  0.87563  0.15196  0.39129  1.0000
  C   C60       1.0  0.7902800000000002  0.12046  0.46176  1.0000
  C   C61       1.0  0.75464  0.06511  0.4738099999999999  1.0000
  C   C62       1.0  0.6663900000000003  0.06977  0.49943  1.0000
  C   C63       1.0  0.93366  0.22273  0.4547  1.0000
  C   C64       1.0  0.022040000000000008  0.24634  0.4479999999999999  1.0000
  C   C65       1.0  0.03294000000000001  0.30167  0.44940999999999987  1.0000
  C   C66       1.0  0.11117  0.32513  0.43612  1.0000
  C   C67       1.0  0.12141000000000003  0.38371  0.4403  1.0000
  C   C68       1.0  0.17901  0.29278  0.4196399999999999  1.0000
  C   C69       1.0  0.17057  0.23722  0.4177999999999999  1.0000
  C   C70       1.0  0.09234000000000003  0.21421  0.4336399999999999  1.0000
  C   C71       1.0  0.08544  0.13237  0.48173  1.0000
  C   C72       1.0  0.17587  0.12695  0.5039699999999999  1.0000
  C   C73       1.0  0.17631000000000005  0.10028000000000001  0.55885  1.0000
  C   C74       1.0  0.24112  0.20337  0.39444  1.0000
  C   C75       1.0  0.21478000000000005  0.18427  0.33951  1.0000
  C   C76       1.0  0.19439  0.22104  0.2993799999999999  1.0000
  C   C77       1.0  0.16303  0.20365  0.25036  1.0000
  C   C78       1.0  0.14825  0.14929  0.24170999999999998  1.0000
  C   C79       1.0  0.16762  0.11143  0.28102  1.0000
  C   C80       1.0  0.20362  0.12955  0.32903999999999994  1.0000
  C   C81       1.0  0.3143900000000001  0.07359  0.35781  1.0000
  C   C82       1.0  0.33113  0.02447  0.39175  1.0000
  C   C83       1.0  0.42153  0.00308  0.3830899999999999  1.0000
  C   C84       1.0  0.14671000000000006  0.05263  0.27282  1.0000
  C   C85       1.0  0.83513  0.38581  0.4850899999999999  1.0000
  C   C86       1.0  0.7811100000000002  0.35204  0.5194399999999999  1.0000
  C   C87       1.0  0.77595  0.36232  0.5741199999999999  1.0000
  C   C88       1.0  0.72215  0.33262  0.6069  1.0000
  C   C89       1.0  0.6738000000000002  0.29107  0.58354  1.0000
  C   C90       1.0  0.6594000000000002  0.22309  0.64918  1.0000
  C   C91       1.0  0.6817200000000002  0.17118  0.6204  1.0000
  C   C92       1.0  0.7263400000000002  0.13116  0.65741  1.0000
  C   C93       1.0  0.67582  0.28107  0.52827  1.0000
  C   C94       1.0  0.7314  0.31117  0.49697999999999987  1.0000
  C   C95       1.0  0.6128600000000001  0.24267  0.5028  1.0000
  C   C96       1.0  0.5298200000000002  0.27191  0.49035  1.0000
  C   C97       1.0  0.5296500000000002  0.31514  0.45483  1.0000
  C   C98       1.0  0.4562400000000001  0.3456  0.44646  1.0000
  C   C99       1.0  0.3826400000000001  0.33456  0.47543999999999986  1.0000
  C   C100      1.0  0.3801600000000001  0.29152  0.51112  1.0000
  C   C101      1.0  0.45327  0.25923  0.5166799999999999  1.0000
  C   C102      1.0  0.4316200000000001  0.16593000000000002  0.5223  1.0000
  C   C103      1.0  0.42975000000000013  0.12076  0.5628299999999999  1.0000
  C   C104      1.0  0.40988  0.06679  0.53687  1.0000
  C   C105      1.0  0.30182000000000003  0.28303  0.5455599999999999  1.0000
  C   C106      1.0  0.29131999999999997  0.32985  0.5833899999999999  1.0000
  C   C107      1.0  0.23914000000000005  0.37333  0.57048  1.0000
  C   C108      1.0  0.23567000000000005  0.41851  0.6034899999999999  1.0000
  C   C109      1.0  0.18066  0.46482  0.5899399999999999  1.0000
  C   C110      1.0  0.2849500000000001  0.41994  0.6501  1.0000
  C   C111      1.0  0.33758  0.37728  0.6643  1.0000
  C   C112      1.0  0.33979  0.33230000000000004  0.6306199999999998  1.0000
  C   C113      1.0  0.3562900000000001  0.25109  0.6774199999999998  1.0000
  C   C114      1.0  0.42539  0.21194  0.69443  1.0000
  C   C115      1.0  0.3897700000000001  0.16862  0.7313399999999999  1.0000
  C   C116      1.0  0.3969200000000001  0.38115  0.7118299999999999  1.0000
  C   C117      1.0  0.4836400000000001  0.40151999999999993  0.69404  1.0000
  C   C118      1.0  0.48968  0.45316  0.6726899999999998  1.0000
  C   C119      1.0  0.56574  0.47183  0.6510399999999997  1.0000
  C   C120      1.0  0.63626  0.43794  0.6489599999999998  1.0000
  C   C121      1.0  0.6329  0.3861  0.66999  1.0000
  C   C122      1.0  0.5569  0.36876  0.6942799999999998  1.0000
  C   C123      1.0  0.5513400000000003  0.3167  0.77442  1.0000
  C   C124      1.0  0.63463  0.2941  0.79646  1.0000
  C   C125      1.0  0.63448  0.29042  0.8572299999999998  1.0000
  C   C126      1.0  0.71003  0.34963999999999995  0.6643799999999999  1.0000
  C   C127      1.0  0.08983000000000002  0.52067  0.35846999999999996  1.0000
  C   C128      1.0  0.06220000000000001  0.53292  0.30350999999999995  1.0000
  C   C129      1.0  0.97505  0.53549  0.29106  1.0000
  C   C130      1.0  0.9472800000000002  0.54533  0.23918  1.0000
  C   C131      1.0  0.00921  0.55173  0.19928999999999994  1.0000
  C   C132      1.0  0.9965600000000002  0.51376  0.11297999999999998  1.0000
  C   C133      1.0  0.92323  0.47361  0.11631999999999998  1.0000
  C   C134      1.0  0.93535  0.42556  0.07923999999999999  1.0000
  C   C135      1.0  0.09717  0.55419  0.21179  1.0000
  C   C136      1.0  0.1227  0.54367  0.26396  1.0000
  C   C137      1.0  0.16033  0.57453  0.17111999999999994  1.0000
  C   C138      1.0  0.14381000000000005  0.6335  0.16012  1.0000
  C   C139      1.0  0.14350000000000004  0.6705  0.20192  1.0000
  C   C140      1.0  0.12532  0.72436  0.19278999999999993  1.0000
  C   C141      1.0  0.10247  0.7413799999999999  0.14186999999999997  1.0000
  C   C142      1.0  0.10022000000000003  0.7052600000000001  0.0993  1.0000
  C   C143      1.0  0.12437000000000002  0.65196  0.10870999999999999  1.0000
  C   C144      1.0  0.20972000000000005  0.62046  0.038239999999999996  1.0000
  C   C145      1.0  0.24536000000000005  0.56512  0.02619  1.0000
  C   C146      1.0  0.33361000000000013  0.56978  0.0005699999999999999  1.0000
  C   C147      1.0  0.06634  0.72273  0.045299999999999986  1.0000
  C   C148      1.0  0.9779600000000003  0.74634  0.052  1.0000
  C   C149      1.0  0.9670600000000003  0.8016800000000001  0.050589999999999996  1.0000
  C   C150      1.0  0.8888300000000002  0.82513  0.06387  1.0000
  C   C151      1.0  0.87859  0.8837100000000001  0.05969  1.0000
  C   C152      1.0  0.8209800000000003  0.7927799999999999  0.08034999999999998  1.0000
  C   C153      1.0  0.8294300000000002  0.73722  0.08218999999999997  1.0000
  C   C154      1.0  0.90766  0.71421  0.06635999999999999  1.0000
  C   C155      1.0  0.9145600000000003  0.63237  0.018269999999999998  1.0000
  C   C156      1.0  0.82413  0.62695  0.9960299999999999  1.0000
  C   C157      1.0  0.8236900000000003  0.60028  0.94115  1.0000
  C   C158      1.0  0.7588800000000002  0.70337  0.10555999999999997  1.0000
  C   C159      1.0  0.7852200000000003  0.68427  0.16048999999999994  1.0000
  C   C160      1.0  0.8056100000000003  0.72104  0.20061999999999994  1.0000
  C   C161      1.0  0.8369600000000003  0.7036499999999999  0.24963999999999995  1.0000
  C   C162      1.0  0.8517500000000002  0.6492900000000001  0.25828999999999996  1.0000
  C   C163      1.0  0.8323800000000002  0.61144  0.21897999999999995  1.0000
  C   C164      1.0  0.79638  0.62955  0.17095999999999995  1.0000
  C   C165      1.0  0.68561  0.57359  0.14218999999999998  1.0000
  C   C166      1.0  0.66887  0.52447  0.10824999999999997  1.0000
  C   C167      1.0  0.57847  0.50308  0.11690999999999999  1.0000
  C   C168      1.0  0.8532900000000002  0.55263  0.22717999999999994  1.0000
  C   C169      1.0  0.83513  0.11419  0.9850899999999998  1.0000
  C   C170      1.0  0.7811100000000002  0.14796  0.01944  1.0000
  C   C171      1.0  0.77595  0.13768  0.07412  1.0000
  C   C172      1.0  0.72215  0.16738  0.1069  1.0000
  C   C173      1.0  0.6738000000000002  0.20892999999999998  0.08353999999999999  1.0000
  C   C174      1.0  0.6594000000000002  0.27691  0.14918  1.0000
  C   C175      1.0  0.6817200000000002  0.32882  0.1204  1.0000
  C   C176      1.0  0.7263400000000002  0.36884  0.15740999999999997  1.0000
  C   C177      1.0  0.67582  0.21893  0.028269999999999993  1.0000
  C   C178      1.0  0.7314  0.18883  0.99698  1.0000
  C   C179      1.0  0.6128600000000001  0.25733  0.0028  1.0000
  C   C180      1.0  0.5298200000000002  0.22809  0.9903499999999997  1.0000
  C   C181      1.0  0.5296500000000002  0.18486  0.9548299999999997  1.0000
  C   C182      1.0  0.4562400000000001  0.1544  0.9464599999999997  1.0000
  C   C183      1.0  0.3826400000000001  0.16544000000000003  0.9754399999999998  1.0000
  C   C184      1.0  0.3801600000000001  0.20848  0.011109999999999998  1.0000
  C   C185      1.0  0.45327  0.24078  0.016679999999999997  1.0000
  C   C186      1.0  0.4316200000000001  0.33407  0.022299999999999993  1.0000
  C   C187      1.0  0.42975000000000013  0.37924  0.06283  1.0000
  C   C188      1.0  0.40988  0.43321  0.03687  1.0000
  C   C189      1.0  0.3018200000000001  0.21697  0.04555999999999999  1.0000
  C   C190      1.0  0.29132  0.17015000000000002  0.08339  1.0000
  C   C191      1.0  0.23914000000000005  0.12667  0.07047999999999999  1.0000
  C   C192      1.0  0.23567000000000005  0.08149  0.10348  1.0000
  C   C193      1.0  0.18066  0.03518  0.08994  1.0000
  C   C194      1.0  0.2849600000000001  0.08006  0.15009999999999998  1.0000
  C   C195      1.0  0.33758  0.12272  0.16429999999999995  1.0000
  C   C196      1.0  0.33979  0.1677  0.13061999999999999  1.0000
  C   C197      1.0  0.3562900000000001  0.24892  0.17742  1.0000
  C   C198      1.0  0.42539  0.28806  0.19442999999999994  1.0000
  C   C199      1.0  0.3897700000000001  0.33138000000000006  0.23133999999999996  1.0000
  C   C200      1.0  0.3969200000000001  0.11885  0.21182999999999996  1.0000
  C   C201      1.0  0.4836400000000001  0.09848  0.19403  1.0000
  C   C202      1.0  0.48968  0.04684000000000001  0.17268999999999995  1.0000
  C   C203      1.0  0.56575  0.02817  0.15103999999999998  1.0000
  C   C204      1.0  0.63626  0.06205999999999999  0.14896  1.0000
  C   C205      1.0  0.6329  0.1139  0.16999  1.0000
  C   C206      1.0  0.55689  0.13123  0.19427999999999995  1.0000
  C   C207      1.0  0.5513400000000003  0.18330000000000002  0.27441999999999994  1.0000
  C   C208      1.0  0.63462  0.2059  0.29645999999999995  1.0000
  C   C209      1.0  0.63448  0.20957999999999996  0.35723  1.0000
  C   C210      1.0  0.7100200000000002  0.15036  0.16437999999999994  1.0000
  C   C211      1.0  0.08983000000000001  0.97933  0.8584699999999998  1.0000
  C   C212      1.0  0.06219  0.96708  0.80352  1.0000
  C   C213      1.0  0.97505  0.96451  0.7910599999999998  1.0000
  C   C214      1.0  0.9472800000000002  0.95467  0.73918  1.0000
  C   C215      1.0  0.00921  0.94827  0.69929  1.0000
  C   C216      1.0  0.9965500000000003  0.98624  0.6129799999999999  1.0000
  C   C217      1.0  0.9232400000000002  0.02639  0.6163199999999999  1.0000
  C   C218      1.0  0.93535  0.07444  0.5792399999999999  1.0000
  C   C219      1.0  0.09717  0.94581  0.71179  1.0000
  C   C220      1.0  0.1227  0.95633  0.7639599999999998  1.0000
  C   C221      1.0  0.16032000000000005  0.92547  0.6711199999999998  1.0000
  C   C222      1.0  0.14381000000000005  0.8665  0.66012  1.0000
  C   C223      1.0  0.14350000000000004  0.8295  0.7019199999999998  1.0000
  C   C224      1.0  0.12532  0.77564  0.6927899999999998  1.0000
  C   C225      1.0  0.10247  0.7586200000000001  0.6418699999999999  1.0000
  C   C226      1.0  0.10022000000000003  0.79475  0.59929  1.0000
  C   C227      1.0  0.12437000000000002  0.84804  0.6087099999999999  1.0000
  C   C228      1.0  0.20972000000000005  0.8795500000000002  0.53824  1.0000
  C   C229      1.0  0.24536000000000005  0.93489  0.52619  1.0000
  C   C230      1.0  0.33361000000000013  0.93023  0.50057  1.0000
  C   C231      1.0  0.06634  0.77727  0.5452999999999999  1.0000
  C   C232      1.0  0.9779600000000003  0.75366  0.552  1.0000
  C   C233      1.0  0.9670600000000003  0.69833  0.55059  1.0000
  C   C234      1.0  0.8888300000000002  0.67487  0.56388  1.0000
  C   C235      1.0  0.87859  0.61629  0.5596899999999999  1.0000
  C   C236      1.0  0.8209900000000002  0.7072200000000001  0.58036  1.0000
  C   C237      1.0  0.8294300000000002  0.76278  0.5822  1.0000
  C   C238      1.0  0.90766  0.7858  0.56636  1.0000
  C   C239      1.0  0.9145600000000003  0.86763  0.5182699999999999  1.0000
  C   C240      1.0  0.82413  0.8730500000000001  0.49602999999999997  1.0000
  C   C241      1.0  0.8236900000000003  0.89972  0.44115  1.0000
  C   C242      1.0  0.7588800000000002  0.79663  0.6055599999999999  1.0000
  C   C243      1.0  0.7852200000000003  0.81573  0.6604899999999998  1.0000
  C   C244      1.0  0.8056100000000003  0.77897  0.7006099999999998  1.0000
  C   C245      1.0  0.8369600000000003  0.7963500000000001  0.7496399999999998  1.0000
  C   C246      1.0  0.8517500000000002  0.8507099999999999  0.75829  1.0000
  C   C247      1.0  0.8323800000000002  0.88857  0.7189799999999997  1.0000
  C   C248      1.0  0.79638  0.87045  0.67096  1.0000
  C   C249      1.0  0.68561  0.9264100000000001  0.64219  1.0000
  C   C250      1.0  0.66887  0.97553  0.6082499999999998  1.0000
  C   C251      1.0  0.57847  0.99692  0.6169099999999998  1.0000
  C   C252      1.0  0.8532900000000002  0.9473800000000001  0.7271799999999999  1.0000
  C   C253      1.0  0.16487  0.61419  0.51491  1.0000
  C   C254      1.0  0.21889000000000006  0.6479599999999999  0.48056  1.0000
  C   C255      1.0  0.22405  0.63768  0.42588  1.0000
  C   C256      1.0  0.2778500000000001  0.66738  0.3930999999999999  1.0000
  C   C257      1.0  0.3262000000000001  0.70893  0.41645999999999994  1.0000
  C   C258      1.0  0.3406000000000001  0.77691  0.35081999999999997  1.0000
  C   C259      1.0  0.3182800000000001  0.8288199999999999  0.3796  1.0000
  C   C260      1.0  0.27365  0.86884  0.34258999999999995  1.0000
  C   C261      1.0  0.32418  0.71893  0.47172999999999987  1.0000
  C   C262      1.0  0.2686000000000001  0.68883  0.50302  1.0000
  C   C263      1.0  0.3871400000000001  0.7573299999999998  0.4971999999999999  1.0000
  C   C264      1.0  0.4701800000000001  0.72809  0.50965  1.0000
  C   C265      1.0  0.4703500000000001  0.68486  0.5451699999999999  1.0000
  C   C266      1.0  0.5437600000000002  0.6544  0.55354  1.0000
  C   C267      1.0  0.61736  0.66544  0.5245599999999999  1.0000
  C   C268      1.0  0.61984  0.70848  0.48887999999999987  1.0000
  C   C269      1.0  0.54673  0.74077  0.48332  1.0000
  C   C270      1.0  0.56838  0.83407  0.4776999999999999  1.0000
  C   C271      1.0  0.57025  0.87924  0.43716999999999995  1.0000
  C   C272      1.0  0.5901200000000002  0.93321  0.46313  1.0000
  C   C273      1.0  0.6981800000000002  0.71697  0.45444  1.0000
  C   C274      1.0  0.70868  0.67015  0.41661  1.0000
  C   C275      1.0  0.7608600000000002  0.62667  0.42951999999999996  1.0000
  C   C276      1.0  0.7643300000000002  0.58149  0.39650999999999986  1.0000
  C   C277      1.0  0.8193400000000002  0.53518  0.41005999999999987  1.0000
  C   C278      1.0  0.7150500000000002  0.58006  0.3499  1.0000
  C   C279      1.0  0.6624200000000002  0.62272  0.3357  1.0000
  C   C280      1.0  0.6602100000000002  0.6677  0.36938  1.0000
  C   C281      1.0  0.64371  0.7489200000000001  0.32258  1.0000
  C   C282      1.0  0.5746000000000002  0.78806  0.30557  1.0000
  C   C283      1.0  0.6102300000000003  0.83138  0.26866  1.0000
  C   C284      1.0  0.60308  0.61885  0.28817  1.0000
  C   C285      1.0  0.5163500000000002  0.59848  0.30596  1.0000
  C   C286      1.0  0.5103200000000002  0.54684  0.32731  1.0000
  C   C287      1.0  0.43425000000000014  0.52818  0.34896  1.0000
  C   C288      1.0  0.3637400000000001  0.56206  0.35104  1.0000
  C   C289      1.0  0.3671000000000001  0.61391  0.33000999999999997  1.0000
  C   C290      1.0  0.4431  0.63124  0.30572  1.0000
  C   C291      1.0  0.44866  0.6833  0.22558  1.0000
  C   C292      1.0  0.36537  0.7059000000000001  0.20354  1.0000
  C   C293      1.0  0.3655200000000001  0.70958  0.14277  1.0000
  C   C294      1.0  0.28997  0.65036  0.33562  1.0000
  C   C295      1.0  0.9101700000000003  0.47933  0.64153  1.0000
  C   C296      1.0  0.9378000000000002  0.46708  0.69649  1.0000
  C   C297      1.0  0.024950000000000014  0.46451  0.70894  1.0000
  C   C298      1.0  0.05272  0.45467  0.7608199999999999  1.0000
  C   C299      1.0  0.99079  0.44826999999999995  0.8007099999999998  1.0000
  C   C300      1.0  0.0034400000000000008  0.48624000000000006  0.88702  1.0000
  C   C301      1.0  0.07676000000000002  0.52639  0.8836799999999999  1.0000
  C   C302      1.0  0.06465  0.57444  0.9207599999999999  1.0000
  C   C303      1.0  0.9028300000000002  0.44581  0.7882099999999997  1.0000
  C   C304      1.0  0.8773  0.45633000000000007  0.73604  1.0000
  C   C305      1.0  0.83967  0.42547  0.82888  1.0000
  C   C306      1.0  0.8561800000000003  0.36650000000000005  0.8398799999999997  1.0000
  C   C307      1.0  0.8565  0.3295  0.79808  1.0000
  C   C308      1.0  0.87468  0.27564  0.8072099999999998  1.0000
  C   C309      1.0  0.8975300000000003  0.25862  0.85813  1.0000
  C   C310      1.0  0.8997800000000002  0.29474  0.90071  1.0000
  C   C311      1.0  0.87563  0.34804000000000007  0.8912899999999998  1.0000
  C   C312      1.0  0.7902800000000002  0.37954  0.9617599999999997  1.0000
  C   C313      1.0  0.75464  0.43489  0.9738099999999997  1.0000
  C   C314      1.0  0.6663900000000003  0.43023000000000006  0.99943  1.0000
  C   C315      1.0  0.93366  0.27727  0.9547  1.0000
  C   C316      1.0  0.022040000000000008  0.25366  0.9479999999999997  1.0000
  C   C317      1.0  0.03294000000000001  0.19833  0.9494099999999999  1.0000
  C   C318      1.0  0.11117  0.17486999999999997  0.9361299999999998  1.0000
  C   C319      1.0  0.12141000000000003  0.11629  0.94031  1.0000
  C   C320      1.0  0.17901  0.20722  0.91965  1.0000
  C   C321      1.0  0.17057  0.26278  0.91781  1.0000
  C   C322      1.0  0.09234000000000003  0.28579  0.93364  1.0000
  C   C323      1.0  0.08544  0.36763  0.9817299999999998  1.0000
  C   C324      1.0  0.17587  0.37305  0.003969999999999999  1.0000
  C   C325      1.0  0.17631000000000005  0.3997200000000001  0.058849999999999986  1.0000
  C   C326      1.0  0.24112  0.29663  0.8944399999999999  1.0000
  C   C327      1.0  0.21478000000000005  0.31573  0.83951  1.0000
  C   C328      1.0  0.19439  0.27896  0.79938  1.0000
  C   C329      1.0  0.16303  0.29635  0.75036  1.0000
  C   C330      1.0  0.14825  0.35071  0.7417099999999999  1.0000
  C   C331      1.0  0.16762  0.38857  0.78102  1.0000
  C   C332      1.0  0.20362  0.37045000000000006  0.8290399999999998  1.0000
  C   C333      1.0  0.3143900000000001  0.42641  0.8578099999999999  1.0000
  C   C334      1.0  0.33113  0.47553  0.89175  1.0000
  C   C335      1.0  0.42153  0.4969199999999999  0.8830899999999999  1.0000
  C   C336      1.0  0.14671000000000006  0.44737  0.77282  1.0000
  O   O1        1.0  0.12948  0.92851  0.9952599999999998  1.0000
  O   O2        1.0  0.15167  0.87303  0.06327999999999999  1.0000
  O   O3        1.0  0.38123000000000007  0.76137  0.8859099999999998  1.0000
  O   O4        1.0  0.54975  0.71486  0.9497399999999998  1.0000
  O   O5        1.0  0.60587  0.79076  0.8571699999999999  1.0000
  O   O6        1.0  0.82709  0.00261  0.8758399999999998  1.0000
  O   O7        1.0  0.8609400000000003  0.96577  0.9543599999999998  1.0000
  O   O8        1.0  0.44586  0.81805  0.78317  1.0000
  O   O9        1.0  0.9660500000000002  0.01048  0.10541  1.0000
  O   O10       1.0  0.8308300000000002  0.021160000000000005  0.12966  1.0000
  O   O11       1.0  0.01737  0.05937  0.3524499999999999  1.0000
  O   O12       1.0  0.87072  0.11617  0.43376  1.0000
  O   O13       1.0  0.08288  0.15939  0.43091  1.0000
  O   O14       1.0  0.05549  0.41305  0.44983  1.0000
  O   O15       1.0  0.19562  0.40459000000000006  0.43710999999999994  1.0000
  O   O16       1.0  0.22867000000000007  0.09227  0.3674199999999999  1.0000
  O   O17       1.0  0.8705100000000002  0.42851  0.50474  1.0000
  O   O18       1.0  0.8483300000000003  0.37302  0.43671999999999994  1.0000
  O   O19       1.0  0.61877  0.26137  0.61409  1.0000
  O   O20       1.0  0.4502500000000001  0.21486  0.5502599999999999  1.0000
  O   O21       1.0  0.3941300000000001  0.29076  0.64283  1.0000
  O   O22       1.0  0.17291000000000006  0.50261  0.6241599999999999  1.0000
  O   O23       1.0  0.13906  0.46577  0.54564  1.0000
  O   O24       1.0  0.55414  0.31805  0.7168299999999997  1.0000
  O   O25       1.0  0.03395  0.51048  0.3945899999999999  1.0000
  O   O26       1.0  0.16917  0.52116  0.3703399999999999  1.0000
  O   O27       1.0  0.9826300000000002  0.55937  0.14754999999999996  1.0000
  O   O28       1.0  0.12928  0.61617  0.06624  1.0000
  O   O29       1.0  0.9171200000000003  0.6593899999999999  0.06909  1.0000
  O   O30       1.0  0.9445100000000002  0.91305  0.050169999999999985  1.0000
  O   O31       1.0  0.8043800000000002  0.90459  0.06288  1.0000
  O   O32       1.0  0.77133  0.59227  0.13258  1.0000
  O   O33       1.0  0.8705100000000002  0.07149  0.004739999999999999  1.0000
  O   O34       1.0  0.8483300000000003  0.12697  0.9367199999999998  1.0000
  O   O35       1.0  0.61877  0.23863000000000004  0.11408999999999998  1.0000
  O   O36       1.0  0.4502500000000001  0.28514  0.050259999999999985  1.0000
  O   O37       1.0  0.3941300000000001  0.20924  0.14282999999999998  1.0000
  O   O38       1.0  0.17291000000000006  0.99739  0.12416  1.0000
  O   O39       1.0  0.13906  0.03423  0.04563999999999999  1.0000
  O   O40       1.0  0.55414  0.18195  0.21683  1.0000
  O   O41       1.0  0.03395  0.98952  0.8945899999999998  1.0000
  O   O42       1.0  0.16917  0.97884  0.8703399999999998  1.0000
  O   O43       1.0  0.9826300000000002  0.94063  0.64755  1.0000
  O   O44       1.0  0.12928  0.8838299999999999  0.5662399999999999  1.0000
  O   O45       1.0  0.9171200000000003  0.8406100000000001  0.5690899999999999  1.0000
  O   O46       1.0  0.9445100000000002  0.58695  0.55017  1.0000
  O   O47       1.0  0.8043800000000002  0.59541  0.56289  1.0000
  O   O48       1.0  0.77133  0.9077300000000001  0.63258  1.0000
  O   O49       1.0  0.12948  0.57149  0.4952599999999999  1.0000
  O   O50       1.0  0.15167  0.62698  0.56328  1.0000
  O   O51       1.0  0.38123000000000007  0.73863  0.38590999999999986  1.0000
  O   O52       1.0  0.54975  0.78514  0.44974  1.0000
  O   O53       1.0  0.60587  0.70925  0.35717  1.0000
  O   O54       1.0  0.82709  0.49739  0.37584  1.0000
  O   O55       1.0  0.8609300000000002  0.53423  0.4543599999999999  1.0000
  O   O56       1.0  0.44586  0.68195  0.2831699999999999  1.0000
  O   O57       1.0  0.9660500000000002  0.48952  0.60541  1.0000
  O   O58       1.0  0.8308300000000002  0.47884000000000004  0.62966  1.0000
  O   O59       1.0  0.017369999999999997  0.44063  0.8524499999999998  1.0000
  O   O60       1.0  0.87072  0.38383  0.93376  1.0000
  O   O61       1.0  0.08288  0.34061  0.93091  1.0000
  O   O62       1.0  0.05549  0.08695  0.9498299999999997  1.0000
  O   O63       1.0  0.19562  0.09541  0.9371199999999997  1.0000
  O   O64       1.0  0.22867000000000007  0.40773  0.8674199999999997  1.0000
