data_image0
_chemical_formula_structural       Cu34H216C316N100
_chemical_formula_sum              "Cu34 H216 C316 N100"
_cell_length_a       14.83225
_cell_length_b       14.83198
_cell_length_c       41.03817
_cell_angle_alpha    92.23298
_cell_angle_beta     92.23197
_cell_angle_gamma    118.62962999999999

_space_group_name_H-M_alt    "P 1"
_space_group_IT_number       1

loop_
  _space_group_symop_operation_xyz
  'x, y, z'

loop_
  _atom_site_type_symbol
  _atom_site_label
  _atom_site_symmetry_multiplicity
  _atom_site_fract_x
  _atom_site_fract_y
  _atom_site_fract_z
  _atom_site_occupancy
  Cu  Cu1       1.0  0.6366399999999995  0.8732099999999998  0.8289000000000001  1.0000
  Cu  Cu2       1.0  0.80017  0.07292999999999997  0.90887  1.0000
  Cu  Cu3       1.0  0.84208  0.03233999999999996  0.84331  1.0000
  Cu  Cu4       1.0  0.6137000000000001  0.04024000000000003  0.8680900000000001  1.0000
  Cu  Cu5       1.0  0.6603699999999999  0.8372199999999999  0.9020100000000001  1.0000
  Cu  Cu6       1.0  0.29911  0.2719699999999999  0.83037  1.0000
  Cu  Cu7       1.0  0.74577  0.4993599999999999  0.00687  1.0000
  Cu  Cu8       1.0  0.8004199999999998  0.85533  0.06941  1.0000
  Cu  Cu9       1.0  0.12677999999999995  0.36342  0.67108  1.0000
  Cu  Cu10      1.0  0.9270499999999999  0.19980999999999996  0.59114  1.0000
  Cu  Cu11      1.0  0.9677  0.1579  0.65666  1.0000
  Cu  Cu12      1.0  0.9598099999999998  0.3863299999999999  0.63191  1.0000
  Cu  Cu13      1.0  0.16276000000000002  0.33956000000000003  0.5979900000000001  1.0000
  Cu  Cu14      1.0  0.72794  0.7007599999999998  0.66962  1.0000
  Cu  Cu15      1.0  0.50061  0.25417  0.49313000000000007  1.0000
  Cu  Cu16      1.0  0.1446899999999999  0.19959999999999994  0.43061000000000005  1.0000
  Cu  Cu17      1.0  0.36334  0.12649  0.17104  1.0000
  Cu  Cu18      1.0  0.19952999999999982  0.9264999999999998  0.09162  1.0000
  Cu  Cu19      1.0  0.1561999999999998  0.9665699999999998  0.15708  1.0000
  Cu  Cu20      1.0  0.3864299999999999  0.9597499999999999  0.13185  1.0000
  Cu  Cu21      1.0  0.3386799999999998  0.16186999999999999  0.09811000000000002  1.0000
  Cu  Cu22      1.0  0.6974099999999998  0.72347  0.17070000000000002  1.0000
  Cu  Cu23      1.0  0.2547099999999999  0.5001999999999999  0.99336  1.0000
  Cu  Cu24      1.0  0.19912000000000002  0.14039  0.9315600000000002  1.0000
  Cu  Cu25      1.0  0.8735399999999998  0.63665  0.3289500000000001  1.0000
  Cu  Cu26      1.0  0.07349  0.8005  0.40835  1.0000
  Cu  Cu27      1.0  0.03414999999999998  0.84468  0.34293  1.0000
  Cu  Cu28      1.0  0.04023999999999998  0.61353  0.3681  1.0000
  Cu  Cu29      1.0  0.8385  0.6617999999999999  0.40188000000000007  1.0000
  Cu  Cu30      1.0  0.27623999999999993  0.30163  0.32925  1.0000
  Cu  Cu31      1.0  0.49981000000000003  0.7452400000000001  0.50662  1.0000
  Cu  Cu32      1.0  0.8595499999999999  0.8008499999999998  0.56845  1.0000
  Cu  Cu33      1.0  0.15002999999999994  0.8499399999999999  0.75  1.0000
  Cu  Cu34      1.0  0.8495199999999998  0.15069  0.2500200000000001  1.0000
  H   H1        1.0  0.47424999999999984  0.8386099999999999  0.79201  1.0000
  H   H2        1.0  0.2887099999999999  0.7709099999999999  0.7780200000000002  1.0000
  H   H3        1.0  0.33619  0.051559999999999995  0.74605  1.0000
  H   H4        1.0  0.52306  0.13148  0.75936  1.0000
  H   H5        1.0  0.68689  0.20269999999999996  0.77283  1.0000
  H   H6        1.0  0.8219099999999999  0.35551999999999995  0.8005200000000001  1.0000
  H   H7        1.0  0.9899199999999997  0.5146699999999998  0.811  1.0000
  H   H8        1.0  0.14377999999999988  0.3472799999999999  0.82445  1.0000
  H   H9        1.0  0.9836699999999998  0.18171999999999996  0.8136200000000001  1.0000
  H   H10       1.0  0.5028  0.66663  0.81026  1.0000
  H   H11       1.0  0.45509  0.4816  0.80127  1.0000
  H   H12       1.0  0.24768  0.39688  0.87355  1.0000
  H   H13       1.0  0.2795  0.57583  0.88374  1.0000
  H   H14       1.0  0.26460999999999985  0.7202099999999998  0.8728600000000001  1.0000
  H   H15       1.0  0.20609  0.85043  0.86793  1.0000
  H   H16       1.0  0.1424199999999999  0.9601899999999998  0.8944600000000001  1.0000
  H   H17       1.0  0.43249  0.16232000000000005  0.9370000000000003  1.0000
  H   H18       1.0  0.5080400000000002  0.05954000000000005  0.9131000000000001  1.0000
  H   H19       1.0  0.7587699999999998  0.88206  0.78121  1.0000
  H   H20       1.0  0.7701499999999998  0.8704  0.7213600000000001  1.0000
  H   H21       1.0  0.7427599999999998  0.57897  0.72268  1.0000
  H   H22       1.0  0.73093  0.57814  0.7826500000000001  1.0000
  H   H23       1.0  0.7756099999999997  0.6116399999999997  0.83824  1.0000
  H   H24       1.0  0.85555  0.6150799999999998  0.8927300000000001  1.0000
  H   H25       1.0  0.8654999999999999  0.5472699999999999  0.94618  1.0000
  H   H26       1.0  0.6349999999999999  0.6006099999999999  0.9807200000000001  1.0000
  H   H27       1.0  0.6153299999999998  0.6707  0.9288200000000001  1.0000
  H   H28       1.0  0.86779  0.06091999999999999  0.9697100000000001  1.0000
  H   H29       1.0  0.82118  0.01707  0.026380000000000004  1.0000
  H   H30       1.0  0.8626899999999997  0.75953  0.01695  1.0000
  H   H31       1.0  0.9045799999999998  0.7890599999999999  0.95972  1.0000
  H   H32       1.0  0.9791799999999996  0.844  0.91189  1.0000
  H   H33       1.0  0.9752699999999996  0.7642499999999999  0.8578  1.0000
  H   H34       1.0  0.05187999999999997  0.7362999999999998  0.80822  1.0000
  H   H35       1.0  0.10139  0.014410000000000034  0.7736300000000002  1.0000
  H   H36       1.0  0.03007999999999999  0.05524999999999999  0.82219  1.0000
  H   H37       1.0  0.024789999999999982  0.24481999999999998  0.8986800000000001  1.0000
  H   H38       1.0  0.18186000000000002  0.33260000000000006  0.9353600000000001  1.0000
  H   H39       1.0  0.09293000000000001  0.53889  0.97454  1.0000
  H   H40       1.0  0.9331599999999999  0.4612  0.93838  1.0000
  H   H41       1.0  0.8349399999999998  0.42841999999999997  0.88634  1.0000
  H   H42       1.0  0.67306  0.42648  0.8796500000000002  1.0000
  H   H43       1.0  0.51248  0.42535999999999996  0.86096  1.0000
  H   H44       1.0  0.38719  0.12674  0.8196800000000001  1.0000
  H   H45       1.0  0.5456599999999998  0.11783999999999994  0.83408  1.0000
  H   H46       1.0  0.67908  0.19243000000000002  0.9278100000000001  1.0000
  H   H47       1.0  0.7132  0.36775999999999986  0.94521  1.0000
  H   H48       1.0  0.7335799999999996  0.31579  0.04315  1.0000
  H   H49       1.0  0.6959  0.13627999999999998  0.02992  1.0000
  H   H50       1.0  0.57194  0.9515999999999998  0.00904  1.0000
  H   H51       1.0  0.5929599999999998  0.77173  0.01893  1.0000
  H   H52       1.0  0.47884999999999994  0.5855  0.026640000000000004  1.0000
  H   H53       1.0  0.3567099999999998  0.5317499999999997  0.93082  1.0000
  H   H54       1.0  0.45791  0.71757  0.92017  1.0000
  H   H55       1.0  0.16144000000000003  0.52587  0.7079700000000001  1.0000
  H   H56       1.0  0.22902999999999987  0.7113999999999998  0.7219300000000001  1.0000
  H   H57       1.0  0.9483299999999999  0.6637099999999999  0.7539400000000002  1.0000
  H   H58       1.0  0.86856  0.47686  0.7406400000000001  1.0000
  H   H59       1.0  0.7974  0.31322  0.72718  1.0000
  H   H60       1.0  0.64445  0.17811999999999995  0.69947  1.0000
  H   H61       1.0  0.4853199999999999  0.01013000000000001  0.6890200000000001  1.0000
  H   H62       1.0  0.6527899999999996  0.8563499999999997  0.67553  1.0000
  H   H63       1.0  0.81832  0.016439999999999986  0.68636  1.0000
  H   H64       1.0  0.33329  0.49731  0.6897300000000001  1.0000
  H   H65       1.0  0.5183199999999999  0.5449299999999999  0.69874  1.0000
  H   H66       1.0  0.60322  0.75227  0.62645  1.0000
  H   H67       1.0  0.4242999999999999  0.72062  0.61624  1.0000
  H   H68       1.0  0.27973999999999977  0.7354399999999998  0.62709  1.0000
  H   H69       1.0  0.14945000000000003  0.79383  0.6321100000000001  1.0000
  H   H70       1.0  0.03967999999999999  0.85756  0.60561  1.0000
  H   H71       1.0  0.83758  0.56759  0.56301  1.0000
  H   H72       1.0  0.9403699999999998  0.49202  0.58689  1.0000
  H   H73       1.0  0.11789999999999999  0.24113  0.71878  1.0000
  H   H74       1.0  0.12949999999999995  0.22961  0.77863  1.0000
  H   H75       1.0  0.4209599999999999  0.25712  0.77732  1.0000
  H   H76       1.0  0.42188  0.2691  0.71736  1.0000
  H   H77       1.0  0.3885699999999999  0.22465999999999997  0.6618000000000002  1.0000
  H   H78       1.0  0.38468999999999987  0.14422  0.60722  1.0000
  H   H79       1.0  0.4525  0.13431999999999997  0.5537600000000001  1.0000
  H   H80       1.0  0.39939  0.36504999999999993  0.51928  1.0000
  H   H81       1.0  0.32929  0.38463  0.57118  1.0000
  H   H82       1.0  0.9389499999999998  0.13201  0.53027  1.0000
  H   H83       1.0  0.98285  0.17872  0.47363  1.0000
  H   H84       1.0  0.24064  0.1376  0.48309000000000013  1.0000
  H   H85       1.0  0.21100999999999998  0.09554999999999998  0.5403  1.0000
  H   H86       1.0  0.15582999999999994  0.020569999999999988  0.58811  1.0000
  H   H87       1.0  0.23576000000000003  0.024699999999999972  0.64219  1.0000
  H   H88       1.0  0.2637499999999999  0.9481599999999998  0.69178  1.0000
  H   H89       1.0  0.9855999999999998  0.89861  0.72637  1.0000
  H   H90       1.0  0.9446799999999997  0.9698  0.6777800000000002  1.0000
  H   H91       1.0  0.75523  0.97525  0.60131  1.0000
  H   H92       1.0  0.6673999999999998  0.8182  0.56462  1.0000
  H   H93       1.0  0.4611499999999999  0.90719  0.52545  1.0000
  H   H94       1.0  0.53889  0.06694999999999997  0.5616  1.0000
  H   H95       1.0  0.57165  0.16521  0.61362  1.0000
  H   H96       1.0  0.5735699999999998  0.3269799999999999  0.62032  1.0000
  H   H97       1.0  0.5745999999999998  0.48747  0.63905  1.0000
  H   H98       1.0  0.87322  0.61279  0.68035  1.0000
  H   H99       1.0  0.8822099999999998  0.4544099999999999  0.66591  1.0000
  H   H100      1.0  0.8075299999999996  0.3210499999999999  0.5722  1.0000
  H   H101      1.0  0.6320999999999999  0.28664  0.55479  1.0000
  H   H102      1.0  0.68404  0.26606  0.45687  1.0000
  H   H103      1.0  0.86365  0.30406  0.47009  1.0000
  H   H104      1.0  0.04843000000000002  0.42794000000000004  0.49095  1.0000
  H   H105      1.0  0.22823999999999992  0.4070099999999999  0.4811  1.0000
  H   H106      1.0  0.41446999999999995  0.52124  0.47335  1.0000
  H   H107      1.0  0.46822999999999987  0.6433199999999998  0.56919  1.0000
  H   H108      1.0  0.28243  0.54206  0.57984  1.0000
  H   H109      1.0  0.525  0.16136  0.20791000000000004  1.0000
  H   H110      1.0  0.71064  0.22995  0.22205000000000003  1.0000
  H   H111      1.0  0.6646799999999997  0.9495299999999998  0.25373000000000007  1.0000
  H   H112      1.0  0.47776999999999986  0.86843  0.24015  1.0000
  H   H113      1.0  0.31353999999999976  0.7968499999999997  0.22695  1.0000
  H   H114      1.0  0.17814999999999995  0.6438699999999998  0.19952  1.0000
  H   H115      1.0  0.009919999999999983  0.48471  0.18939  1.0000
  H   H116      1.0  0.85608  0.65212  0.17614000000000002  1.0000
  H   H117      1.0  0.016499999999999914  0.8177499999999998  0.18646  1.0000
  H   H118      1.0  0.49538999999999994  0.33263  0.18886  1.0000
  H   H119      1.0  0.5437199999999998  0.5175399999999999  0.19832000000000002  1.0000
  H   H120      1.0  0.75487  0.60413  0.12719  1.0000
  H   H121      1.0  0.7221999999999997  0.4251099999999999  0.11644000000000003  1.0000
  H   H122      1.0  0.7344699999999998  0.28021  0.12598  1.0000
  H   H123      1.0  0.79506  0.15331  0.12911  1.0000
  H   H124      1.0  0.8584299999999998  0.04414  0.10200000000000001  1.0000
  H   H125      1.0  0.5656799999999996  0.8358299999999997  0.06294  1.0000
  H   H126      1.0  0.49026999999999993  0.9379299999999999  0.08734  1.0000
  H   H127      1.0  0.24099  0.11658999999999999  0.21883  1.0000
  H   H128      1.0  0.22635  0.12618999999999997  0.27852  1.0000
  H   H129      1.0  0.2469599999999999  0.4150099999999999  0.27726  1.0000
  H   H130      1.0  0.26247  0.41782  0.21747  1.0000
  H   H131      1.0  0.22248999999999994  0.38656999999999997  0.16191  1.0000
  H   H132      1.0  0.14445999999999995  0.38499999999999995  0.10699  1.0000
  H   H133      1.0  0.1361  0.45285  0.05345000000000001  1.0000
  H   H134      1.0  0.36721  0.39913  0.0197  1.0000
  H   H135      1.0  0.38544  0.32891  0.07173  1.0000
  H   H136      1.0  0.12853999999999985  0.9358199999999998  0.030720000000000004  1.0000
  H   H137      1.0  0.17484999999999998  0.97883  0.97394  1.0000
  H   H138      1.0  0.14028  0.24040999999999996  0.98367  1.0000
  H   H139      1.0  0.09848999999999998  0.21146999999999996  0.04096  1.0000
  H   H140      1.0  0.02093999999999997  0.15575999999999995  0.0883  1.0000
  H   H141      1.0  0.02415  0.23518  0.14222  1.0000
  H   H142      1.0  0.9481099999999999  0.26424999999999993  0.19179  1.0000
  H   H143      1.0  0.8968799999999998  0.9859199999999998  0.22661  1.0000
  H   H144      1.0  0.9668499999999999  0.9435899999999998  0.17794000000000001  1.0000
  H   H145      1.0  0.9752099999999998  0.7533599999999998  0.10166  1.0000
  H   H146      1.0  0.8187499999999998  0.66565  0.06468000000000002  1.0000
  H   H147      1.0  0.9086099999999998  0.45986  0.025730000000000003  1.0000
  H   H148      1.0  0.06797999999999994  0.5377199999999999  0.06210000000000001  1.0000
  H   H149      1.0  0.16757999999999995  0.57162  0.11357  1.0000
  H   H150      1.0  0.3311899999999999  0.576  0.11875  1.0000
  H   H151      1.0  0.49408  0.5796099999999998  0.13585000000000003  1.0000
  H   H152      1.0  0.6171  0.87648  0.17848  1.0000
  H   H153      1.0  0.4562299999999999  0.88257  0.16576  1.0000
  H   H154      1.0  0.3200899999999999  0.8063399999999997  0.07226  1.0000
  H   H155      1.0  0.28856  0.63204  0.05474  1.0000
  H   H156      1.0  0.26734000000000013  0.68395  0.95685  1.0000
  H   H157      1.0  0.30263  0.8626  0.97016  1.0000
  H   H158      1.0  0.4266899999999999  0.04702  0.99103  1.0000
  H   H159      1.0  0.40744999999999987  0.22754999999999995  0.98094  1.0000
  H   H160      1.0  0.52361  0.41325999999999996  0.97309  1.0000
  H   H161      1.0  0.64446  0.4665799999999999  0.0691  1.0000
  H   H162      1.0  0.5412399999999998  0.2812299999999999  0.07988  1.0000
  H   H163      1.0  0.8388999999999998  0.4751999999999999  0.29205  1.0000
  H   H164      1.0  0.7704199999999997  0.28957999999999995  0.27796000000000004  1.0000
  H   H165      1.0  0.05086999999999999  0.33569  0.24626  1.0000
  H   H166      1.0  0.13181  0.52257  0.25979  1.0000
  H   H167      1.0  0.20332999999999996  0.68681  0.27299  1.0000
  H   H168      1.0  0.35631999999999986  0.8221199999999997  0.30049  1.0000
  H   H169      1.0  0.5155199999999998  0.9902899999999998  0.31061  1.0000
  H   H170      1.0  0.34815  0.14417  0.3239  1.0000
  H   H171      1.0  0.18251999999999985  0.9838399999999998  0.31361  1.0000
  H   H172      1.0  0.66736  0.50444  0.31112  1.0000
  H   H173      1.0  0.48242999999999997  0.45613999999999993  0.30167000000000005  1.0000
  H   H174      1.0  0.39592  0.24519999999999995  0.37287000000000003  1.0000
  H   H175      1.0  0.57494  0.27776999999999996  0.38358  1.0000
  H   H176      1.0  0.7198699999999998  0.26550000000000007  0.37403000000000003  1.0000
  H   H177      1.0  0.8468299999999997  0.20497  0.37085000000000007  1.0000
  H   H178      1.0  0.95599  0.14159999999999998  0.39797000000000005  1.0000
  H   H179      1.0  0.16426  0.43429  0.4370600000000001  1.0000
  H   H180      1.0  0.0622  0.50971  0.41264  1.0000
  H   H181      1.0  0.88342  0.7591199999999999  0.28114  1.0000
  H   H182      1.0  0.87372  0.77384  0.22145000000000004  1.0000
  H   H183      1.0  0.5849099999999999  0.7532199999999998  0.22278  1.0000
  H   H184      1.0  0.58213  0.73755  0.28256  1.0000
  H   H185      1.0  0.6134099999999999  0.7774799999999997  0.33809  1.0000
  H   H186      1.0  0.61513  0.8556099999999999  0.39303  1.0000
  H   H187      1.0  0.54741  0.8640399999999999  0.44659000000000004  1.0000
  H   H188      1.0  0.6009599999999998  0.6328  0.48031  1.0000
  H   H189      1.0  0.67108  0.6144999999999999  0.42826  1.0000
  H   H190      1.0  0.06416999999999988  0.8715099999999998  0.46930000000000005  1.0000
  H   H191      1.0  0.021159999999999977  0.82524  0.52608  1.0000
  H   H192      1.0  0.7594399999999998  0.85954  0.51633  1.0000
  H   H193      1.0  0.7883599999999998  0.90136  0.4590400000000001  1.0000
  H   H194      1.0  0.84426  0.97915  0.41172000000000003  1.0000
  H   H195      1.0  0.76493  0.9760599999999998  0.35779000000000005  1.0000
  H   H196      1.0  0.7360099999999999  0.05217  0.3082  1.0000
  H   H197      1.0  0.014439999999999975  0.10342  0.27345  1.0000
  H   H198      1.0  0.05666  0.03341000000000001  0.32213  1.0000
  H   H199      1.0  0.24662999999999996  0.02464  0.39834  1.0000
  H   H200      1.0  0.33433  0.18108  0.43533  1.0000
  H   H201      1.0  0.54012  0.09126999999999998  0.4743  1.0000
  H   H202      1.0  0.46234999999999987  0.9319299999999998  0.43792  1.0000
  H   H203      1.0  0.4283799999999998  0.8321799999999999  0.38645  1.0000
  H   H204      1.0  0.42402  0.66857  0.38123  1.0000
  H   H205      1.0  0.42033  0.50567  0.36413  1.0000
  H   H206      1.0  0.12346999999999993  0.38276999999999983  0.32151  1.0000
  H   H207      1.0  0.11741999999999998  0.54364  0.33424  1.0000
  H   H208      1.0  0.19365999999999992  0.67975  0.42773  1.0000
  H   H209      1.0  0.368  0.71143  0.44524  1.0000
  H   H210      1.0  0.31610999999999995  0.7328599999999998  0.54312  1.0000
  H   H211      1.0  0.13743  0.69743  0.52981  1.0000
  H   H212      1.0  0.95298  0.57346  0.5089600000000001  1.0000
  H   H213      1.0  0.7724899999999997  0.5923999999999999  0.51906  1.0000
  H   H214      1.0  0.58677  0.4761799999999999  0.52691  1.0000
  H   H215      1.0  0.5334599999999999  0.3554699999999999  0.4309  1.0000
  H   H216      1.0  0.7188299999999999  0.45872  0.42012  1.0000
  C   C1        1.0  0.44748999999999994  0.8885899999999999  0.78163  1.0000
  C   C2        1.0  0.34331999999999996  0.8502  0.7737400000000001  1.0000
  C   C3        1.0  0.3697699999999998  0.006460000000000027  0.75597  1.0000
  C   C4        1.0  0.47456  0.050699999999999995  0.76348  1.0000
  C   C5        1.0  0.51747  0.9924  0.7771  1.0000
  C   C6        1.0  0.6257999999999998  0.04128  0.7874  1.0000
  C   C7        1.0  0.6986699999999998  0.14509  0.78472  1.0000
  C   C8        1.0  0.79038  0.159  0.79998  1.0000
  C   C9        1.0  0.8878399999999999  0.25367  0.80576  1.0000
  C   C10       1.0  0.89198  0.35032  0.80511  1.0000
  C   C11       1.0  0.98605  0.43945  0.81153  1.0000
  C   C12       1.0  0.07131999999999997  0.34738999999999987  0.81904  1.0000
  C   C13       1.0  0.9813399999999998  0.25394999999999995  0.8129  1.0000
  C   C14       1.0  0.4447399999999999  0.60928  0.82453  1.0000
  C   C15       1.0  0.41886  0.50614  0.81964  1.0000
  C   C16       1.0  0.3022  0.4587399999999999  0.85966  1.0000
  C   C17       1.0  0.3208  0.55877  0.86529  1.0000
  C   C18       1.0  0.39443999999999996  0.63785  0.8478100000000002  1.0000
  C   C19       1.0  0.41385000000000005  0.74253  0.8552500000000001  1.0000
  C   C20       1.0  0.34428999999999993  0.77073  0.86833  1.0000
  C   C21       1.0  0.3996  0.87754  0.87447  1.0000
  C   C22       1.0  0.3630499999999999  0.94407  0.88876  1.0000
  C   C23       1.0  0.25841000000000003  0.9172600000000001  0.8838300000000002  1.0000
  C   C24       1.0  0.22247999999999993  0.9784099999999998  0.89847  1.0000
  C   C25       1.0  0.3839799999999999  0.09190999999999995  0.92195  1.0000
  C   C26       1.0  0.4265  0.03492999999999998  0.90823  1.0000
  C   C27       1.0  0.7542599999999997  0.8129599999999999  0.76931  1.0000
  C   C28       1.0  0.7611099999999997  0.80687  0.73574  1.0000
  C   C29       1.0  0.7466900000000001  0.64483  0.73656  1.0000
  C   C30       1.0  0.74038  0.6450799999999998  0.7701  1.0000
  C   C31       1.0  0.74182  0.72958  0.7876  1.0000
  C   C32       1.0  0.7303199999999999  0.7273299999999998  0.8224600000000001  1.0000
  C   C33       1.0  0.74889  0.66625  0.8440600000000001  1.0000
  C   C34       1.0  0.72496  0.68962  0.87477  1.0000
  C   C35       1.0  0.7331799999999998  0.6490799999999999  0.90553  1.0000
  C   C36       1.0  0.8038799999999998  0.6119  0.9113300000000001  1.0000
  C   C37       1.0  0.80991  0.5738999999999999  0.94117  1.0000
  C   C38       1.0  0.6820899999999999  0.6048799999999998  0.96057  1.0000
  C   C39       1.0  0.6720499999999997  0.6444899999999999  0.9315600000000002  1.0000
  C   C40       1.0  0.8665499999999998  0.9927499999999998  0.97905  1.0000
  C   C41       1.0  0.8412399999999995  0.9691499999999997  0.01085  1.0000
  C   C42       1.0  0.8639399999999999  0.8251699999999997  0.00567  1.0000
  C   C43       1.0  0.8886  0.8431299999999999  0.97361  1.0000
  C   C44       1.0  0.8888099999999997  0.9276699999999999  0.9588600000000002  1.0000
  C   C45       1.0  0.9083099999999997  0.9423499999999998  0.9246600000000001  1.0000
  C   C46       1.0  0.95055  0.89538  0.90453  1.0000
  C   C47       1.0  0.9527899999999998  0.93244  0.87359  1.0000
  C   C48       1.0  0.9937899999999997  0.9121899999999998  0.84437  1.0000
  C   C49       1.0  0.002770000000000046  0.82201  0.8398  1.0000
  C   C50       1.0  0.044639999999999874  0.8055899999999998  0.8120800000000001  1.0000
  C   C51       1.0  0.07118999999999977  0.9599799999999997  0.79256  1.0000
  C   C52       1.0  0.02998000000000006  0.9819800000000001  0.8195600000000002  1.0000
  C   C53       1.0  0.036269999999999934  0.30983999999999995  0.9149000000000002  1.0000
  C   C54       1.0  0.12482  0.35901  0.9356600000000002  1.0000
  C   C55       1.0  0.07588999999999994  0.47499999999999987  0.957  1.0000
  C   C56       1.0  0.98736  0.4317799999999999  0.9366  1.0000
  C   C57       1.0  0.9639099999999998  0.3460099999999999  0.9149500000000002  1.0000
  C   C58       1.0  0.8666799999999999  0.29889999999999994  0.89564  1.0000
  C   C59       1.0  0.8098399999999998  0.34672  0.88495  1.0000
  C   C60       1.0  0.7162899999999996  0.2674499999999999  0.8709000000000001  1.0000
  C   C61       1.0  0.6251699999999997  0.27142999999999995  0.85869  1.0000
  C   C62       1.0  0.61314  0.35894  0.86565  1.0000
  C   C63       1.0  0.5224899999999998  0.35837999999999987  0.85559  1.0000
  C   C64       1.0  0.4529000000000001  0.19243000000000005  0.8325100000000002  1.0000
  C   C65       1.0  0.54174  0.18749  0.84102  1.0000
  C   C66       1.0  0.6916999999999996  0.21680999999999995  0.95363  1.0000
  C   C67       1.0  0.7109599999999998  0.31525  0.96337  1.0000
  C   C68       1.0  0.7211999999999997  0.28562999999999994  0.01782  1.0000
  C   C69       1.0  0.7001900000000001  0.18513  0.01025  1.0000
  C   C70       1.0  0.68547  0.14777  0.97719  1.0000
  C   C71       1.0  0.6593999999999998  0.04211000000000002  0.96794  1.0000
  C   C72       1.0  0.6038899999999999  0.9546599999999997  0.98556  1.0000
  C   C73       1.0  0.5888299999999997  0.87109  0.96474  1.0000
  C   C74       1.0  0.53114  0.76145  0.96933  1.0000
  C   C75       1.0  0.5381499999999999  0.7215099999999998  0.9993200000000001  1.0000
  C   C76       1.0  0.4761499999999998  0.61756  0.00342  1.0000
  C   C77       1.0  0.4078299999999998  0.5876799999999999  0.9500300000000002  1.0000
  C   C78       1.0  0.46559999999999996  0.6909799999999999  0.9439800000000003  1.0000
  C   C79       1.0  0.21742999999999998  0.21496999999999994  0.86526  1.0000
  C   C80       1.0  0.8055799999999996  0.8059099999999999  0.10958000000000001  1.0000
  C   C81       1.0  0.11145  0.5526  0.71835  1.0000
  C   C82       1.0  0.14975999999999984  0.6567299999999998  0.72622  1.0000
  C   C83       1.0  0.99346  0.6301699999999999  0.74401  1.0000
  C   C84       1.0  0.9493099999999998  0.5254299999999998  0.73651  1.0000
  C   C85       1.0  0.007649999999999891  0.4825799999999999  0.72288  1.0000
  C   C86       1.0  0.9587399999999998  0.3742699999999999  0.71259  1.0000
  C   C87       1.0  0.8549499999999998  0.30138  0.71526  1.0000
  C   C88       1.0  0.8409999999999997  0.20968  0.69999  1.0000
  C   C89       1.0  0.74634  0.11222000000000001  0.69422  1.0000
  C   C90       1.0  0.64967  0.10807999999999998  0.69488  1.0000
  C   C91       1.0  0.56056  0.013999999999999986  0.68848  1.0000
  C   C92       1.0  0.6526599999999998  0.92877  0.68095  1.0000
  C   C93       1.0  0.7460800000000001  0.018770000000000026  0.6870800000000001  1.0000
  C   C94       1.0  0.39067  0.55532  0.67546  1.0000
  C   C95       1.0  0.49380999999999997  0.5811599999999999  0.6803700000000001  1.0000
  C   C96       1.0  0.54132  0.69781  0.64033  1.0000
  C   C97       1.0  0.44128  0.67927  0.63469  1.0000
  C   C98       1.0  0.36217999999999995  0.6056499999999999  0.65217  1.0000
  C   C99       1.0  0.2574999999999999  0.58625  0.64472  1.0000
  C   C100      1.0  0.22927  0.65578  0.63164  1.0000
  C   C101      1.0  0.12242999999999989  0.60042  0.62552  1.0000
  C   C102      1.0  0.05584  0.63695  0.6112500000000001  1.0000
  C   C103      1.0  0.08261999999999987  0.7415599999999998  0.61621  1.0000
  C   C104      1.0  0.02145999999999998  0.77752  0.60159  1.0000
  C   C105      1.0  0.90799  0.6160899999999999  0.57807  1.0000
  C   C106      1.0  0.9649699999999999  0.57353  0.59178  1.0000
  C   C107      1.0  0.18701999999999994  0.24571  0.73068  1.0000
  C   C108      1.0  0.19308999999999996  0.23881999999999992  0.7642500000000001  1.0000
  C   C109      1.0  0.3551699999999998  0.25331  0.76344  1.0000
  C   C110      1.0  0.35493  0.25967  0.72991  1.0000
  C   C111      1.0  0.27045  0.25825  0.7124  1.0000
  C   C112      1.0  0.27271  0.26975  0.67755  1.0000
  C   C113      1.0  0.3338299999999999  0.2512  0.65595  1.0000
  C   C114      1.0  0.31041  0.27502  0.62523  1.0000
  C   C115      1.0  0.35093  0.26677999999999996  0.5944700000000002  1.0000
  C   C116      1.0  0.3879999999999999  0.19599999999999995  0.58864  1.0000
  C   C117      1.0  0.4259999999999999  0.19000999999999996  0.5588  1.0000
  C   C118      1.0  0.39514999999999995  0.31794  0.5394200000000001  1.0000
  C   C119      1.0  0.35552999999999996  0.3279399999999999  0.56844  1.0000
  C   C120      1.0  0.007210000000000005  0.13337  0.52094  1.0000
  C   C121      1.0  0.030819999999999993  0.15872  0.48915  1.0000
  C   C122      1.0  0.17491  0.13622  0.49435  1.0000
  C   C123      1.0  0.15692999999999993  0.1115  0.5264  1.0000
  C   C124      1.0  0.07230999999999997  0.11115999999999998  0.5411400000000001  1.0000
  C   C125      1.0  0.05757999999999997  0.09161  0.57534  1.0000
  C   C126      1.0  0.10454999999999999  0.04933999999999998  0.59547  1.0000
  C   C127      1.0  0.06757  0.04719000000000001  0.62642  1.0000
  C   C128      1.0  0.08781999999999998  0.006180000000000012  0.65563  1.0000
  C   C129      1.0  0.17801999999999993  0.9972399999999998  0.6602  1.0000
  C   C130      1.0  0.19444999999999998  0.9554  0.68793  1.0000
  C   C131      1.0  0.040049999999999954  0.9288199999999999  0.7074500000000001  1.0000
  C   C132      1.0  0.01801000000000001  0.9699700000000001  0.68044  1.0000
  C   C133      1.0  0.6901699999999997  0.9637799999999997  0.5851000000000001  1.0000
  C   C134      1.0  0.641  0.87524  0.56433  1.0000
  C   C135      1.0  0.5250199999999998  0.9241899999999997  0.543  1.0000
  C   C136      1.0  0.5682499999999999  0.012710000000000018  0.5633900000000001  1.0000
  C   C137      1.0  0.65402  0.03613999999999998  0.58505  1.0000
  C   C138      1.0  0.7011199999999999  0.13337999999999997  0.60435  1.0000
  C   C139      1.0  0.6533299999999997  0.19025  0.61503  1.0000
  C   C140      1.0  0.7326  0.28379  0.6290800000000001  1.0000
  C   C141      1.0  0.7286199999999999  0.3748799999999999  0.6413  1.0000
  C   C142      1.0  0.64109  0.38689  0.6343400000000001  1.0000
  C   C143      1.0  0.64161  0.47748  0.64441  1.0000
  C   C144      1.0  0.80755  0.54709  0.6675000000000001  1.0000
  C   C145      1.0  0.8125299999999999  0.4582999999999999  0.6589700000000001  1.0000
  C   C146      1.0  0.7831700000000001  0.30836  0.54638  1.0000
  C   C147      1.0  0.6846699999999999  0.2889699999999999  0.53664  1.0000
  C   C148      1.0  0.71426  0.27862  0.4822000000000001  1.0000
  C   C149      1.0  0.81482  0.29977  0.48976  1.0000
  C   C150      1.0  0.8522199999999998  0.31456  0.52282  1.0000
  C   C151      1.0  0.95787  0.34056  0.53207  1.0000
  C   C152      1.0  0.04533  0.396  0.51443  1.0000
  C   C153      1.0  0.12889999999999996  0.41106999999999994  0.53527  1.0000
  C   C154      1.0  0.23853999999999997  0.46880999999999995  0.53069  1.0000
  C   C155      1.0  0.27847999999999995  0.4618399999999999  0.50069  1.0000
  C   C156      1.0  0.3824199999999999  0.5239  0.4965800000000001  1.0000
  C   C157      1.0  0.41232  0.59219  0.54997  1.0000
  C   C158      1.0  0.3090099999999999  0.53437  0.55603  1.0000
  C   C159      1.0  0.7850299999999997  0.7825999999999997  0.6347500000000001  1.0000
  C   C160      1.0  0.19409999999999994  0.19434999999999994  0.39046000000000003  1.0000
  C   C161      1.0  0.5520999999999998  0.11156  0.21824000000000002  1.0000
  C   C162      1.0  0.6562899999999998  0.15046  0.22621000000000002  1.0000
  C   C163      1.0  0.63065  0.99422  0.24381  1.0000
  C   C164      1.0  0.5258999999999998  0.9493999999999998  0.23617000000000002  1.0000
  C   C165      1.0  0.48263  0.007499999999999998  0.22264  1.0000
  C   C166      1.0  0.37428999999999985  0.9582999999999999  0.21240000000000003  1.0000
  C   C167      1.0  0.30161  0.85447  0.21512  1.0000
  C   C168      1.0  0.20971  0.84048  0.20000000000000004  1.0000
  C   C169      1.0  0.11225  0.74576  0.19435000000000002  1.0000
  C   C170      1.0  0.10806000000000002  0.6491  0.19503000000000004  1.0000
  C   C171      1.0  0.01386000000000001  0.55996  0.18881  1.0000
  C   C172      1.0  0.9285899999999999  0.6520399999999997  0.18141000000000002  1.0000
  C   C173      1.0  0.018719999999999935  0.7454799999999998  0.18730000000000002  1.0000
  C   C174      1.0  0.55439  0.3902699999999999  0.17492000000000002  1.0000
  C   C175      1.0  0.58063  0.49336  0.18011  1.0000
  C   C176      1.0  0.6994  0.54175  0.14066  1.0000
  C   C177      1.0  0.6802099999999999  0.44167  0.13475  1.0000
  C   C178      1.0  0.60545  0.3620999999999999  0.15182  1.0000
  C   C179      1.0  0.5858299999999999  0.25748  0.1442  1.0000
  C   C180      1.0  0.65509  0.22947999999999993  0.13078  1.0000
  C   C181      1.0  0.60001  0.12260999999999998  0.12472000000000003  1.0000
  C   C182      1.0  0.6365299999999998  0.05655  0.11006  1.0000
  C   C183      1.0  0.7419599999999998  0.08526999999999998  0.11381000000000001  1.0000
  C   C184      1.0  0.77774  0.02446  0.09884  1.0000
  C   C185      1.0  0.61487  0.90755  0.0773  1.0000
  C   C186      1.0  0.57243  0.9641699999999997  0.09134  1.0000
  C   C187      1.0  0.24337  0.18469  0.23071000000000003  1.0000
  C   C188      1.0  0.2347499999999999  0.18964999999999999  0.26421  1.0000
  C   C189      1.0  0.2456399999999999  0.3502999999999999  0.26342  1.0000
  C   C190      1.0  0.25382999999999994  0.35109  0.22997  1.0000
  C   C191      1.0  0.2551599999999999  0.26794999999999997  0.21248  1.0000
  C   C192      1.0  0.26817  0.27121  0.17768000000000003  1.0000
  C   C193      1.0  0.24971999999999994  0.3323899999999999  0.15608  1.0000
  C   C194      1.0  0.27439  0.30966  0.1254  1.0000
  C   C195      1.0  0.26707  0.35067  0.09465  1.0000
  C   C196      1.0  0.19669999999999999  0.38811  0.08861  1.0000
  C   C197      1.0  0.1915099999999999  0.4261799999999999  0.05873  1.0000
  C   C198      1.0  0.31979  0.39510999999999996  0.03973  1.0000
  C   C199      1.0  0.32897  0.3553599999999999  0.06881  1.0000
  C   C200      1.0  0.13125  0.00465  0.0214  1.0000
  C   C201      1.0  0.15646  0.027839999999999993  0.98958  1.0000
  C   C202      1.0  0.13743999999999995  0.17403999999999994  0.99491  1.0000
  C   C203      1.0  0.11287999999999994  0.15644999999999995  0.02698  1.0000
  C   C204      1.0  0.11077999999999996  0.07097999999999997  0.04158  1.0000
  C   C205      1.0  0.09096999999999997  0.05649999999999999  0.07576  1.0000
  C   C206      1.0  0.04886  0.10389  0.09574  1.0000
  C   C207      1.0  0.04582  0.06657  0.12668  1.0000
  C   C208      1.0  0.004629999999999996  0.08705999999999998  0.1558  1.0000
  C   C209      1.0  0.9963399999999998  0.17761  0.16026  1.0000
  C   C210      1.0  0.9549  0.19469  0.18799  1.0000
  C   C211      1.0  0.9273399999999998  0.04008  0.20763  1.0000
  C   C212      1.0  0.96796  0.017339999999999998  0.18061  1.0000
  C   C213      1.0  0.9640699999999999  0.68848  0.08542  1.0000
  C   C214      1.0  0.87584  0.6392799999999998  0.06453000000000002  1.0000
  C   C215      1.0  0.9252599999999997  0.52362  0.04327  1.0000
  C   C216      1.0  0.013560000000000126  0.56692  0.06379  1.0000
  C   C217      1.0  0.036749999999999984  0.6526899999999999  0.08543  1.0000
  C   C218      1.0  0.1341  0.70028  0.10467  1.0000
  C   C219      1.0  0.1918699999999998  0.6531299999999998  0.11512000000000001  1.0000
  C   C220      1.0  0.28537  0.73282  0.12902  1.0000
  C   C221      1.0  0.3776499999999998  0.7298699999999999  0.14058000000000004  1.0000
  C   C222      1.0  0.39103999999999983  0.6436199999999997  0.13274  1.0000
  C   C223      1.0  0.48299  0.6456  0.14186  1.0000
  C   C224      1.0  0.5513499999999998  0.81054  0.16576  1.0000
  C   C225      1.0  0.46107999999999977  0.8138599999999998  0.1582  1.0000
  C   C226      1.0  0.3079  0.7822900000000002  0.04642  1.0000
  C   C227      1.0  0.29006999999999983  0.6843699999999998  0.03663  1.0000
  C   C228      1.0  0.27938999999999986  0.7139299999999997  0.9822000000000001  1.0000
  C   C229      1.0  0.2990399999999999  0.81397  0.9898200000000003  1.0000
  C   C230      1.0  0.31343999999999994  0.8512199999999998  0.0229  1.0000
  C   C231      1.0  0.3390499999999999  0.9567599999999998  0.03213  1.0000
  C   C232      1.0  0.3946399999999998  0.044159999999999984  0.01448  1.0000
  C   C233      1.0  0.40987999999999997  0.12786  0.03527  1.0000
  C   C234      1.0  0.4683099999999999  0.23745999999999995  0.030660000000000003  1.0000
  C   C235      1.0  0.4623399999999999  0.27749999999999997  0.0005700000000000001  1.0000
  C   C236      1.0  0.5253599999999998  0.38119999999999993  0.9964000000000002  1.0000
  C   C237      1.0  0.5929499999999998  0.41086  0.0499  1.0000
  C   C238      1.0  0.5340999999999998  0.30776999999999993  0.05601  1.0000
  C   C239      1.0  0.88872  0.4481199999999999  0.28173  1.0000
  C   C240      1.0  0.8498999999999998  0.34396  0.27379  1.0000
  C   C241      1.0  0.006160000000000018  0.36969  0.25618  1.0000
  C   C242      1.0  0.050870000000000005  0.47441  0.2637900000000001  1.0000
  C   C243      1.0  0.9927499999999998  0.51764  0.2773300000000001  1.0000
  C   C244      1.0  0.04192999999999992  0.626  0.28759  1.0000
  C   C245      1.0  0.14574  0.6987099999999999  0.28486  1.0000
  C   C246      1.0  0.15973999999999985  0.7905799999999997  0.30001  1.0000
  C   C247      1.0  0.2544599999999999  0.8880499999999998  0.3056900000000001  1.0000
  C   C248      1.0  0.35112999999999994  0.8922099999999998  0.30498  1.0000
  C   C249      1.0  0.4402699999999998  0.9863899999999998  0.31119  1.0000
  C   C250      1.0  0.34821  0.07167999999999998  0.31862  1.0000
  C   C251      1.0  0.2547699999999999  0.9815499999999998  0.31275  1.0000
  C   C252      1.0  0.60973  0.4455  0.32508000000000004  1.0000
  C   C253      1.0  0.5066099999999998  0.41928  0.3199  1.0000
  C   C254      1.0  0.45827  0.30061999999999994  0.35938  1.0000
  C   C255      1.0  0.5583700000000001  0.31977  0.36527  1.0000
  C   C256      1.0  0.6379199999999998  0.39447999999999983  0.34819000000000006  1.0000
  C   C257      1.0  0.74255  0.41409999999999997  0.35579  1.0000
  C   C258      1.0  0.7705699999999998  0.3448699999999999  0.36921  1.0000
  C   C259      1.0  0.8774599999999998  0.39996999999999994  0.37526  1.0000
  C   C260      1.0  0.94356  0.3634699999999999  0.38991  1.0000
  C   C261      1.0  0.91487  0.25806999999999997  0.38615000000000005  1.0000
  C   C262      1.0  0.9756599999999996  0.22227999999999995  0.40114  1.0000
  C   C263      1.0  0.09256000000000002  0.38512  0.42269  1.0000
  C   C264      1.0  0.03595999999999992  0.42756999999999995  0.40864000000000006  1.0000
  C   C265      1.0  0.8152599999999999  0.7566900000000001  0.26927  1.0000
  C   C266      1.0  0.8102499999999998  0.76534  0.23577000000000004  1.0000
  C   C267      1.0  0.6496199999999999  0.7544399999999998  0.23661000000000001  1.0000
  C   C268      1.0  0.64885  0.7461799999999997  0.27004  1.0000
  C   C269      1.0  0.7320099999999998  0.74482  0.28752  1.0000
  C   C270      1.0  0.7287799999999998  0.7317899999999999  0.32231  1.0000
  C   C271      1.0  0.6676  0.75025  0.34392  1.0000
  C   C272      1.0  0.69037  0.7256  0.37459  1.0000
  C   C273      1.0  0.64935  0.7329  0.40535  1.0000
  C   C274      1.0  0.61198  0.8033199999999999  0.41140000000000004  1.0000
  C   C275      1.0  0.5739599999999998  0.80855  0.44129000000000007  1.0000
  C   C276      1.0  0.60495  0.6802  0.46028  1.0000
  C   C277      1.0  0.6446599999999999  0.6709899999999999  0.43119  1.0000
  C   C278      1.0  0.9952999999999997  0.8687599999999998  0.47862  1.0000
  C   C279      1.0  0.9721299999999999  0.8435799999999999  0.51044  1.0000
  C   C280      1.0  0.8258599999999998  0.86245  0.5051  1.0000
  C   C281      1.0  0.8434199999999998  0.8870199999999999  0.47303  1.0000
  C   C282      1.0  0.92893  0.88916  0.45842000000000005  1.0000
  C   C283      1.0  0.9434699999999998  0.90902  0.42425  1.0000
  C   C284      1.0  0.89612  0.9512  0.40427  1.0000
  C   C285      1.0  0.9335  0.9543099999999999  0.37334  1.0000
  C   C286      1.0  0.9130899999999998  0.99555  0.3442200000000001  1.0000
  C   C287      1.0  0.8225300000000001  0.0038500000000000123  0.33975000000000005  1.0000
  C   C288      1.0  0.80554  0.04531999999999999  0.31202  1.0000
  C   C289      1.0  0.9602  0.0729  0.29242  1.0000
  C   C290      1.0  0.9828799999999999  0.03225  0.31943  1.0000
  C   C291      1.0  0.3115399999999999  0.03577999999999998  0.41458  1.0000
  C   C292      1.0  0.36070999999999986  0.12400000000000001  0.4354700000000001  1.0000
  C   C293      1.0  0.47637999999999997  0.07459999999999999  0.45674  1.0000
  C   C294      1.0  0.43312999999999996  0.9863199999999999  0.43623  1.0000
  C   C295      1.0  0.3473499999999998  0.9631299999999999  0.41458  1.0000
  C   C296      1.0  0.29975999999999986  0.8657699999999998  0.39534  1.0000
  C   C297      1.0  0.3468799999999998  0.8079499999999997  0.38491000000000003  1.0000
  C   C298      1.0  0.2671799999999999  0.7144799999999999  0.37099  1.0000
  C   C299      1.0  0.2701099999999999  0.62217  0.35943  1.0000
  C   C300      1.0  0.35635000000000006  0.60873  0.36726  1.0000
  C   C301      1.0  0.3543199999999999  0.51677  0.35813000000000006  1.0000
  C   C302      1.0  0.18942999999999996  0.44847999999999993  0.33424  1.0000
  C   C303      1.0  0.18611999999999998  0.5387499999999998  0.34181  1.0000
  C   C304      1.0  0.21771999999999989  0.6920199999999997  0.45356  1.0000
  C   C305      1.0  0.3156799999999998  0.7099399999999998  0.46335  1.0000
  C   C306      1.0  0.2861399999999998  0.7207299999999998  0.51778  1.0000
  C   C307      1.0  0.18606999999999993  0.7009999999999998  0.51016  1.0000
  C   C308      1.0  0.14881  0.68655  0.47708  1.0000
  C   C309      1.0  0.04328000000000003  0.66098  0.46785  1.0000
  C   C310      1.0  0.9558599999999998  0.6054599999999999  0.48551000000000005  1.0000
  C   C311      1.0  0.8721599999999997  0.59021  0.46471  1.0000
  C   C312      1.0  0.76256  0.53173  0.46932  1.0000
  C   C313      1.0  0.72253  0.53761  0.49942000000000003  1.0000
  C   C314      1.0  0.61883  0.47453  0.5036  1.0000
  C   C315      1.0  0.58917  0.40699999999999986  0.45009000000000005  1.0000
  C   C316      1.0  0.69227  0.46588999999999986  0.44398  1.0000
  N   N1        1.0  0.30239  0.90686  0.7609500000000001  1.0000
  N   N2        1.0  0.6729  0.9941700000000001  0.8037100000000003  1.0000
  N   N3        1.0  0.7743199999999998  0.06672000000000006  0.8108400000000001  1.0000
  N   N4        1.0  0.07586999999999999  0.44023999999999996  0.8186700000000001  1.0000
  N   N5        1.0  0.34906  0.43084  0.8368300000000001  1.0000
  N   N6        1.0  0.50655  0.82898  0.85296  1.0000
  N   N7        1.0  0.49736999999999987  0.9110399999999998  0.86504  1.0000
  N   N8        1.0  0.28292  0.06456  0.91785  1.0000
  N   N9        1.0  0.75562  0.7237499999999999  0.71876  1.0000
  N   N10       1.0  0.69588  0.78489  0.83941  1.0000
  N   N11       1.0  0.69151  0.7608799999999999  0.8714500000000001  1.0000
  N   N12       1.0  0.74966  0.5685099999999998  0.96608  1.0000
  N   N13       1.0  0.83858  0.88594  0.024670000000000004  1.0000
  N   N14       1.0  0.8846999999999998  0.00461000000000001  0.9062800000000001  1.0000
  N   N15       1.0  0.9125699999999999  0.9986  0.87508  1.0000
  N   N16       1.0  0.07907999999999996  0.8728899999999998  0.7881300000000001  1.0000
  N   N17       1.0  0.14563999999999996  0.4399799999999999  0.95718  1.0000
  N   N18       1.0  0.80978  0.19501  0.88832  1.0000
  N   N19       1.0  0.71835  0.17639999999999997  0.87313  1.0000
  N   N20       1.0  0.44148  0.27638999999999997  0.83934  1.0000
  N   N21       1.0  0.7270099999999998  0.35191999999999996  0.9950600000000001  1.0000
  N   N22       1.0  0.6796  0.012050000000000024  0.9382  1.0000
  N   N23       1.0  0.6352299999999996  0.9072599999999997  0.93644  1.0000
  N   N24       1.0  0.40833999999999987  0.54993  0.97966  1.0000
  N   N25       1.0  0.1876899999999999  0.19095999999999994  0.89158  1.0000
  N   N26       1.0  0.79403  0.78205  0.13689  1.0000
  N   N27       1.0  0.09303000000000003  0.69758  0.73901  1.0000
  N   N28       1.0  0.005829999999999925  0.32712999999999987  0.69626  1.0000
  N   N29       1.0  0.9332799999999998  0.22572999999999996  0.68913  1.0000
  N   N30       1.0  0.55979  0.9242199999999999  0.68134  1.0000
  N   N31       1.0  0.56914  0.6509199999999998  0.66318  1.0000
  N   N32       1.0  0.17107999999999995  0.4935399999999999  0.64703  1.0000
  N   N33       1.0  0.08898999999999996  0.5026899999999999  0.63496  1.0000
  N   N34       1.0  0.9353199999999998  0.71711  0.58219  1.0000
  N   N35       1.0  0.27622  0.24435  0.78123  1.0000
  N   N36       1.0  0.21509999999999996  0.30412  0.66059  1.0000
  N   N37       1.0  0.2391099999999999  0.3084199999999999  0.62854  1.0000
  N   N38       1.0  0.43147999999999975  0.25034  0.5339100000000001  1.0000
  N   N39       1.0  0.11409999999999998  0.16149999999999995  0.47534000000000004  1.0000
  N   N40       1.0  0.99541  0.11533  0.59373  1.0000
  N   N41       1.0  0.0014599999999999863  0.08746999999999998  0.62493  1.0000
  N   N42       1.0  0.12717999999999988  0.9209799999999998  0.71188  1.0000
  N   N43       1.0  0.5600099999999997  0.8544199999999997  0.54281  1.0000
  N   N44       1.0  0.80502  0.19025999999999998  0.6116800000000001  1.0000
  N   N45       1.0  0.8236499999999998  0.2817  0.62686  1.0000
  N   N46       1.0  0.72357  0.55849  0.66067  1.0000
  N   N47       1.0  0.64797  0.27279  0.5049500000000001  1.0000
  N   N48       1.0  0.9879  0.32034  0.56181  1.0000
  N   N49       1.0  0.09269999999999996  0.36468  0.56357  1.0000
  N   N50       1.0  0.45005  0.5917  0.52034  1.0000
  N   N51       1.0  0.8089899999999999  0.8123199999999998  0.60843  1.0000
  N   N52       1.0  0.21786999999999995  0.20573999999999995  0.36314  1.0000
  N   N53       1.0  0.6975299999999995  0.09406  0.23898  1.0000
  N   N54       1.0  0.32693  0.005340000000000016  0.19619000000000006  1.0000
  N   N55       1.0  0.22550999999999993  0.9327199999999999  0.18919  1.0000
  N   N56       1.0  0.9239599999999998  0.55917  0.18187  1.0000
  N   N57       1.0  0.6518799999999998  0.56925  0.1634  1.0000
  N   N58       1.0  0.49341  0.17087  0.14677000000000004  1.0000
  N   N59       1.0  0.5026  0.08889999999999999  0.13457  1.0000
  N   N60       1.0  0.7165199999999998  0.93673  0.08022000000000001  1.0000
  N   N61       1.0  0.2377499999999999  0.27163999999999994  0.28121  1.0000
  N   N62       1.0  0.30335  0.21423999999999996  0.16075  1.0000
  N   N63       1.0  0.30808  0.23858999999999994  0.12872  1.0000
  N   N64       1.0  0.25233999999999995  0.4314799999999999  0.03399  1.0000
  N   N65       1.0  0.16075000000000003  0.11182000000000003  0.97584  1.0000
  N   N66       1.0  0.11399999999999987  0.9940199999999998  0.09418  1.0000
  N   N67       1.0  0.0857  0.00011999999999999762  0.1253  1.0000
  N   N68       1.0  0.9203599999999997  0.12767  0.212  1.0000
  N   N69       1.0  0.8553899999999999  0.5585199999999999  0.04297  1.0000
  N   N70       1.0  0.19045999999999977  0.8042099999999998  0.11202  1.0000
  N   N71       1.0  0.2823099999999999  0.8234299999999998  0.127  1.0000
  N   N72       1.0  0.5641799999999999  0.7278899999999999  0.15799  1.0000
  N   N73       1.0  0.27466  0.6479  0.004920000000000001  1.0000
  N   N74       1.0  0.3189499999999999  0.9870099999999998  0.06186  1.0000
  N   N75       1.0  0.3634399999999999  0.09179999999999999  0.06358  1.0000
  N   N76       1.0  0.5933399999999998  0.44857  0.0202  1.0000
  N   N77       1.0  0.90635  0.30279  0.26104  1.0000
  N   N78       1.0  0.9949099999999997  0.6733399999999998  0.30385000000000006  1.0000
  N   N79       1.0  0.06752999999999997  0.77477  0.31087  1.0000
  N   N80       1.0  0.44108  0.07627999999999999  0.31814000000000003  1.0000
  N   N81       1.0  0.43073999999999996  0.34808999999999996  0.33664  1.0000
  N   N82       1.0  0.8291400000000001  0.5065  0.35318000000000005  1.0000
  N   N83       1.0  0.91113  0.49734  0.36538  1.0000
  N   N84       1.0  0.06336999999999995  0.28348  0.41976  1.0000
  N   N85       1.0  0.7282199999999999  0.7623199999999998  0.21878000000000003  1.0000
  N   N86       1.0  0.7857799999999998  0.69666  0.33924  1.0000
  N   N87       1.0  0.7614699999999999  0.6919599999999998  0.37127  1.0000
  N   N88       1.0  0.5686399999999997  0.7476999999999998  0.46602000000000005  1.0000
  N   N89       1.0  0.8881  0.8392  0.52418  1.0000
  N   N90       1.0  0.005969999999999936  0.8859999999999998  0.4058300000000001  1.0000
  N   N91       1.0  0.9999499999999998  0.91445  0.37472  1.0000
  N   N92       1.0  0.87261  0.07989000000000002  0.28802000000000005  1.0000
  N   N93       1.0  0.44147999999999993  0.14446  0.45704000000000006  1.0000
  N   N94       1.0  0.19581999999999994  0.80945  0.38797  1.0000
  N   N95       1.0  0.17657999999999985  0.7175999999999998  0.37299000000000004  1.0000
  N   N96       1.0  0.27203  0.4355699999999999  0.342  1.0000
  N   N97       1.0  0.35217  0.72546  0.49506  1.0000
  N   N98       1.0  0.013049999999999883  0.6810799999999998  0.43812  1.0000
  N   N99       1.0  0.90825  0.63664  0.43639000000000006  1.0000
  N   N100      1.0  0.5514699999999998  0.4066  0.4798  1.0000
