data_image0
_chemical_formula_structural       Cu136H768C384I136N136
_chemical_formula_sum              "Cu136 H768 C384 I136 N136"
_cell_length_a       43.26892
_cell_length_b       43.26945
_cell_length_c       43.26865
_cell_angle_alpha    59.79534
_cell_angle_beta     59.77895
_cell_angle_gamma    59.77851999999999

_space_group_name_H-M_alt    "P 1"
_space_group_IT_number       1

loop_
  _space_group_symop_operation_xyz
  'x, y, z'

loop_
  _atom_site_type_symbol
  _atom_site_label
  _atom_site_symmetry_multiplicity
  _atom_site_fract_x
  _atom_site_fract_y
  _atom_site_fract_z
  _atom_site_occupancy
  Cu  Cu1       1.0  0.08778  0.75948  0.00697  1.0000
  Cu  Cu2       1.0  0.7586400000000001  0.08772000000000009  0.64655  1.0000
  Cu  Cu3       1.0  0.14659  0.50661  0.25933  1.0000
  Cu  Cu4       1.0  0.5071199999999999  0.14644  0.58742  1.0000
  Cu  Cu5       1.0  0.14639000000000005  0.08741  0.00717  1.0000
  Cu  Cu6       1.0  0.5066599999999999  0.75932  0.64657  1.0000
  Cu  Cu7       1.0  0.08771999999999999  0.14651  0.25863  1.0000
  Cu  Cu8       1.0  0.7594899999999998  0.5070100000000002  0.58776  1.0000
  Cu  Cu9       1.0  0.75938  0.14657  0.00657  1.0000
  Cu  Cu10      1.0  0.08741999999999994  0.5070900000000002  0.64642  1.0000
  Cu  Cu11      1.0  0.50696  0.08778000000000001  0.25953  1.0000
  Cu  Cu12      1.0  0.14646999999999988  0.7587200000000002  0.58773  1.0000
  Cu  Cu13      1.0  0.9122800000000001  0.24136  0.3535  1.0000
  Cu  Cu14      1.0  0.2405000000000001  0.9122400000000003  0.9929799999999999  1.0000
  Cu  Cu15      1.0  0.8536000000000001  0.49284000000000006  0.41257  1.0000
  Cu  Cu16      1.0  0.49334999999999996  0.85343  0.74065  1.0000
  Cu  Cu17      1.0  0.8535399999999999  0.91228  0.74129  1.0000
  Cu  Cu18      1.0  0.4930399999999999  0.24046000000000006  0.41223  1.0000
  Cu  Cu19      1.0  0.9125700000000001  0.85359  0.99291  1.0000
  Cu  Cu20      1.0  0.24061999999999995  0.49341  0.35344  1.0000
  Cu  Cu21      1.0  0.24137999999999996  0.8534700000000002  0.41226  1.0000
  Cu  Cu22      1.0  0.9122199999999998  0.49303  0.74052  1.0000
  Cu  Cu23      1.0  0.49292000000000014  0.9125499999999998  0.35357  1.0000
  Cu  Cu24      1.0  0.8534000000000004  0.24067000000000002  0.9934  1.0000
  Cu  Cu25      1.0  0.9122200000000001  0.24054000000000003  0.99301  1.0000
  Cu  Cu26      1.0  0.24137999999999996  0.91225  0.35345  1.0000
  Cu  Cu27      1.0  0.8534099999999999  0.49340000000000006  0.74065  1.0000
  Cu  Cu28      1.0  0.4929099999999998  0.85355  0.41257  1.0000
  Cu  Cu29      1.0  0.8536000000000001  0.91259  0.9928400000000001  1.0000
  Cu  Cu30      1.0  0.4933499999999999  0.24066000000000004  0.35345  1.0000
  Cu  Cu31      1.0  0.9122900000000002  0.85348  0.74136  1.0000
  Cu  Cu32      1.0  0.24051999999999998  0.49298000000000003  0.41225  1.0000
  Cu  Cu33      1.0  0.24060999999999982  0.8534300000000004  0.9934200000000001  1.0000
  Cu  Cu34      1.0  0.9125600000000001  0.49291  0.35358  1.0000
  Cu  Cu35      1.0  0.49302000000000007  0.91223  0.74046  1.0000
  Cu  Cu36      1.0  0.85353  0.24128000000000002  0.4122700000000001  1.0000
  Cu  Cu37      1.0  0.0876999999999998  0.7586500000000002  0.64649  1.0000
  Cu  Cu38      1.0  0.7595  0.08775  0.00702  1.0000
  Cu  Cu39      1.0  0.14639000000000002  0.50716  0.58742  1.0000
  Cu  Cu40      1.0  0.50663  0.14658  0.25935  1.0000
  Cu  Cu41      1.0  0.14648000000000005  0.08773000000000002  0.2587  1.0000
  Cu  Cu42      1.0  0.5069599999999997  0.75954  0.58778  1.0000
  Cu  Cu43      1.0  0.08743999999999999  0.1464  0.00709  1.0000
  Cu  Cu44      1.0  0.7594000000000001  0.50656  0.64658  1.0000
  Cu  Cu45      1.0  0.7586199999999999  0.14656000000000002  0.58773  1.0000
  Cu  Cu46      1.0  0.08777000000000004  0.507  0.25946  1.0000
  Cu  Cu47      1.0  0.50713  0.08742999999999997  0.64643  1.0000
  Cu  Cu48      1.0  0.14659  0.75934  0.006590000000000001  1.0000
  Cu  Cu49      1.0  0.3599500000000003  0.4190999999999999  0.85987  1.0000
  Cu  Cu50      1.0  0.2963799999999999  0.61068  0.79644  1.0000
  Cu  Cu51      1.0  0.4191  0.35994000000000004  0.85992  1.0000
  Cu  Cu52      1.0  0.6106900000000001  0.2963900000000001  0.79637  1.0000
  Cu  Cu53      1.0  0.35993999999999987  0.35988  0.9190900000000001  1.0000
  Cu  Cu54      1.0  0.29636  0.29645  0.11069  1.0000
  Cu  Cu55      1.0  0.36006000000000005  0.36007  0.86007  1.0000
  Cu  Cu56      1.0  0.29658000000000007  0.29655999999999993  0.79657  1.0000
  Cu  Cu57      1.0  0.6400500000000002  0.58091  0.14012  1.0000
  Cu  Cu58      1.0  0.70365  0.38930999999999993  0.20354  1.0000
  Cu  Cu59      1.0  0.5808899999999999  0.6400800000000001  0.14008  1.0000
  Cu  Cu60      1.0  0.38930000000000015  0.70362  0.20363  1.0000
  Cu  Cu61      1.0  0.6399399999999998  0.6399300000000002  0.13993  1.0000
  Cu  Cu62      1.0  0.7034200000000002  0.70343  0.20344  1.0000
  Cu  Cu63      1.0  0.6400600000000001  0.64011  0.08091  1.0000
  Cu  Cu64      1.0  0.70362  0.7035500000000001  0.88932  1.0000
  Cu  Cu65      1.0  0.25674999999999987  0.6701500000000001  0.81557  1.0000
  Cu  Cu66      1.0  0.15330999999999984  0.7228900000000001  0.97125  1.0000
  Cu  Cu67      1.0  0.12879000000000002  0.69811  0.04504  1.0000
  Cu  Cu68      1.0  0.6704500000000002  0.25697999999999993  0.75698  1.0000
  Cu  Cu69      1.0  0.72193  0.15324999999999997  0.65326  1.0000
  Cu  Cu70      1.0  0.69714  0.12916000000000005  0.62915  1.0000
  Cu  Cu71      1.0  0.25672999999999996  0.31557  0.17015  1.0000
  Cu  Cu72      1.0  0.15329999999999996  0.47119  0.22295  1.0000
  Cu  Cu73      1.0  0.12882  0.54497  0.19813  1.0000
  Cu  Cu74      1.0  0.31591  0.2572800000000001  0.75729  1.0000
  Cu  Cu75      1.0  0.47166999999999987  0.15288  0.6528800000000001  1.0000
  Cu  Cu76      1.0  0.5455799999999998  0.12807  0.62806  1.0000
  Cu  Cu77      1.0  0.2572999999999998  0.25726000000000004  0.8159  1.0000
  Cu  Cu78      1.0  0.15285999999999997  0.1529  0.97165  1.0000
  Cu  Cu79      1.0  0.12806000000000003  0.12798  0.04561  1.0000
  Cu  Cu80      1.0  0.31556000000000006  0.6701699999999999  0.75673  1.0000
  Cu  Cu81      1.0  0.47124  0.7228900000000001  0.65334  1.0000
  Cu  Cu82      1.0  0.5449899999999999  0.69817  0.62881  1.0000
  Cu  Cu83      1.0  0.25696  0.25696  0.17048  1.0000
  Cu  Cu84      1.0  0.15323999999999993  0.15324  0.22194  1.0000
  Cu  Cu85      1.0  0.1291  0.12918000000000004  0.19716  1.0000
  Cu  Cu86      1.0  0.67018  0.3155700000000001  0.75671  1.0000
  Cu  Cu87      1.0  0.7229099999999999  0.47123999999999994  0.65332  1.0000
  Cu  Cu88      1.0  0.69822  0.5450400000000001  0.62868  1.0000
  Cu  Cu89      1.0  0.67018  0.25671000000000005  0.81557  1.0000
  Cu  Cu90      1.0  0.7228999999999999  0.15330999999999995  0.97126  1.0000
  Cu  Cu91      1.0  0.69817  0.12871  0.04504  1.0000
  Cu  Cu92      1.0  0.25729  0.31591  0.75726  1.0000
  Cu  Cu93      1.0  0.15287000000000003  0.4716199999999999  0.65289  1.0000
  Cu  Cu94      1.0  0.1280500000000001  0.5455999999999999  0.62797  1.0000
  Cu  Cu95      1.0  0.31554  0.25673  0.1702  1.0000
  Cu  Cu96      1.0  0.47123  0.15332999999999997  0.22289  1.0000
  Cu  Cu97      1.0  0.54499  0.1288  0.19819  1.0000
  Cu  Cu98      1.0  0.25696000000000024  0.6704600000000001  0.75698  1.0000
  Cu  Cu99      1.0  0.15321999999999988  0.7219200000000001  0.65325  1.0000
  Cu  Cu100     1.0  0.12911000000000006  0.69714  0.62917  1.0000
  Cu  Cu101     1.0  0.74304  0.32953  0.24303  1.0000
  Cu  Cu102     1.0  0.8467800000000001  0.27807  0.34675  1.0000
  Cu  Cu103     1.0  0.8709199999999999  0.30284  0.37082  1.0000
  Cu  Cu104     1.0  0.32982  0.74329  0.18444  1.0000
  Cu  Cu105     1.0  0.27709999999999996  0.8466800000000001  0.028749999999999998  1.0000
  Cu  Cu106     1.0  0.30178  0.87132  0.95495  1.0000
  Cu  Cu107     1.0  0.7427  0.6841000000000002  0.24275000000000002  1.0000
  Cu  Cu108     1.0  0.84713  0.52836  0.3471000000000001  1.0000
  Cu  Cu109     1.0  0.8719600000000001  0.45438  0.37201  1.0000
  Cu  Cu110     1.0  0.68444  0.74326  0.82981  1.0000
  Cu  Cu111     1.0  0.52875  0.84668  0.77709  1.0000
  Cu  Cu112     1.0  0.4550100000000001  0.87118  0.80184  1.0000
  Cu  Cu113     1.0  0.74302  0.7430200000000001  0.82955  1.0000
  Cu  Cu114     1.0  0.8467500000000001  0.8467500000000001  0.7781  1.0000
  Cu  Cu115     1.0  0.8709000000000001  0.87081  0.80286  1.0000
  Cu  Cu116     1.0  0.68444  0.32983  0.24326  1.0000
  Cu  Cu117     1.0  0.5287300000000001  0.2771199999999999  0.34669000000000005  1.0000
  Cu  Cu118     1.0  0.45499  0.30183  0.37121  1.0000
  Cu  Cu119     1.0  0.7427  0.74275  0.1841  1.0000
  Cu  Cu120     1.0  0.84713  0.8471000000000001  0.02835  1.0000
  Cu  Cu121     1.0  0.8719600000000001  0.87201  0.95438  1.0000
  Cu  Cu122     1.0  0.3298300000000001  0.68443  0.24329  1.0000
  Cu  Cu123     1.0  0.27709  0.52877  0.34668  1.0000
  Cu  Cu124     1.0  0.30179000000000006  0.45497000000000004  0.3713  1.0000
  Cu  Cu125     1.0  0.3295399999999999  0.7430200000000001  0.24302000000000004  1.0000
  Cu  Cu126     1.0  0.27804  0.84676  0.34677  1.0000
  Cu  Cu127     1.0  0.3029099999999999  0.8708300000000003  0.37081  1.0000
  Cu  Cu128     1.0  0.7432500000000002  0.6844200000000001  0.82986  1.0000
  Cu  Cu129     1.0  0.84671  0.52878  0.77707  1.0000
  Cu  Cu130     1.0  0.8712000000000002  0.45499  0.80187  1.0000
  Cu  Cu131     1.0  0.68409  0.7427000000000001  0.24272  1.0000
  Cu  Cu132     1.0  0.5283499999999998  0.8471  0.34709  1.0000
  Cu  Cu133     1.0  0.45443  0.87197  0.37196  1.0000
  Cu  Cu134     1.0  0.7432700000000001  0.32984  0.18443  1.0000
  Cu  Cu135     1.0  0.8466999999999999  0.27707000000000004  0.0288  1.0000
  Cu  Cu136     1.0  0.87117  0.3018800000000001  0.9550100000000001  1.0000
  H   H1        1.0  0.39029000000000014  0.48101  0.79358  1.0000
  H   H2        1.0  0.36793  0.54816  0.81232  1.0000
  H   H3        1.0  0.25378999999999996  0.63717  0.89597  1.0000
  H   H4        1.0  0.27052000000000004  0.69346  0.8614  1.0000
  H   H5        1.0  0.24184000000000005  0.73539  0.83607  1.0000
  H   H6        1.0  0.17620000000000008  0.6559799999999999  0.9511400000000001  1.0000
  H   H7        1.0  0.2051600000000001  0.75429  0.89085  1.0000
  H   H8        1.0  0.23421999999999987  0.7124700000000002  0.9159900000000001  1.0000
  H   H9        1.0  0.022140000000000035  0.82898  0.0256  1.0000
  H   H10       1.0  0.04052  0.8435400000000001  0.97535  1.0000
  H   H11       1.0  0.05522000000000008  0.8040399999999999  0.9432699999999999  1.0000
  H   H12       1.0  0.043840000000000066  0.76171  0.96925  1.0000
  H   H13       1.0  0.007059999999999887  0.7714700000000001  0.06117  1.0000
  H   H14       1.0  0.017960000000000042  0.74171  0.03763  1.0000
  H   H15       1.0  0.17494999999999997  0.64773  0.09552  1.0000
  H   H16       1.0  0.13694  0.67581  0.12268  1.0000
  H   H17       1.0  0.4807299999999999  0.3901100000000002  0.83482  1.0000
  H   H18       1.0  0.54844  0.3678699999999999  0.77121  1.0000
  H   H19       1.0  0.6371600000000002  0.2541800000000001  0.71313  1.0000
  H   H20       1.0  0.69388  0.27039  0.67375  1.0000
  H   H21       1.0  0.73579  0.24150000000000005  0.68577  1.0000
  H   H22       1.0  0.65519  0.17661999999999997  0.71769  1.0000
  H   H23       1.0  0.75408  0.20449999999999996  0.64945  1.0000
  H   H24       1.0  0.71234  0.23379  0.63706  1.0000
  H   H25       1.0  0.82848  0.022590000000000002  0.62334  1.0000
  H   H26       1.0  0.84299  0.040749999999999995  0.64066  1.0000
  H   H27       1.0  0.80369  0.054769999999999965  0.698  1.0000
  H   H28       1.0  0.76143  0.04323000000000002  0.72611  1.0000
  H   H29       1.0  0.7713200000000001  0.007139999999999989  0.66066  1.0000
  H   H30       1.0  0.7414499999999999  0.017570000000000044  0.70341  1.0000
  H   H31       1.0  0.64758  0.17510000000000003  0.58206  1.0000
  H   H32       1.0  0.6759800000000002  0.13702  0.56495  1.0000
  H   H33       1.0  0.33464999999999995  0.2934399999999999  0.98159  1.0000
  H   H34       1.0  0.27120999999999995  0.3123  0.04898  1.0000
  H   H35       1.0  0.21264999999999998  0.3964400000000001  0.13721  1.0000
  H   H36       1.0  0.17339999999999997  0.3624  0.19409  1.0000
  H   H37       1.0  0.18583999999999995  0.33674  0.23578000000000002  1.0000
  H   H38       1.0  0.21737999999999993  0.45084  0.15568  1.0000
  H   H39       1.0  0.14955  0.39159000000000005  0.25454  1.0000
  H   H40       1.0  0.13707000000000003  0.41714999999999997  0.21283  1.0000
  H   H41       1.0  0.12313999999999996  0.52557  0.32863  1.0000
  H   H42       1.0  0.14060999999999996  0.47534000000000004  0.34351  1.0000
  H   H43       1.0  0.19833999999999996  0.44298000000000004  0.30439  1.0000
  H   H44       1.0  0.22622000000000003  0.46887  0.26197  1.0000
  H   H45       1.0  0.1601800000000001  0.56093  0.27128  1.0000
  H   H46       1.0  0.20309000000000005  0.53746  0.24159  1.0000
  H   H47       1.0  0.08224999999999998  0.5955100000000001  0.14777  1.0000
  H   H48       1.0  0.06471999999999997  0.6227  0.17583  1.0000
  H   H49       1.0  0.29365  0.33474  0.89027  1.0000
  H   H50       1.0  0.31239000000000006  0.27124000000000004  0.86789  1.0000
  H   H51       1.0  0.39658  0.21265000000000003  0.75372  1.0000
  H   H52       1.0  0.36206000000000016  0.17391999999999996  0.77056  1.0000
  H   H53       1.0  0.33661  0.18651000000000006  0.74195  1.0000
  H   H54       1.0  0.45128  0.21693000000000007  0.67589  1.0000
  H   H55       1.0  0.39139000000000007  0.14972  0.70494  1.0000
  H   H56       1.0  0.41675999999999996  0.13704  0.73376  1.0000
  H   H57       1.0  0.5258200000000001  0.12309999999999997  0.52278  1.0000
  H   H58       1.0  0.4755899999999999  0.14059  0.54112  1.0000
  H   H59       1.0  0.44339000000000006  0.19803  0.55472  1.0000
  H   H60       1.0  0.46909  0.22615999999999994  0.54283  1.0000
  H   H61       1.0  0.56126  0.16048  0.50658  1.0000
  H   H62       1.0  0.5378299999999999  0.20334  0.51681  1.0000
  H   H63       1.0  0.5954899999999997  0.08228  0.67496  1.0000
  H   H64       1.0  0.62301  0.06437000000000001  0.6375  1.0000
  H   H65       1.0  0.3347500000000001  0.39027000000000006  0.79366  1.0000
  H   H66       1.0  0.2712899999999999  0.36786  0.8123400000000001  1.0000
  H   H67       1.0  0.21263999999999997  0.25368  0.89659  1.0000
  H   H68       1.0  0.17394999999999997  0.27055  0.86207  1.0000
  H   H69       1.0  0.18650999999999993  0.24193000000000006  0.83662  1.0000
  H   H70       1.0  0.21693  0.17587  0.95127  1.0000
  H   H71       1.0  0.14967999999999992  0.20499000000000006  0.8914  1.0000
  H   H72       1.0  0.13704999999999995  0.23378999999999994  0.9167600000000001  1.0000
  H   H73       1.0  0.12307000000000001  0.022729999999999997  0.02591  1.0000
  H   H74       1.0  0.14052000000000006  0.041089999999999974  0.97568  1.0000
  H   H75       1.0  0.19793000000000008  0.05471000000000003  0.9434499999999999  1.0000
  H   H76       1.0  0.22607000000000005  0.042880000000000015  0.96911  1.0000
  H   H77       1.0  0.16047  0.006570000000000005  0.061309999999999996  1.0000
  H   H78       1.0  0.20330999999999996  0.01682  0.03785  1.0000
  H   H79       1.0  0.08228999999999999  0.17493000000000003  0.09547  1.0000
  H   H80       1.0  0.06432999999999998  0.13752  0.12299000000000002  1.0000
  H   H81       1.0  0.2935200000000001  0.48153999999999997  0.8346000000000001  1.0000
  H   H82       1.0  0.31223  0.549  0.77126  1.0000
  H   H83       1.0  0.39644000000000007  0.63725  0.71259  1.0000
  H   H84       1.0  0.3623799999999999  0.69413  0.67339  1.0000
  H   H85       1.0  0.33676999999999996  0.7358300000000001  0.68583  1.0000
  H   H86       1.0  0.4508099999999998  0.6556400000000002  0.71747  1.0000
  H   H87       1.0  0.39167  0.7544800000000002  0.64953  1.0000
  H   H88       1.0  0.4172099999999998  0.7127400000000004  0.63711  1.0000
  H   H89       1.0  0.52559  0.82863  0.62315  1.0000
  H   H90       1.0  0.47533  0.84348  0.64067  1.0000
  H   H91       1.0  0.44303999999999993  0.8043900000000002  0.6983  1.0000
  H   H92       1.0  0.4688899999999999  0.7619600000000001  0.72619  1.0000
  H   H93       1.0  0.5609900000000002  0.77126  0.66019  1.0000
  H   H94       1.0  0.5375399999999999  0.74156  0.70307  1.0000
  H   H95       1.0  0.5954799999999998  0.6478600000000001  0.58227  1.0000
  H   H96       1.0  0.6226999999999998  0.6758600000000003  0.56472  1.0000
  H   H97       1.0  0.39014  0.33477999999999997  0.9807100000000001  1.0000
  H   H98       1.0  0.36788  0.27129  0.04847  1.0000
  H   H99       1.0  0.25415999999999994  0.21316  0.13721  1.0000
  H   H100      1.0  0.2703599999999999  0.17375999999999997  0.19386  1.0000
  H   H101      1.0  0.24152  0.18573999999999996  0.2358  1.0000
  H   H102      1.0  0.17662000000000003  0.21770000000000003  0.15518  1.0000
  H   H103      1.0  0.20448999999999998  0.14947  0.25407  1.0000
  H   H104      1.0  0.23379000000000003  0.13707999999999998  0.21232  1.0000
  H   H105      1.0  0.02255000000000002  0.12333  0.32847  1.0000
  H   H106      1.0  0.04071999999999997  0.14063  0.34299  1.0000
  H   H107      1.0  0.05475999999999998  0.19790000000000008  0.30377  1.0000
  H   H108      1.0  0.04329999999999998  0.22604  0.26149  1.0000
  H   H109      1.0  0.007129999999999986  0.16068000000000002  0.27127  1.0000
  H   H110      1.0  0.017570000000000013  0.20341000000000004  0.24144  1.0000
  H   H111      1.0  0.17504  0.08205000000000001  0.14765  1.0000
  H   H112      1.0  0.13699999999999998  0.06493000000000003  0.176  1.0000
  H   H113      1.0  0.4809999999999997  0.29362  0.89026  1.0000
  H   H114      1.0  0.54817  0.31233  0.86787  1.0000
  H   H115      1.0  0.6371599999999998  0.3960000000000001  0.75375  1.0000
  H   H116      1.0  0.6934799999999999  0.3614100000000001  0.77048  1.0000
  H   H117      1.0  0.73541  0.33609000000000006  0.74178  1.0000
  H   H118      1.0  0.6559599999999999  0.45115000000000005  0.67619  1.0000
  H   H119      1.0  0.7542700000000001  0.39087000000000005  0.70515  1.0000
  H   H120      1.0  0.7124300000000001  0.4160000000000001  0.73422  1.0000
  H   H121      1.0  0.82901  0.52564  0.52206  1.0000
  H   H122      1.0  0.8435499999999998  0.47541000000000005  0.54046  1.0000
  H   H123      1.0  0.8040299999999998  0.4433500000000001  0.5552  1.0000
  H   H124      1.0  0.7617000000000002  0.46932  0.54383  1.0000
  H   H125      1.0  0.7715  0.56123  0.50698  1.0000
  H   H126      1.0  0.74172  0.53773  0.5179  1.0000
  H   H127      1.0  0.64778  0.59549  0.67491  1.0000
  H   H128      1.0  0.67585  0.6226600000000001  0.63696  1.0000
  H   H129      1.0  0.48151999999999995  0.33462  0.7935  1.0000
  H   H130      1.0  0.5489499999999999  0.27118000000000003  0.81228  1.0000
  H   H131      1.0  0.6372100000000002  0.21259000000000006  0.89647  1.0000
  H   H132      1.0  0.6941600000000002  0.17331999999999997  0.86239  1.0000
  H   H133      1.0  0.7358400000000002  0.18576999999999994  0.8367700000000001  1.0000
  H   H134      1.0  0.65564  0.21744999999999998  0.95082  1.0000
  H   H135      1.0  0.7545200000000001  0.14952999999999997  0.89165  1.0000
  H   H136      1.0  0.7128299999999999  0.13704999999999998  0.9171900000000001  1.0000
  H   H137      1.0  0.8286800000000001  0.12314000000000001  0.025580000000000002  1.0000
  H   H138      1.0  0.8435699999999998  0.14064  0.9753400000000001  1.0000
  H   H139      1.0  0.80448  0.19826999999999997  0.9430200000000001  1.0000
  H   H140      1.0  0.7620299999999999  0.22617000000000012  0.9688699999999999  1.0000
  H   H141      1.0  0.77123  0.16023  0.06097  1.0000
  H   H142      1.0  0.7415699999999998  0.2031  0.03747  1.0000
  H   H143      1.0  0.64782  0.08223  0.09552  1.0000
  H   H144      1.0  0.67579  0.06465999999999998  0.12278000000000001  1.0000
  H   H145      1.0  0.3903199999999999  0.2936500000000001  0.83471  1.0000
  H   H146      1.0  0.3679599999999998  0.3123500000000001  0.7712300000000001  1.0000
  H   H147      1.0  0.25372  0.3966000000000001  0.71259  1.0000
  H   H148      1.0  0.27058000000000004  0.36208  0.67386  1.0000
  H   H149      1.0  0.24196999999999985  0.3366300000000001  0.68644  1.0000
  H   H150      1.0  0.1758500000000001  0.4512600000000001  0.71696  1.0000
  H   H151      1.0  0.20497000000000004  0.39142  0.64966  1.0000
  H   H152      1.0  0.23376000000000013  0.41677999999999993  0.63703  1.0000
  H   H153      1.0  0.022740000000000024  0.52582  0.62308  1.0000
  H   H154      1.0  0.04106000000000004  0.47559  0.64058  1.0000
  H   H155      1.0  0.05470000000000004  0.44341999999999987  0.69798  1.0000
  H   H156      1.0  0.04282000000000003  0.46913999999999995  0.7261  1.0000
  H   H157      1.0  0.0065799999999999045  0.5612800000000001  0.66045  1.0000
  H   H158      1.0  0.01682999999999997  0.53785  0.7032800000000001  1.0000
  H   H159      1.0  0.17499000000000003  0.5955  0.58234  1.0000
  H   H160      1.0  0.13762  0.62298  0.56429  1.0000
  H   H161      1.0  0.29361999999999994  0.39026  0.98097  1.0000
  H   H162      1.0  0.31227000000000005  0.36801  0.04812  1.0000
  H   H163      1.0  0.3959699999999999  0.25379  0.13718  1.0000
  H   H164      1.0  0.36136  0.27052  0.19354  1.0000
  H   H165      1.0  0.33607  0.24181000000000002  0.23545000000000002  1.0000
  H   H166      1.0  0.4511500000000001  0.17622000000000002  0.15595  1.0000
  H   H167      1.0  0.39089  0.20518000000000008  0.25427  1.0000
  H   H168      1.0  0.416  0.23425000000000007  0.21244  1.0000
  H   H169      1.0  0.5256  0.02207000000000001  0.32903  1.0000
  H   H170      1.0  0.47536999999999996  0.040459999999999996  0.34358000000000005  1.0000
  H   H171      1.0  0.44331000000000004  0.055190000000000024  0.30405  1.0000
  H   H172      1.0  0.4693  0.043849999999999986  0.26171  1.0000
  H   H173      1.0  0.5612199999999999  0.007040000000000011  0.27146  1.0000
  H   H174      1.0  0.53772  0.017930000000000005  0.24169999999999997  1.0000
  H   H175      1.0  0.59554  0.17496  0.14774  1.0000
  H   H176      1.0  0.6226899999999999  0.13694  0.17585  1.0000
  H   H177      1.0  0.33481999999999995  0.4806600000000001  0.89014  1.0000
  H   H178      1.0  0.27124000000000004  0.54841  0.86797  1.0000
  H   H179      1.0  0.21313000000000004  0.63721  0.75418  1.0000
  H   H180      1.0  0.17371000000000011  0.69393  0.77039  1.0000
  H   H181      1.0  0.18570999999999996  0.7358400000000002  0.74151  1.0000
  H   H182      1.0  0.21769000000000002  0.65518  0.67663  1.0000
  H   H183      1.0  0.14944000000000005  0.7540999999999999  0.70451  1.0000
  H   H184      1.0  0.13703  0.71237  0.73381  1.0000
  H   H185      1.0  0.12330999999999985  0.8285600000000002  0.52257  1.0000
  H   H186      1.0  0.14065999999999998  0.8430400000000001  0.54071  1.0000
  H   H187      1.0  0.19797000000000006  0.80369  0.55477  1.0000
  H   H188      1.0  0.22603000000000004  0.76143  0.54326  1.0000
  H   H189      1.0  0.16059000000000007  0.77135  0.50713  1.0000
  H   H190      1.0  0.20331000000000002  0.7414599999999999  0.51758  1.0000
  H   H191      1.0  0.08189999999999992  0.64771  0.67505  1.0000
  H   H192      1.0  0.06487000000000004  0.67598  0.63695  1.0000
  H   H193      1.0  0.60986  0.51929  0.16522  1.0000
  H   H194      1.0  0.63213  0.45153000000000004  0.22871  1.0000
  H   H195      1.0  0.7458300000000001  0.36279  0.28686  1.0000
  H   H196      1.0  0.72964  0.30612  0.32625  1.0000
  H   H197      1.0  0.7585000000000001  0.26418  0.31426  1.0000
  H   H198      1.0  0.8234000000000002  0.3448  0.28228  1.0000
  H   H199      1.0  0.79552  0.24592999999999998  0.35053  1.0000
  H   H200      1.0  0.76621  0.28767  0.36293  1.0000
  H   H201      1.0  0.97741  0.17148999999999998  0.37666  1.0000
  H   H202      1.0  0.9592300000000001  0.15702  0.35933000000000004  1.0000
  H   H203      1.0  0.94523  0.19633  0.302  1.0000
  H   H204      1.0  0.9567099999999997  0.23858  0.27394  1.0000
  H   H205      1.0  0.9928600000000001  0.22862000000000002  0.33942  1.0000
  H   H206      1.0  0.9824500000000002  0.25853  0.29668  1.0000
  H   H207      1.0  0.82498  0.35231000000000007  0.41798  1.0000
  H   H208      1.0  0.86302  0.32399  0.43509  1.0000
  H   H209      1.0  0.5190200000000001  0.60971  0.20635  1.0000
  H   H210      1.0  0.45182000000000005  0.63212  0.18769  1.0000
  H   H211      1.0  0.36283999999999983  0.7462400000000002  0.104  1.0000
  H   H212      1.0  0.30653  0.72952  0.13861  1.0000
  H   H213      1.0  0.26459  0.75823  0.16391  1.0000
  H   H214      1.0  0.34403999999999996  0.8238200000000001  0.04885  1.0000
  H   H215      1.0  0.24574999999999994  0.79482  0.10912  1.0000
  H   H216      1.0  0.28761  0.76575  0.08399  1.0000
  H   H217      1.0  0.17100000000000004  0.9779300000000001  0.97436  1.0000
  H   H218      1.0  0.15645  0.95951  0.0246  1.0000
  H   H219      1.0  0.19598000000000002  0.94479  0.05667  1.0000
  H   H220      1.0  0.23830000000000007  0.95616  0.03069  1.0000
  H   H221      1.0  0.22851000000000002  0.9929900000000002  0.93879  1.0000
  H   H222      1.0  0.2582900000000002  0.98209  0.96229  1.0000
  H   H223      1.0  0.35220999999999986  0.8251000000000002  0.9045  1.0000
  H   H224      1.0  0.32414000000000004  0.86307  0.87732  1.0000
  H   H225      1.0  0.66527  0.70633  0.10972  1.0000
  H   H226      1.0  0.72871  0.68766  0.13213  1.0000
  H   H227      1.0  0.7873200000000001  0.60341  0.24633000000000002  1.0000
  H   H228      1.0  0.8260499999999997  0.6379100000000001  0.22945  1.0000
  H   H229      1.0  0.81351  0.66337  0.25804  1.0000
  H   H230      1.0  0.78307  0.54873  0.32413  1.0000
  H   H231      1.0  0.85032  0.60859  0.295  1.0000
  H   H232      1.0  0.86295  0.58322  0.26621  1.0000
  H   H233      1.0  0.8769299999999999  0.47411  0.47726  1.0000
  H   H234      1.0  0.8594800000000001  0.52432  0.4589  1.0000
  H   H235      1.0  0.8020599999999998  0.5565600000000002  0.44527  1.0000
  H   H236      1.0  0.77393  0.53087  0.45714  1.0000
  H   H237      1.0  0.8395499999999999  0.43870000000000003  0.49343  1.0000
  H   H238      1.0  0.7967  0.46215000000000006  0.48318  1.0000
  H   H239      1.0  0.9176799999999998  0.40452000000000005  0.32506  1.0000
  H   H240      1.0  0.9356900000000001  0.37702  0.36244  1.0000
  H   H241      1.0  0.7064800000000001  0.6654200000000001  0.01845  1.0000
  H   H242      1.0  0.6877499999999999  0.72876  0.95099  1.0000
  H   H243      1.0  0.60357  0.7874  0.8627400000000001  1.0000
  H   H244      1.0  0.6376200000000002  0.8265999999999999  0.80586  1.0000
  H   H245      1.0  0.6632300000000001  0.8141700000000001  0.76417  1.0000
  H   H246      1.0  0.5491700000000002  0.7825499999999999  0.84437  1.0000
  H   H247      1.0  0.60832  0.8504700000000001  0.74552  1.0000
  H   H248      1.0  0.5827899999999999  0.8628900000000002  0.7872700000000001  1.0000
  H   H249      1.0  0.47439000000000003  0.87683  0.6714  1.0000
  H   H250      1.0  0.52466  0.85934  0.65651  1.0000
  H   H251      1.0  0.5569799999999999  0.8016900000000001  0.6956  1.0000
  H   H252      1.0  0.53113  0.7737900000000002  0.73802  1.0000
  H   H253      1.0  0.43903000000000014  0.8397999999999999  0.72873  1.0000
  H   H254      1.0  0.4624700000000001  0.7969099999999999  0.75844  1.0000
  H   H255      1.0  0.40454000000000007  0.9177  0.85217  1.0000
  H   H256      1.0  0.3773099999999998  0.9352700000000002  0.82415  1.0000
  H   H257      1.0  0.6652400000000002  0.60984  0.01933  1.0000
  H   H258      1.0  0.72877  0.6320500000000001  0.95158  1.0000
  H   H259      1.0  0.78683  0.7458300000000003  0.86282  1.0000
  H   H260      1.0  0.8262800000000005  0.7295999999999999  0.80611  1.0000
  H   H261      1.0  0.8143000000000001  0.75845  0.76418  1.0000
  H   H262      1.0  0.7822899999999998  0.82338  0.84481  1.0000
  H   H263      1.0  0.8505700000000003  0.79546  0.74593  1.0000
  H   H264      1.0  0.86297  0.7661800000000002  0.78764  1.0000
  H   H265      1.0  0.87669  0.9774300000000001  0.67145  1.0000
  H   H266      1.0  0.8593400000000002  0.9592699999999997  0.65696  1.0000
  H   H267      1.0  0.80205  0.9452300000000001  0.69628  1.0000
  H   H268      1.0  0.7739699999999999  0.95673  0.73856  1.0000
  H   H269      1.0  0.8394100000000002  0.9928699999999999  0.7286400000000001  1.0000
  H   H270      1.0  0.7966799999999998  0.9824100000000001  0.75854  1.0000
  H   H271      1.0  0.91809  0.82492  0.85229  1.0000
  H   H272      1.0  0.93515  0.8630200000000001  0.82402  1.0000
  H   H273      1.0  0.7063800000000002  0.51904  0.10974  1.0000
  H   H274      1.0  0.68775  0.45187  0.13199  1.0000
  H   H275      1.0  0.60402  0.36283  0.24623  1.0000
  H   H276      1.0  0.6386099999999999  0.30649000000000004  0.22948  1.0000
  H   H277      1.0  0.66392  0.2645700000000001  0.25818  1.0000
  H   H278      1.0  0.54885  0.34406000000000003  0.3238  1.0000
  H   H279      1.0  0.6091200000000002  0.24574000000000001  0.29482  1.0000
  H   H280      1.0  0.58399  0.28756  0.26575  1.0000
  H   H281      1.0  0.47437  0.17097  0.4779300000000001  1.0000
  H   H282      1.0  0.52463  0.1564  0.45955  1.0000
  H   H283      1.0  0.55668  0.19593999999999998  0.44479  1.0000
  H   H284      1.0  0.53069  0.23828  0.45616  1.0000
  H   H285      1.0  0.4387800000000001  0.22850999999999994  0.49298000000000003  1.0000
  H   H286      1.0  0.46229  0.25829  0.48206000000000004  1.0000
  H   H287      1.0  0.40446999999999994  0.3522000000000002  0.32506  1.0000
  H   H288      1.0  0.37729999999999997  0.32414000000000004  0.36308  1.0000
  H   H289      1.0  0.60969  0.66528  0.20635  1.0000
  H   H290      1.0  0.6320300000000001  0.72877  0.18768  1.0000
  H   H291      1.0  0.7462900000000001  0.78738  0.10341  1.0000
  H   H292      1.0  0.72941  0.8261500000000002  0.13788  1.0000
  H   H293      1.0  0.7580000000000001  0.81359  0.16336  1.0000
  H   H294      1.0  0.82413  0.78306  0.04873  1.0000
  H   H295      1.0  0.7950499999999999  0.8503100000000001  0.10860000000000002  1.0000
  H   H296      1.0  0.76625  0.86299  0.08322  1.0000
  H   H297      1.0  0.9772800000000001  0.87691  0.9741599999999999  1.0000
  H   H298      1.0  0.95895  0.85943  0.02439  1.0000
  H   H299      1.0  0.9453099999999999  0.8020200000000002  0.05658  1.0000
  H   H300      1.0  0.9571700000000001  0.77391  0.03086  1.0000
  H   H301      1.0  0.9934099999999998  0.8395400000000001  0.93871  1.0000
  H   H302      1.0  0.9831700000000001  0.7967  0.9621600000000001  1.0000
  H   H303      1.0  0.8250499999999998  0.9177300000000002  0.90447  1.0000
  H   H304      1.0  0.8624800000000002  0.9357  0.87693  1.0000
  H   H305      1.0  0.5184899999999999  0.7064700000000002  0.16542  1.0000
  H   H306      1.0  0.45104  0.68773  0.22882  1.0000
  H   H307      1.0  0.36277999999999994  0.6035200000000001  0.28742  1.0000
  H   H308      1.0  0.30586  0.6376  0.32667  1.0000
  H   H309      1.0  0.26416999999999996  0.66322  0.31422  1.0000
  H   H310      1.0  0.34434999999999993  0.54919  0.28253  1.0000
  H   H311      1.0  0.24548  0.6083499999999998  0.35048  1.0000
  H   H312      1.0  0.2872  0.5828  0.36294  1.0000
  H   H313      1.0  0.17128999999999997  0.47445  0.37686  1.0000
  H   H314      1.0  0.15644000000000005  0.5246799999999999  0.35935  1.0000
  H   H315      1.0  0.19554999999999997  0.55697  0.30172  1.0000
  H   H316      1.0  0.23801  0.53109  0.27383  1.0000
  H   H317      1.0  0.22874000000000003  0.43902  0.33981  1.0000
  H   H318      1.0  0.25842  0.46249  0.29693  1.0000
  H   H319      1.0  0.35224  0.40448000000000006  0.41772  1.0000
  H   H320      1.0  0.32420000000000004  0.3772499999999999  0.43534  1.0000
  H   H321      1.0  0.51929  0.66524  0.10986  1.0000
  H   H322      1.0  0.45154000000000005  0.72879  0.13213  1.0000
  H   H323      1.0  0.36284000000000005  0.7868199999999999  0.24584000000000003  1.0000
  H   H324      1.0  0.30614999999999976  0.8262400000000002  0.22962  1.0000
  H   H325      1.0  0.26423  0.81424  0.25846  1.0000
  H   H326      1.0  0.34481  0.78232  0.32338  1.0000
  H   H327      1.0  0.2459000000000001  0.8505  0.29553  1.0000
  H   H328      1.0  0.28761  0.86295  0.26623  1.0000
  H   H329      1.0  0.17151000000000005  0.87666  0.47740000000000005  1.0000
  H   H330      1.0  0.1570099999999999  0.85934  0.45925  1.0000
  H   H331      1.0  0.1962999999999999  0.8020000000000002  0.44523  1.0000
  H   H332      1.0  0.23855  0.77389  0.45675  1.0000
  H   H333      1.0  0.22868  0.83933  0.49287  1.0000
  H   H334      1.0  0.2585500000000001  0.79658  0.48244000000000004  1.0000
  H   H335      1.0  0.35227999999999987  0.9180600000000001  0.32495  1.0000
  H   H336      1.0  0.3240099999999999  0.9350400000000001  0.36309  1.0000
  H   H337      1.0  0.6097199999999999  0.7064  0.01899  1.0000
  H   H338      1.0  0.6320699999999999  0.68769  0.95183  1.0000
  H   H339      1.0  0.7462100000000003  0.6040199999999999  0.86283  1.0000
  H   H340      1.0  0.7295  0.6386  0.80652  1.0000
  H   H341      1.0  0.7581800000000001  0.66394  0.7646  1.0000
  H   H342      1.0  0.82379  0.54884  0.84403  1.0000
  H   H343      1.0  0.7948900000000002  0.6091700000000001  0.74568  1.0000
  H   H344      1.0  0.7657999999999999  0.5840300000000002  0.78748  1.0000
  H   H345      1.0  0.9778599999999993  0.47441  0.67101  1.0000
  H   H346      1.0  0.9594900000000001  0.52465  0.65645  1.0000
  H   H347      1.0  0.9447800000000001  0.55672  0.69597  1.0000
  H   H348      1.0  0.9561699999999994  0.53073  0.7383  1.0000
  H   H349      1.0  0.9929499999999998  0.43883000000000005  0.7285  1.0000
  H   H350      1.0  0.98205  0.46233  0.75829  1.0000
  H   H351      1.0  0.8250599999999999  0.40447000000000005  0.85224  1.0000
  H   H352      1.0  0.8631  0.37732000000000004  0.82416  1.0000
  H   H353      1.0  0.70636  0.60973  0.16526  1.0000
  H   H354      1.0  0.6876400000000001  0.63211  0.22876000000000002  1.0000
  H   H355      1.0  0.60341  0.74628  0.28736  1.0000
  H   H356      1.0  0.6379299999999999  0.7294200000000001  0.32609  1.0000
  H   H357      1.0  0.66338  0.75803  0.3135  1.0000
  H   H358      1.0  0.54872  0.8241000000000002  0.2831  1.0000
  H   H359      1.0  0.6085999999999998  0.7950500000000001  0.3503  1.0000
  H   H360      1.0  0.58324  0.7662400000000001  0.36297  1.0000
  H   H361      1.0  0.47413  0.97724  0.37687  1.0000
  H   H362      1.0  0.52434  0.95889  0.35945  1.0000
  H   H363      1.0  0.5566200000000002  0.94529  0.30198  1.0000
  H   H364      1.0  0.5309599999999998  0.9571400000000001  0.27384  1.0000
  H   H365      1.0  0.43875  0.9934000000000001  0.33948  1.0000
  H   H366      1.0  0.4622  0.98317  0.29663  1.0000
  H   H367      1.0  0.40454000000000007  0.82501  0.41765  1.0000
  H   H368      1.0  0.37705000000000005  0.86245  0.43562  1.0000
  H   H369      1.0  0.66534  0.51842  0.20656  1.0000
  H   H370      1.0  0.7287999999999999  0.45101  0.18771  1.0000
  H   H371      1.0  0.78738  0.36278  0.10355  1.0000
  H   H372      1.0  0.82662  0.30587  0.13764  1.0000
  H   H373      1.0  0.8141700000000001  0.2642  0.16325  1.0000
  H   H374      1.0  0.78257  0.3443  0.0492  1.0000
  H   H375      1.0  0.85049  0.24548  0.10838  1.0000
  H   H376      1.0  0.8629200000000001  0.2872  0.08284  1.0000
  H   H377      1.0  0.8768799999999999  0.17132999999999995  0.9744900000000001  1.0000
  H   H378      1.0  0.8593300000000001  0.15649  0.02473  1.0000
  H   H379      1.0  0.80162  0.19567000000000004  0.057  1.0000
  H   H380      1.0  0.7737600000000001  0.23807000000000003  0.03107  1.0000
  H   H381      1.0  0.8398599999999999  0.22868999999999995  0.9390700000000001  1.0000
  H   H382      1.0  0.7969599999999999  0.25840000000000013  0.96249  1.0000
  H   H383      1.0  0.91776  0.35220999999999997  0.90449  1.0000
  H   H384      1.0  0.93529  0.32417000000000007  0.87729  1.0000
  H   H385      1.0  0.60971  0.51897  0.20640000000000003  1.0000
  H   H386      1.0  0.6320999999999999  0.4518400000000001  0.18763  1.0000
  H   H387      1.0  0.74621  0.36282  0.10402  1.0000
  H   H388      1.0  0.72949  0.30652  0.13861  1.0000
  H   H389      1.0  0.75817  0.26461000000000007  0.16393  1.0000
  H   H390      1.0  0.8238099999999998  0.34401000000000004  0.04887  1.0000
  H   H391      1.0  0.7948500000000001  0.24571000000000004  0.10915  1.0000
  H   H392      1.0  0.76579  0.2875400000000001  0.08401  1.0000
  H   H393      1.0  0.9778599999999997  0.17101000000000002  0.97442  1.0000
  H   H394      1.0  0.9594900000000001  0.15645  0.02466  1.0000
  H   H395      1.0  0.94477  0.19598  0.05673  1.0000
  H   H396      1.0  0.9561700000000001  0.23829  0.030750000000000003  1.0000
  H   H397      1.0  0.9929500000000001  0.22848999999999994  0.93884  1.0000
  H   H398      1.0  0.98206  0.25828999999999996  0.9623200000000001  1.0000
  H   H399      1.0  0.8251000000000001  0.3521599999999999  0.90447  1.0000
  H   H400      1.0  0.86321  0.32415  0.87725  1.0000
  H   H401      1.0  0.51928  0.60989  0.16516  1.0000
  H   H402      1.0  0.45156000000000013  0.63212  0.22876999999999997  1.0000
  H   H403      1.0  0.36280000000000007  0.7458  0.2869  1.0000
  H   H404      1.0  0.30613  0.72962  0.32624  1.0000
  H   H405      1.0  0.2642100000000001  0.7585  0.31423  1.0000
  H   H406      1.0  0.3448000000000001  0.82339  0.28229  1.0000
  H   H407      1.0  0.24592  0.7954900000000001  0.35055  1.0000
  H   H408      1.0  0.2876699999999999  0.7662  0.36293  1.0000
  H   H409      1.0  0.17154  0.97739  0.37665  1.0000
  H   H410      1.0  0.1570199999999999  0.9592400000000001  0.35935  1.0000
  H   H411      1.0  0.19630999999999998  0.9452300000000001  0.30199  1.0000
  H   H412      1.0  0.23856  0.95674  0.27388  1.0000
  H   H413      1.0  0.22866999999999993  0.9928500000000001  0.33935  1.0000
  H   H414      1.0  0.25855999999999996  0.9824400000000001  0.2966  1.0000
  H   H415      1.0  0.3522799999999998  0.8249500000000003  0.41806  1.0000
  H   H416      1.0  0.32401  0.8631000000000001  0.43503  1.0000
  H   H417      1.0  0.6653599999999998  0.7065500000000002  0.01842  1.0000
  H   H418      1.0  0.7288200000000002  0.6876600000000002  0.95103  1.0000
  H   H419      1.0  0.7874000000000004  0.6035300000000001  0.86278  1.0000
  H   H420      1.0  0.8266199999999999  0.6376400000000001  0.80587  1.0000
  H   H421      1.0  0.8141599999999999  0.6632400000000002  0.7642  1.0000
  H   H422      1.0  0.7825499999999999  0.5492  0.84431  1.0000
  H   H423      1.0  0.8504899999999997  0.6083600000000003  0.7455  1.0000
  H   H424      1.0  0.8629200000000001  0.58283  0.78722  1.0000
  H   H425      1.0  0.87686  0.47446000000000005  0.67134  1.0000
  H   H426      1.0  0.8593299999999999  0.5247100000000001  0.6565  1.0000
  H   H427      1.0  0.8016599999999999  0.5569900000000001  0.6956  1.0000
  H   H428      1.0  0.77377  0.5311099999999999  0.73804  1.0000
  H   H429      1.0  0.8398300000000001  0.43905000000000005  0.72873  1.0000
  H   H430      1.0  0.7969099999999999  0.46252  0.75842  1.0000
  H   H431      1.0  0.91776  0.40449  0.85219  1.0000
  H   H432      1.0  0.9352799999999999  0.37728  0.82417  1.0000
  H   H433      1.0  0.70638  0.66522  0.10975  1.0000
  H   H434      1.0  0.6876099999999999  0.7287500000000001  0.13212  1.0000
  H   H435      1.0  0.6034  0.78734  0.24631000000000003  1.0000
  H   H436      1.0  0.63793  0.8260700000000001  0.22942  1.0000
  H   H437      1.0  0.6633700000000001  0.8134999999999999  0.25804  1.0000
  H   H438      1.0  0.54873  0.78305  0.32415  1.0000
  H   H439      1.0  0.6085800000000001  0.8503199999999999  0.29502  1.0000
  H   H440      1.0  0.58321  0.8629400000000002  0.26624  1.0000
  H   H441      1.0  0.47419  0.8769000000000001  0.4772  1.0000
  H   H442      1.0  0.5244100000000002  0.8593899999999998  0.45888  1.0000
  H   H443      1.0  0.5565999999999998  0.8019500000000004  0.4453  1.0000
  H   H444      1.0  0.5308900000000001  0.7738300000000001  0.45718  1.0000
  H   H445      1.0  0.43872999999999995  0.83953  0.49342  1.0000
  H   H446      1.0  0.46215  0.79667  0.4832  1.0000
  H   H447      1.0  0.40452999999999995  0.9176400000000001  0.32501  1.0000
  H   H448      1.0  0.37704999999999994  0.93563  0.36244  1.0000
  H   H449      1.0  0.6652400000000002  0.60974  0.20636  1.0000
  H   H450      1.0  0.7287200000000003  0.63212  0.18764  1.0000
  H   H451      1.0  0.7873599999999998  0.7463100000000001  0.10342  1.0000
  H   H452      1.0  0.82606  0.7294600000000001  0.13794  1.0000
  H   H453      1.0  0.81349  0.7580900000000002  0.16338  1.0000
  H   H454      1.0  0.78306  0.82413  0.04874  1.0000
  H   H455      1.0  0.85033  0.79501  0.10858  1.0000
  H   H456      1.0  0.8629399999999999  0.7662  0.08324  1.0000
  H   H457      1.0  0.87692  0.9772600000000001  0.97411  1.0000
  H   H458      1.0  0.85945  0.9589100000000002  0.02434  1.0000
  H   H459      1.0  0.80205  0.94527  0.05656  1.0000
  H   H460      1.0  0.7738999999999999  0.95716  0.03087  1.0000
  H   H461      1.0  0.8395600000000002  0.99344  0.9387000000000001  1.0000
  H   H462      1.0  0.7967100000000003  0.9831900000000001  0.96212  1.0000
  H   H463      1.0  0.9176699999999998  0.82504  0.90453  1.0000
  H   H464      1.0  0.93571  0.8624  0.87703  1.0000
  H   H465      1.0  0.70646  0.51845  0.16545  1.0000
  H   H466      1.0  0.6876999999999998  0.45100000000000007  0.22878  1.0000
  H   H467      1.0  0.6035600000000001  0.36275  0.28741  1.0000
  H   H468      1.0  0.6376300000000001  0.30585  0.32661  1.0000
  H   H469      1.0  0.6632500000000001  0.26416  0.31414  1.0000
  H   H470      1.0  0.5491799999999997  0.3443700000000001  0.28255  1.0000
  H   H471      1.0  0.6083500000000002  0.2455  0.35043  1.0000
  H   H472      1.0  0.5828099999999999  0.2872199999999999  0.3629  1.0000
  H   H473      1.0  0.47438  0.17139  0.37685  1.0000
  H   H474      1.0  0.5246400000000003  0.15653  0.35935  1.0000
  H   H475      1.0  0.5569499999999998  0.19558999999999999  0.30172  1.0000
  H   H476      1.0  0.53111  0.23803  0.2738  1.0000
  H   H477      1.0  0.4389999999999999  0.22876  0.3398  1.0000
  H   H478      1.0  0.46248000000000006  0.25843  0.29691  1.0000
  H   H479      1.0  0.40453000000000006  0.35216  0.41772  1.0000
  H   H480      1.0  0.37732  0.32414000000000004  0.43529  1.0000
  H   H481      1.0  0.6098600000000002  0.66522  0.0193  1.0000
  H   H482      1.0  0.63213  0.7287400000000002  0.95156  1.0000
  H   H483      1.0  0.7458  0.7869  0.86277  1.0000
  H   H484      1.0  0.7296400000000001  0.8262399999999999  0.80609  1.0000
  H   H485      1.0  0.7585499999999998  0.8142200000000004  0.76416  1.0000
  H   H486      1.0  0.82337  0.7822800000000001  0.84482  1.0000
  H   H487      1.0  0.7955099999999998  0.8505399999999999  0.74594  1.0000
  H   H488      1.0  0.7662000000000001  0.8629100000000001  0.7877  1.0000
  H   H489      1.0  0.9774000000000003  0.8766700000000001  0.6715  1.0000
  H   H490      1.0  0.95924  0.8593099999999999  0.65702  1.0000
  H   H491      1.0  0.94522  0.8020200000000002  0.69633  1.0000
  H   H492      1.0  0.95672  0.77394  0.73858  1.0000
  H   H493      1.0  0.9928700000000001  0.8394  0.72865  1.0000
  H   H494      1.0  0.9824500000000002  0.7966500000000002  0.75854  1.0000
  H   H495      1.0  0.82498  0.9179700000000001  0.85231  1.0000
  H   H496      1.0  0.8630199999999998  0.9350900000000001  0.82398  1.0000
  H   H497      1.0  0.5190099999999999  0.7064  0.10975  1.0000
  H   H498      1.0  0.4518299999999999  0.6877100000000002  0.13212  1.0000
  H   H499      1.0  0.36282999999999993  0.6040100000000002  0.24623999999999996  1.0000
  H   H500      1.0  0.30652000000000007  0.6386  0.22952999999999998  1.0000
  H   H501      1.0  0.26458  0.66392  0.25824  1.0000
  H   H502      1.0  0.34405000000000013  0.54884  0.32379  1.0000
  H   H503      1.0  0.24572999999999998  0.6091300000000001  0.29486  1.0000
  H   H504      1.0  0.28756999999999994  0.584  0.26576  1.0000
  H   H505      1.0  0.17100999999999994  0.47435  0.47792  1.0000
  H   H506      1.0  0.15646999999999997  0.52458  0.4595  1.0000
  H   H507      1.0  0.19598000000000002  0.55666  0.44479  1.0000
  H   H508      1.0  0.2383100000000001  0.53069  0.45614  1.0000
  H   H509      1.0  0.22853000000000004  0.43878  0.49298000000000003  1.0000
  H   H510      1.0  0.2582899999999999  0.4622800000000001  0.48210000000000003  1.0000
  H   H511      1.0  0.35221000000000025  0.40448  0.3251  1.0000
  H   H512      1.0  0.32415  0.3772900000000001  0.36308  1.0000
  H   H513      1.0  0.51848  0.66535  0.20652  1.0000
  H   H514      1.0  0.45106  0.7288  0.18773  1.0000
  H   H515      1.0  0.3627799999999999  0.7874200000000001  0.10353  1.0000
  H   H516      1.0  0.30583000000000005  0.82668  0.13761  1.0000
  H   H517      1.0  0.26416999999999985  0.8142100000000003  0.16323  1.0000
  H   H518      1.0  0.34438000000000035  0.78256  0.04916  1.0000
  H   H519      1.0  0.2454699999999999  0.8504600000000003  0.10837  1.0000
  H   H520      1.0  0.28717000000000004  0.8629400000000002  0.08282  1.0000
  H   H521      1.0  0.17130000000000006  0.87686  0.9744499999999999  1.0000
  H   H522      1.0  0.15642999999999999  0.85934  0.0247  1.0000
  H   H523      1.0  0.19556999999999986  0.8017100000000003  0.05698000000000001  1.0000
  H   H524      1.0  0.23802000000000004  0.77382  0.031080000000000003  1.0000
  H   H525      1.0  0.2287200000000001  0.83982  0.9390299999999999  1.0000
  H   H526      1.0  0.25842  0.79695  0.96248  1.0000
  H   H527      1.0  0.35227  0.9177  0.90449  1.0000
  H   H528      1.0  0.32420999999999994  0.9353400000000001  0.87729  1.0000
  H   H529      1.0  0.6096999999999998  0.70637  0.16525  1.0000
  H   H530      1.0  0.6320399999999998  0.68766  0.22876000000000002  1.0000
  H   H531      1.0  0.7462700000000001  0.60341  0.28741  1.0000
  H   H532      1.0  0.7294199999999998  0.6379100000000001  0.32615  1.0000
  H   H533      1.0  0.75802  0.6633700000000001  0.31357  1.0000
  H   H534      1.0  0.82413  0.54874  0.28305  1.0000
  H   H535      1.0  0.7950500000000001  0.60859  0.35032  1.0000
  H   H536      1.0  0.76625  0.58323  0.36298  1.0000
  H   H537      1.0  0.97725  0.47416  0.37691  1.0000
  H   H538      1.0  0.95893  0.52439  0.35942  1.0000
  H   H539      1.0  0.9452900000000001  0.55657  0.30203  1.0000
  H   H540      1.0  0.95717  0.53087  0.2739  1.0000
  H   H541      1.0  0.99343  0.43871  0.33955  1.0000
  H   H542      1.0  0.9831799999999998  0.4621100000000001  0.29673  1.0000
  H   H543      1.0  0.8250400000000001  0.40448000000000006  0.41772  1.0000
  H   H544      1.0  0.8624700000000002  0.37696  0.43569  1.0000
  H   H545      1.0  0.7063900000000001  0.60974  0.01903  1.0000
  H   H546      1.0  0.6876800000000001  0.63202  0.9518900000000001  1.0000
  H   H547      1.0  0.6040299999999998  0.74621  0.86283  1.0000
  H   H548      1.0  0.6386200000000001  0.7294799999999999  0.80647  1.0000
  H   H549      1.0  0.66393  0.75818  0.76455  1.0000
  H   H550      1.0  0.54886  0.82379  0.84405  1.0000
  H   H551      1.0  0.6091199999999999  0.7948400000000001  0.74572  1.0000
  H   H552      1.0  0.584  0.76576  0.78754  1.0000
  H   H553      1.0  0.4743899999999999  0.9779400000000001  0.67095  1.0000
  H   H554      1.0  0.5246400000000003  0.9595500000000001  0.65639  1.0000
  H   H555      1.0  0.5566900000000002  0.94479  0.69594  1.0000
  H   H556      1.0  0.5306900000000001  0.9561400000000003  0.73829  1.0000
  H   H557      1.0  0.43877999999999995  0.9929800000000001  0.7285  1.0000
  H   H558      1.0  0.46226999999999996  0.98205  0.75829  1.0000
  H   H559      1.0  0.40446000000000026  0.82505  0.85223  1.0000
  H   H560      1.0  0.37728000000000006  0.86308  0.82416  1.0000
  H   H561      1.0  0.66523  0.51933  0.10984  1.0000
  H   H562      1.0  0.7288000000000002  0.45160000000000006  0.13205  1.0000
  H   H563      1.0  0.78689  0.36278  0.24581  1.0000
  H   H564      1.0  0.82629  0.30608  0.22961  1.0000
  H   H565      1.0  0.81429  0.26416  0.25849  1.0000
  H   H566      1.0  0.7823  0.34481000000000006  0.32337  1.0000
  H   H567      1.0  0.8506099999999999  0.24592  0.29547  1.0000
  H   H568      1.0  0.86296  0.28768  0.26618  1.0000
  H   H569      1.0  0.87667  0.17145  0.47745999999999994  1.0000
  H   H570      1.0  0.8593300000000001  0.15696000000000002  0.45929  1.0000
  H   H571      1.0  0.8020500000000003  0.19627  0.44524  1.0000
  H   H572      1.0  0.77396  0.23856  0.45672  1.0000
  H   H573      1.0  0.8394000000000001  0.22863999999999998  0.49287  1.0000
  H   H574      1.0  0.79668  0.25854  0.48241999999999996  1.0000
  H   H575      1.0  0.91806  0.35231999999999997  0.32493  1.0000
  H   H576      1.0  0.93515  0.32402  0.36299  1.0000
  H   H577      1.0  0.39015  0.48071  0.8347600000000001  1.0000
  H   H578      1.0  0.36786  0.54846  0.77126  1.0000
  H   H579      1.0  0.2541699999999999  0.63722  0.71312  1.0000
  H   H580      1.0  0.2703699999999999  0.69387  0.67376  1.0000
  H   H581      1.0  0.24148  0.73581  0.68575  1.0000
  H   H582      1.0  0.17659000000000002  0.6551999999999999  0.71773  1.0000
  H   H583      1.0  0.20451  0.75405  0.64944  1.0000
  H   H584      1.0  0.23379999999999984  0.7122800000000001  0.63709  1.0000
  H   H585      1.0  0.02255999999999979  0.8284700000000003  0.62334  1.0000
  H   H586      1.0  0.04072999999999975  0.8429900000000002  0.6406500000000002  1.0000
  H   H587      1.0  0.05477999999999983  0.8037300000000004  0.69793  1.0000
  H   H588      1.0  0.04328999999999993  0.7614600000000002  0.72605  1.0000
  H   H589      1.0  0.007119999999999828  0.7713200000000003  0.66064  1.0000
  H   H590      1.0  0.017569999999999975  0.74144  0.70339  1.0000
  H   H591      1.0  0.17500999999999992  0.64774  0.58197  1.0000
  H   H592      1.0  0.13691000000000003  0.6760199999999998  0.56494  1.0000
  H   H593      1.0  0.4809800000000002  0.39028999999999997  0.79364  1.0000
  H   H594      1.0  0.54819  0.36787999999999993  0.81228  1.0000
  H   H595      1.0  0.6371600000000002  0.25377  0.89599  1.0000
  H   H596      1.0  0.69346  0.27048  0.86141  1.0000
  H   H597      1.0  0.7354  0.24179000000000003  0.83608  1.0000
  H   H598      1.0  0.6559399999999999  0.17621  0.95117  1.0000
  H   H599      1.0  0.75426  0.20515999999999998  0.89087  1.0000
  H   H600      1.0  0.7124100000000004  0.23424  0.916  1.0000
  H   H601      1.0  0.82902  0.02210000000000001  0.02561  1.0000
  H   H602      1.0  0.8435499999999998  0.04048000000000001  0.97537  1.0000
  H   H603      1.0  0.8040100000000001  0.055220000000000026  0.94334  1.0000
  H   H604      1.0  0.76169  0.04382999999999996  0.9693300000000001  1.0000
  H   H605      1.0  0.77153  0.006989999999999998  0.06123000000000001  1.0000
  H   H606      1.0  0.74171  0.01792  0.03775  1.0000
  H   H607      1.0  0.64787  0.17487000000000003  0.09553  1.0000
  H   H608      1.0  0.67587  0.13686  0.12273  1.0000
  H   H609      1.0  0.33476  0.2936500000000001  0.89027  1.0000
  H   H610      1.0  0.27129  0.31234000000000006  0.86788  1.0000
  H   H611      1.0  0.2126699999999999  0.39659000000000005  0.75367  1.0000
  H   H612      1.0  0.17392999999999997  0.36211  0.77054  1.0000
  H   H613      1.0  0.18649000000000002  0.33663000000000004  0.74197  1.0000
  H   H614      1.0  0.21690999999999996  0.45128000000000007  0.67588  1.0000
  H   H615      1.0  0.14969  0.39139000000000007  0.70497  1.0000
  H   H616      1.0  0.13704000000000002  0.41677  0.73377  1.0000
  H   H617      1.0  0.12308000000000001  0.52592  0.5227  1.0000
  H   H618      1.0  0.1405  0.4757  0.54107  1.0000
  H   H619      1.0  0.19793000000000013  0.44344  0.55471  1.0000
  H   H620      1.0  0.22607000000000002  0.46909000000000006  0.54288  1.0000
  H   H621      1.0  0.16047999999999998  0.5613  0.50656  1.0000
  H   H622      1.0  0.20332999999999998  0.53783  0.51681  1.0000
  H   H623      1.0  0.08238000000000002  0.59546  0.67495  1.0000
  H   H624      1.0  0.06430999999999998  0.6229300000000001  0.63761  1.0000
  H   H625      1.0  0.29353000000000007  0.33456  0.98155  1.0000
  H   H626      1.0  0.3123  0.27123  0.049  1.0000
  H   H627      1.0  0.39644  0.21262  0.13724  1.0000
  H   H628      1.0  0.36239  0.17339000000000004  0.19412  1.0000
  H   H629      1.0  0.33676  0.18582  0.23582  1.0000
  H   H630      1.0  0.45082  0.21746000000000001  0.15564  1.0000
  H   H631      1.0  0.39167  0.14953  0.25448  1.0000
  H   H632      1.0  0.4172100000000001  0.13711  0.21273  1.0000
  H   H633      1.0  0.5256000000000001  0.12315999999999998  0.32863  1.0000
  H   H634      1.0  0.4753399999999999  0.14065000000000003  0.3435  1.0000
  H   H635      1.0  0.44302000000000014  0.19832  0.30438  1.0000
  H   H636      1.0  0.46889999999999993  0.22620000000000004  0.26195  1.0000
  H   H637      1.0  0.56098  0.16016999999999998  0.27129  1.0000
  H   H638      1.0  0.5375300000000001  0.20305999999999996  0.24158  1.0000
  H   H639      1.0  0.59544  0.08238  0.14774  1.0000
  H   H640      1.0  0.62262  0.06472000000000003  0.17583  1.0000
  H   H641      1.0  0.33478  0.3901500000000001  0.9806699999999999  1.0000
  H   H642      1.0  0.27121  0.36795  0.04841  1.0000
  H   H643      1.0  0.21309999999999998  0.2541900000000001  0.13723  1.0000
  H   H644      1.0  0.17370999999999995  0.2704  0.19393  1.0000
  H   H645      1.0  0.18570999999999996  0.2415  0.23585  1.0000
  H   H646      1.0  0.21773000000000003  0.17661000000000002  0.15519  1.0000
  H   H647      1.0  0.14938  0.20455  0.25407  1.0000
  H   H648      1.0  0.13704000000000005  0.23383  0.21231  1.0000
  H   H649      1.0  0.12331  0.022580000000000006  0.32857  1.0000
  H   H650      1.0  0.14069  0.04071  0.34304  1.0000
  H   H651      1.0  0.19793999999999998  0.05476  0.30373  1.0000
  H   H652      1.0  0.22603000000000004  0.04328  0.26145  1.0000
  H   H653      1.0  0.1606  0.007120000000000007  0.27137  1.0000
  H   H654      1.0  0.20330999999999996  0.01757999999999999  0.24146000000000004  1.0000
  H   H655      1.0  0.08198999999999998  0.17511  0.1476  1.0000
  H   H656      1.0  0.06486  0.13707  0.17596  1.0000
  H   H657      1.0  0.29364000000000035  0.4809699999999999  0.89028  1.0000
  H   H658      1.0  0.31233  0.5481199999999999  0.8679800000000001  1.0000
  H   H659      1.0  0.39597000000000004  0.6371699999999999  0.75379  1.0000
  H   H660      1.0  0.36137  0.69353  0.77052  1.0000
  H   H661      1.0  0.33606999999999987  0.7354500000000002  0.7418  1.0000
  H   H662      1.0  0.45114999999999994  0.65594  0.67622  1.0000
  H   H663      1.0  0.39088000000000006  0.7542800000000001  0.70516  1.0000
  H   H664      1.0  0.4159999999999999  0.71246  0.73424  1.0000
  H   H665      1.0  0.5256499999999998  0.82901  0.52204  1.0000
  H   H666      1.0  0.47541  0.8436  0.54044  1.0000
  H   H667      1.0  0.4432999999999999  0.80408  0.5552  1.0000
  H   H668      1.0  0.46926999999999996  0.7617400000000001  0.54386  1.0000
  H   H669      1.0  0.5612000000000001  0.77145  0.50704  1.0000
  H   H670      1.0  0.5376800000000002  0.7416999999999999  0.51795  1.0000
  H   H671      1.0  0.59552  0.6477600000000001  0.67496  1.0000
  H   H672      1.0  0.6227099999999999  0.6758200000000001  0.63695  1.0000
  H   H673      1.0  0.39030000000000004  0.33475  0.79364  1.0000
  H   H674      1.0  0.36798000000000003  0.27125  0.8123  1.0000
  H   H675      1.0  0.2537099999999999  0.21261000000000005  0.8966  1.0000
  H   H676      1.0  0.2705899999999999  0.17384000000000005  0.86211  1.0000
  H   H677      1.0  0.24200000000000005  0.18642999999999998  0.83663  1.0000
  H   H678      1.0  0.1758600000000001  0.21695  0.9512599999999999  1.0000
  H   H679      1.0  0.20496  0.14968999999999996  0.8914  1.0000
  H   H680      1.0  0.23375  0.13702999999999999  0.9167800000000002  1.0000
  H   H681      1.0  0.022749999999999996  0.12308000000000001  0.02583  1.0000
  H   H682      1.0  0.04105999999999997  0.14057000000000003  0.97561  1.0000
  H   H683      1.0  0.0547  0.19796999999999995  0.9434200000000001  1.0000
  H   H684      1.0  0.04284  0.22609000000000004  0.9691200000000001  1.0000
  H   H685      1.0  0.006579999999999987  0.16045  0.06129  1.0000
  H   H686      1.0  0.01682999999999999  0.20328  0.03786  1.0000
  H   H687      1.0  0.17496  0.08228000000000002  0.09551  1.0000
  H   H688      1.0  0.13754000000000002  0.06432  0.12303  1.0000
  H   H689      1.0  0.48150999999999994  0.29351999999999995  0.8346000000000001  1.0000
  H   H690      1.0  0.54896  0.31224999999999997  0.77119  1.0000
  H   H691      1.0  0.63722  0.39647  0.71258  1.0000
  H   H692      1.0  0.69414  0.3624100000000001  0.67332  1.0000
  H   H693      1.0  0.73583  0.33677  0.68576  1.0000
  H   H694      1.0  0.65564  0.45084000000000013  0.71742  1.0000
  H   H695      1.0  0.75451  0.39164999999999994  0.64951  1.0000
  H   H696      1.0  0.7128099999999999  0.41718999999999995  0.63706  1.0000
  H   H697      1.0  0.8286600000000001  0.52559  0.62315  1.0000
  H   H698      1.0  0.8435599999999998  0.47534000000000004  0.64063  1.0000
  H   H699      1.0  0.80447  0.44300999999999996  0.69828  1.0000
  H   H700      1.0  0.7620000000000001  0.4688899999999999  0.72617  1.0000
  H   H701      1.0  0.77126  0.5609600000000001  0.6602  1.0000
  H   H702      1.0  0.7415700000000001  0.53749  0.70308  1.0000
  H   H703      1.0  0.6477399999999999  0.5955200000000002  0.58228  1.0000
  H   H704      1.0  0.6758000000000002  0.62272  0.56466  1.0000
  H   H705      1.0  0.4807100000000001  0.33478  0.89014  1.0000
  H   H706      1.0  0.54846  0.27123  0.86788  1.0000
  H   H707      1.0  0.6371699999999999  0.21315  0.75417  1.0000
  H   H708      1.0  0.6938500000000002  0.17375999999999997  0.77039  1.0000
  H   H709      1.0  0.73577  0.18577  0.74152  1.0000
  H   H710      1.0  0.65519  0.21769  0.67662  1.0000
  H   H711      1.0  0.75408  0.14946000000000007  0.7045  1.0000
  H   H712      1.0  0.71234  0.13707  0.73379  1.0000
  H   H713      1.0  0.8284599999999998  0.12335000000000003  0.5226  1.0000
  H   H714      1.0  0.84297  0.14066000000000004  0.54076  1.0000
  H   H715      1.0  0.80371  0.198  0.55476  1.0000
  H   H716      1.0  0.76144  0.22612000000000007  0.54326  1.0000
  H   H717      1.0  0.77131  0.16067  0.50713  1.0000
  H   H718      1.0  0.74143  0.20342  0.51755  1.0000
  H   H719      1.0  0.6476500000000002  0.08201000000000003  0.67507  1.0000
  H   H720      1.0  0.67599  0.06496000000000002  0.63695  1.0000
  H   H721      1.0  0.3902899999999998  0.2935900000000001  0.98103  1.0000
  H   H722      1.0  0.36791  0.31236  0.04816  1.0000
  H   H723      1.0  0.2537999999999999  0.3960000000000001  0.13719  1.0000
  H   H724      1.0  0.2705199999999999  0.36136  0.19351  1.0000
  H   H725      1.0  0.24179999999999996  0.33607000000000004  0.23541000000000004  1.0000
  H   H726      1.0  0.17615  0.4511  0.15602  1.0000
  H   H727      1.0  0.20516  0.39086  0.25429  1.0000
  H   H728      1.0  0.23422000000000004  0.41598999999999997  0.21244  1.0000
  H   H729      1.0  0.02212000000000003  0.52559  0.329  1.0000
  H   H730      1.0  0.040499999999999946  0.47535  0.34354000000000007  1.0000
  H   H731      1.0  0.05522  0.44328000000000006  0.30403  1.0000
  H   H732      1.0  0.043849999999999986  0.46924000000000005  0.26171  1.0000
  H   H733      1.0  0.007019999999999994  0.56117  0.27152  1.0000
  H   H734      1.0  0.017939999999999953  0.53769  0.24171  1.0000
  H   H735      1.0  0.17492  0.5955  0.14783  1.0000
  H   H736      1.0  0.13680999999999996  0.62273  0.17585  1.0000
  H   H737      1.0  0.29363  0.39026  0.8347600000000001  1.0000
  H   H738      1.0  0.3123900000000001  0.36789  0.77124  1.0000
  H   H739      1.0  0.3965899999999999  0.25370999999999994  0.71264  1.0000
  H   H740      1.0  0.36207999999999996  0.2705800000000001  0.67392  1.0000
  H   H741      1.0  0.33662999999999993  0.24196000000000004  0.68649  1.0000
  H   H742      1.0  0.45127  0.17586  0.71695  1.0000
  H   H743      1.0  0.3914000000000001  0.20496  0.64971  1.0000
  H   H744      1.0  0.41677999999999993  0.23375999999999997  0.63705  1.0000
  H   H745      1.0  0.52586  0.022779999999999988  0.62311  1.0000
  H   H746      1.0  0.47564  0.04113000000000001  0.64057  1.0000
  H   H747      1.0  0.4433900000000001  0.05470999999999998  0.69801  1.0000
  H   H748      1.0  0.4690499999999999  0.04284000000000008  0.72616  1.0000
  H   H749      1.0  0.5612600000000001  0.006589999999999959  0.66051  1.0000
  H   H750      1.0  0.53781  0.016800000000000037  0.70337  1.0000
  H   H751      1.0  0.5955  0.17494  0.58222  1.0000
  H   H752      1.0  0.6230799999999999  0.13741  0.56438  1.0000
  H   H753      1.0  0.3346200000000002  0.48159  0.79346  1.0000
  H   H754      1.0  0.2711699999999999  0.54897  0.81237  1.0000
  H   H755      1.0  0.21259999999999993  0.6372300000000001  0.89645  1.0000
  H   H756      1.0  0.17338  0.69412  0.86237  1.0000
  H   H757      1.0  0.1858299999999999  0.7358  0.83676  1.0000
  H   H758      1.0  0.21743999999999997  0.65568  0.9508  1.0000
  H   H759      1.0  0.14951  0.75451  0.89164  1.0000
  H   H760      1.0  0.1370799999999999  0.7127800000000001  0.91718  1.0000
  H   H761      1.0  0.12313000000000003  0.82865  0.02552  1.0000
  H   H762      1.0  0.14066999999999982  0.8435099999999999  0.9752800000000001  1.0000
  H   H763      1.0  0.19835000000000005  0.8043799999999999  0.94299  1.0000
  H   H764      1.0  0.22623999999999994  0.76196  0.9688899999999999  1.0000
  H   H765      1.0  0.16017000000000006  0.7713  0.06094  1.0000
  H   H766      1.0  0.20307999999999984  0.7415800000000002  0.0375  1.0000
  H   H767      1.0  0.08221  0.64785  0.09552  1.0000
  H   H768      1.0  0.06472999999999994  0.6758400000000001  0.12275  1.0000
  C   C1        1.0  0.24109000000000005  0.71102  0.86247  1.0000
  C   C2        1.0  0.21730999999999995  0.7233200000000001  0.89823  1.0000
  C   C3        1.0  0.020380000000000006  0.83013  0.0006  1.0000
  C   C4        1.0  0.034030000000000005  0.79121  0.96737  1.0000
  C   C5        1.0  0.00672  0.77134  0.03605  1.0000
  C   C6        1.0  0.14559999999999998  0.65068  0.11537  1.0000
  C   C7        1.0  0.7112200000000001  0.24091999999999997  0.68482  1.0000
  C   C8        1.0  0.7231500000000001  0.21697000000000005  0.66095  1.0000
  C   C9        1.0  0.82969  0.02056999999999999  0.64904  1.0000
  C   C10       1.0  0.7909  0.033599999999999984  0.708  1.0000
  C   C11       1.0  0.7711100000000001  0.00655000000000002  0.6864  1.0000
  C   C12       1.0  0.6506600000000001  0.14573000000000003  0.5887  1.0000
  C   C13       1.0  0.18470999999999999  0.3630900000000001  0.21134  1.0000
  C   C14       1.0  0.16098  0.39888  0.22358  1.0000
  C   C15       1.0  0.14887999999999996  0.50057  0.33000000000000007  1.0000
  C   C16       1.0  0.20808  0.46717  0.29142  1.0000
  C   C17       1.0  0.18603999999999996  0.53593  0.2712  1.0000
  C   C18       1.0  0.08868999999999999  0.61534  0.15072  1.0000
  C   C19       1.0  0.3630199999999999  0.18513000000000004  0.74116  1.0000
  C   C20       1.0  0.3987699999999999  0.16105000000000003  0.71708  1.0000
  C   C21       1.0  0.50081  0.14883  0.52073  1.0000
  C   C22       1.0  0.4674299999999999  0.20796000000000003  0.53339  1.0000
  C   C23       1.0  0.5361700000000003  0.18624000000000002  0.50605  1.0000
  C   C24       1.0  0.6155300000000001  0.08853999999999995  0.64566  1.0000
  C   C25       1.0  0.18512999999999988  0.24114000000000008  0.86301  1.0000
  C   C26       1.0  0.16103999999999993  0.2171  0.89877  1.0000
  C   C27       1.0  0.1488  0.02069  0.0008800000000000001  1.0000
  C   C28       1.0  0.20789  0.03339999999999995  0.9674700000000002  1.0000
  C   C29       1.0  0.18622  0.00605  0.0362  1.0000
  C   C30       1.0  0.08851  0.14565000000000003  0.11553  1.0000
  C   C31       1.0  0.3630999999999999  0.71136  0.68472  1.0000
  C   C32       1.0  0.3989299999999999  0.7235300000000001  0.661  1.0000
  C   C33       1.0  0.50059  0.82999  0.6489  1.0000
  C   C34       1.0  0.4672200000000001  0.79139  0.70807  1.0000
  C   C35       1.0  0.5359899999999997  0.77118  0.68604  1.0000
  C   C36       1.0  0.61534  0.65076  0.5887  1.0000
  C   C37       1.0  0.24090000000000003  0.18482  0.21124  1.0000
  C   C38       1.0  0.21694999999999998  0.16096000000000002  0.22314  1.0000
  C   C39       1.0  0.020549999999999978  0.14902  0.32967  1.0000
  C   C40       1.0  0.03360999999999999  0.20794  0.29094  1.0000
  C   C41       1.0  0.006550000000000016  0.18641000000000002  0.27109  1.0000
  C   C42       1.0  0.14568000000000006  0.08869999999999999  0.1507  1.0000
  C   C43       1.0  0.71102  0.36247999999999997  0.74104  1.0000
  C   C44       1.0  0.7233  0.39824000000000004  0.71731  1.0000
  C   C45       1.0  0.83014  0.50064  0.52032  1.0000
  C   C46       1.0  0.7912099999999999  0.46743  0.53402  1.0000
  C   C47       1.0  0.7713499999999999  0.5361200000000003  0.50666  1.0000
  C   C48       1.0  0.65073  0.61536  0.64558  1.0000
  C   C49       1.0  0.71137  0.18466  0.86311  1.0000
  C   C50       1.0  0.7235599999999999  0.16097  0.89892  1.0000
  C   C51       1.0  0.8300400000000001  0.14889  0.00059  1.0000
  C   C52       1.0  0.79146  0.20802999999999996  0.96721  1.0000
  C   C53       1.0  0.7711699999999999  0.18607  0.03596  1.0000
  C   C54       1.0  0.6507100000000002  0.08867  0.11538999999999999  1.0000
  C   C55       1.0  0.24117000000000005  0.36302999999999996  0.68508  1.0000
  C   C56       1.0  0.2170800000000001  0.39879  0.66103  1.0000
  C   C57       1.0  0.02068999999999992  0.5008200000000002  0.64882  1.0000
  C   C58       1.0  0.033380000000000076  0.46746000000000004  0.70791  1.0000
  C   C59       1.0  0.006050000000000026  0.53619  0.68621  1.0000
  C   C60       1.0  0.14567999999999998  0.6155300000000001  0.58851  1.0000
  C   C61       1.0  0.3624700000000001  0.24108  0.21105  1.0000
  C   C62       1.0  0.39824999999999994  0.21733000000000002  0.2233  1.0000
  C   C63       1.0  0.50062  0.020329999999999997  0.33014  1.0000
  C   C64       1.0  0.46742  0.03401  0.29121  1.0000
  C   C65       1.0  0.53611  0.006689999999999997  0.27133  1.0000
  C   C66       1.0  0.61536  0.14559000000000005  0.15074  1.0000
  C   C67       1.0  0.18478  0.7112700000000001  0.74093  1.0000
  C   C68       1.0  0.16092000000000012  0.72317  0.71697  1.0000
  C   C69       1.0  0.14902999999999997  0.8297199999999999  0.52055  1.0000
  C   C70       1.0  0.20794999999999994  0.7909000000000004  0.5336  1.0000
  C   C71       1.0  0.18633999999999987  0.77113  0.50655  1.0000
  C   C72       1.0  0.08863000000000008  0.6506899999999999  0.64569  1.0000
  C   C73       1.0  0.7591000000000001  0.28876  0.31518  1.0000
  C   C74       1.0  0.7830500000000001  0.27685999999999994  0.33905  1.0000
  C   C75       1.0  0.9794200000000001  0.1703  0.35095  1.0000
  C   C76       1.0  0.96639  0.20912000000000006  0.29202  1.0000
  C   C77       1.0  0.99345  0.22886  0.31366  1.0000
  C   C78       1.0  0.8543300000000001  0.3492799999999999  0.41132  1.0000
  C   C79       1.0  0.2889899999999999  0.75895  0.13751  1.0000
  C   C80       1.0  0.2767200000000001  0.78268  0.10174  1.0000
  C   C81       1.0  0.16985999999999982  0.9796600000000001  0.9993700000000001  1.0000
  C   C82       1.0  0.20878999999999995  0.9659800000000001  0.03258  1.0000
  C   C83       1.0  0.22865000000000008  0.9933300000000002  0.9639  1.0000
  C   C84       1.0  0.3492600000000003  0.85444  0.88463  1.0000
  C   C85       1.0  0.8148600000000003  0.63697  0.25886  1.0000
  C   C86       1.0  0.8389600000000002  0.60122  0.2829  1.0000
  C   C87       1.0  0.8512  0.49914  0.47929000000000005  1.0000
  C   C88       1.0  0.7921100000000001  0.53254  0.46658999999999995  1.0000
  C   C89       1.0  0.81379  0.46380000000000005  0.49394999999999994  1.0000
  C   C90       1.0  0.91149  0.38447  0.35435  1.0000
  C   C91       1.0  0.6369  0.81528  0.78864  1.0000
  C   C92       1.0  0.6010600000000001  0.839  0.77647  1.0000
  C   C93       1.0  0.49939999999999984  0.8510900000000003  0.67001  1.0000
  C   C94       1.0  0.5327999999999998  0.7919200000000002  0.70859  1.0000
  C   C95       1.0  0.46402000000000004  0.81394  0.72882  1.0000
  C   C96       1.0  0.38467  0.9112900000000002  0.84925  1.0000
  C   C97       1.0  0.8152099999999997  0.7590500000000001  0.78876  1.0000
  C   C98       1.0  0.83908  0.783  0.77685  1.0000
  C   C99       1.0  0.8509799999999998  0.9794400000000001  0.67027  1.0000
  C   C100      1.0  0.79205  0.96639  0.70909  1.0000
  C   C101      1.0  0.8136499999999995  0.99344  0.72887  1.0000
  C   C102      1.0  0.91138  0.8542900000000001  0.84929  1.0000
  C   C103      1.0  0.63752  0.28897  0.25891  1.0000
  C   C104      1.0  0.60174  0.2767  0.28267  1.0000
  C   C105      1.0  0.4993700000000001  0.16984000000000005  0.47967999999999994  1.0000
  C   C106      1.0  0.5325800000000002  0.20878000000000002  0.46598  1.0000
  C   C107      1.0  0.46389  0.22866000000000003  0.49332000000000004  1.0000
  C   C108      1.0  0.3846300000000001  0.34925  0.35442  1.0000
  C   C109      1.0  0.7588200000000003  0.8149399999999999  0.13697  1.0000
  C   C110      1.0  0.7829200000000001  0.8389799999999998  0.10122  1.0000
  C   C111      1.0  0.97932  0.85118  0.99917  1.0000
  C   C112      1.0  0.96663  0.7920800000000001  0.03254  1.0000
  C   C113      1.0  0.9939499999999999  0.8137800000000001  0.96381  1.0000
  C   C114      1.0  0.85436  0.9115  0.88443  1.0000
  C   C115      1.0  0.28863999999999995  0.6368800000000001  0.31533  1.0000
  C   C116      1.0  0.2764400000000001  0.60108  0.33903  1.0000
  C   C117      1.0  0.16996  0.49942  0.35111  1.0000
  C   C118      1.0  0.20855999999999997  0.53278  0.29196  1.0000
  C   C119      1.0  0.2288  0.46402000000000004  0.31397  1.0000
  C   C120      1.0  0.34929  0.3846200000000001  0.41132  1.0000
  C   C121      1.0  0.2887900000000002  0.81518  0.25908  1.0000
  C   C122      1.0  0.27682999999999996  0.83905  0.28305  1.0000
  C   C123      1.0  0.1703100000000001  0.85095  0.47942  1.0000
  C   C124      1.0  0.20909000000000005  0.79201  0.4664  1.0000
  C   C125      1.0  0.22889  0.81359  0.49344  1.0000
  C   C126      1.0  0.34932  0.9113100000000001  0.35431  1.0000
  C   C127      1.0  0.75892  0.63753  0.78898  1.0000
  C   C128      1.0  0.78271  0.6017899999999999  0.77665  1.0000
  C   C129      1.0  0.97963  0.4994  0.66986  1.0000
  C   C130      1.0  0.9659700000000001  0.5326199999999999  0.70879  1.0000
  C   C131      1.0  0.9932900000000001  0.46393999999999996  0.72865  1.0000
  C   C132      1.0  0.85442  0.3846300000000002  0.84929  1.0000
  C   C133      1.0  0.6369799999999998  0.7588300000000003  0.31489  1.0000
  C   C134      1.0  0.60123  0.7829100000000001  0.33896  1.0000
  C   C135      1.0  0.4991500000000001  0.97929  0.35116  1.0000
  C   C136      1.0  0.5325899999999999  0.9666000000000001  0.29204  1.0000
  C   C137      1.0  0.46384999999999993  0.9939300000000001  0.31373  1.0000
  C   C138      1.0  0.3845099999999999  0.8543200000000001  0.41144  1.0000
  C   C139      1.0  0.81529  0.28865  0.13692  1.0000
  C   C140      1.0  0.83902  0.27644  0.10111  1.0000
  C   C141      1.0  0.85111  0.16998999999999997  0.9994699999999999  1.0000
  C   C142      1.0  0.7919  0.20862  0.0328  1.0000
  C   C143      1.0  0.81398  0.22878000000000012  0.9640499999999999  1.0000
  C   C144      1.0  0.9113099999999997  0.34928000000000003  0.88466  1.0000
  C   C145      1.0  0.75892  0.28898000000000007  0.13752  1.0000
  C   C146      1.0  0.78269  0.27667  0.10177  1.0000
  C   C147      1.0  0.9796200000000003  0.16986999999999997  0.9994099999999999  1.0000
  C   C148      1.0  0.9659699999999999  0.20879  0.03263  1.0000
  C   C149      1.0  0.9932900000000001  0.22865  0.96394  1.0000
  C   C150      1.0  0.8544499999999998  0.34926000000000007  0.88464  1.0000
  C   C151      1.0  0.28877  0.7590800000000001  0.31518  1.0000
  C   C152      1.0  0.2768499999999999  0.7830300000000002  0.33905  1.0000
  C   C153      1.0  0.17034000000000002  0.97941  0.35095  1.0000
  C   C154      1.0  0.20909999999999998  0.9664  0.292  1.0000
  C   C155      1.0  0.22888999999999993  0.99344  0.3136  1.0000
  C   C156      1.0  0.34933  0.85431  0.41131  1.0000
  C   C157      1.0  0.81529  0.63691  0.78866  1.0000
  C   C158      1.0  0.83902  0.60109  0.77645  1.0000
  C   C159      1.0  0.85111  0.49945  0.66999  1.0000
  C   C160      1.0  0.79191  0.53281  0.70859  1.0000
  C   C161      1.0  0.8139599999999999  0.46404000000000006  0.72881  1.0000
  C   C162      1.0  0.9113099999999996  0.3846500000000001  0.84929  1.0000
  C   C163      1.0  0.63698  0.8148799999999999  0.25883  1.0000
  C   C164      1.0  0.6012100000000002  0.83895  0.28291  1.0000
  C   C165      1.0  0.49918999999999986  0.8511600000000002  0.47927  1.0000
  C   C166      1.0  0.53256  0.79203  0.4666199999999999  1.0000
  C   C167      1.0  0.4638199999999999  0.81377  0.49394999999999994  1.0000
  C   C168      1.0  0.3845  0.91144  0.35432  1.0000
  C   C169      1.0  0.8148599999999999  0.7588700000000002  0.13699  1.0000
  C   C170      1.0  0.8389600000000002  0.7829  0.10122  1.0000
  C   C171      1.0  0.8511899999999999  0.9793000000000001  0.99914  1.0000
  C   C172      1.0  0.79209  0.9666000000000001  0.03254  1.0000
  C   C173      1.0  0.8137799999999992  0.9939600000000003  0.9638  1.0000
  C   C174      1.0  0.9114999999999999  0.8543300000000001  0.88447  1.0000
  C   C175      1.0  0.63691  0.28863  0.31528  1.0000
  C   C176      1.0  0.60108  0.27646  0.33899  1.0000
  C   C177      1.0  0.4994000000000001  0.17002000000000003  0.35109  1.0000
  C   C178      1.0  0.53278  0.20858000000000002  0.29195  1.0000
  C   C179      1.0  0.46402  0.22883000000000003  0.31393  1.0000
  C   C180      1.0  0.3846599999999999  0.34925  0.4113  1.0000
  C   C181      1.0  0.7591099999999998  0.81517  0.78874  1.0000
  C   C182      1.0  0.7830499999999997  0.8390299999999999  0.77686  1.0000
  C   C183      1.0  0.9794300000000001  0.85095  0.6703  1.0000
  C   C184      1.0  0.96639  0.79202  0.70912  1.0000
  C   C185      1.0  0.9934599999999998  0.8136400000000001  0.72888  1.0000
  C   C186      1.0  0.8543300000000006  0.9113200000000001  0.84928  1.0000
  C   C187      1.0  0.28897999999999996  0.63751  0.25896  1.0000
  C   C188      1.0  0.2767  0.60175  0.2827  1.0000
  C   C189      1.0  0.16987  0.49936  0.47965  1.0000
  C   C190      1.0  0.20880000000000007  0.53257  0.46598  1.0000
  C   C191      1.0  0.22865999999999992  0.46389  0.49333000000000005  1.0000
  C   C192      1.0  0.34926  0.38462000000000013  0.35444  1.0000
  C   C193      1.0  0.28862999999999994  0.8153300000000002  0.13689  1.0000
  C   C194      1.0  0.2764300000000002  0.8390199999999999  0.10108  1.0000
  C   C195      1.0  0.1699500000000001  0.8511099999999999  0.99942  1.0000
  C   C196      1.0  0.20857000000000003  0.79195  0.03278  1.0000
  C   C197      1.0  0.22880000000000006  0.81397  0.96402  1.0000
  C   C198      1.0  0.3492999999999999  0.9113200000000001  0.88463  1.0000
  C   C199      1.0  0.7588300000000001  0.63698  0.31493  1.0000
  C   C200      1.0  0.7829199999999998  0.6012200000000002  0.33897  1.0000
  C   C201      1.0  0.9793  0.49916  0.35118  1.0000
  C   C202      1.0  0.9666200000000001  0.53253  0.29208  1.0000
  C   C203      1.0  0.99396  0.46380000000000005  0.31379  1.0000
  C   C204      1.0  0.8543500000000002  0.38443999999999995  0.4115  1.0000
  C   C205      1.0  0.6375300000000002  0.7589099999999999  0.78894  1.0000
  C   C206      1.0  0.6017499999999999  0.7826700000000001  0.77668  1.0000
  C   C207      1.0  0.4993900000000001  0.97968  0.66983  1.0000
  C   C208      1.0  0.53259  0.96597  0.70878  1.0000
  C   C209      1.0  0.4638900000000001  0.99331  0.72865  1.0000
  C   C210      1.0  0.38463000000000014  0.8544099999999999  0.84926  1.0000
  C   C211      1.0  0.8152200000000001  0.28873  0.25908  1.0000
  C   C212      1.0  0.8390900000000001  0.27685  0.28301  1.0000
  C   C213      1.0  0.8509599999999998  0.17028000000000004  0.47946  1.0000
  C   C214      1.0  0.79204  0.2091  0.46639  1.0000
  C   C215      1.0  0.81365  0.22887000000000002  0.49344  1.0000
  C   C216      1.0  0.9113699999999999  0.34930000000000005  0.35429  1.0000
  C   C217      1.0  0.24089999999999995  0.71124  0.68482  1.0000
  C   C218      1.0  0.21696  0.72312  0.66096  1.0000
  C   C219      1.0  0.020549999999999905  0.8296800000000003  0.64903  1.0000
  C   C220      1.0  0.033610000000000084  0.7909199999999998  0.70796  1.0000
  C   C221      1.0  0.006550000000000016  0.7711  0.68639  1.0000
  C   C222      1.0  0.14565999999999998  0.65072  0.58868  1.0000
  C   C223      1.0  0.7110099999999999  0.24104999999999993  0.86248  1.0000
  C   C224      1.0  0.72329  0.21730999999999998  0.89824  1.0000
  C   C225      1.0  0.83015  0.02034  0.00062  1.0000
  C   C226      1.0  0.7912  0.034030000000000005  0.96743  1.0000
  C   C227      1.0  0.77135  0.006670000000000001  0.03612  1.0000
  C   C228      1.0  0.6507600000000001  0.14554  0.11539999999999999  1.0000
  C   C229      1.0  0.18513000000000004  0.36303  0.74114  1.0000
  C   C230      1.0  0.16104  0.3987800000000001  0.71708  1.0000
  C   C231      1.0  0.14880000000000002  0.50088  0.52068  1.0000
  C   C232      1.0  0.20789000000000005  0.46745999999999993  0.5334  1.0000
  C   C233      1.0  0.18622999999999987  0.5361900000000002  0.50604  1.0000
  C   C234      1.0  0.08853000000000001  0.61551  0.64566  1.0000
  C   C235      1.0  0.3630999999999999  0.18471999999999997  0.21136  1.0000
  C   C236      1.0  0.39893  0.16100000000000003  0.22353  1.0000
  C   C237      1.0  0.50058  0.14891999999999997  0.33000000000000007  1.0000
  C   C238      1.0  0.46721  0.20806000000000005  0.29141  1.0000
  C   C239      1.0  0.53597  0.18605000000000002  0.27119  1.0000
  C   C240      1.0  0.6153  0.08872999999999999  0.15072  1.0000
  C   C241      1.0  0.18478  0.24092  0.21127  1.0000
  C   C242      1.0  0.16091000000000003  0.21700000000000003  0.22314  1.0000
  C   C243      1.0  0.14904000000000006  0.02054  0.32973  1.0000
  C   C244      1.0  0.20795  0.03359999999999999  0.29091  1.0000
  C   C245      1.0  0.18633999999999998  0.006549999999999996  0.27113  1.0000
  C   C246      1.0  0.08864  0.14574  0.15067  1.0000
  C   C247      1.0  0.36247  0.71105  0.74108  1.0000
  C   C248      1.0  0.39824000000000004  0.72331  0.71733  1.0000
  C   C249      1.0  0.5006400000000001  0.83015  0.52031  1.0000
  C   C250      1.0  0.4674  0.79124  0.53402  1.0000
  C   C251      1.0  0.53609  0.7713200000000001  0.50669  1.0000
  C   C252      1.0  0.61536  0.6507200000000001  0.6456  1.0000
  C   C253      1.0  0.24117999999999992  0.18506999999999998  0.8630300000000001  1.0000
  C   C254      1.0  0.21707999999999994  0.16102999999999998  0.89877  1.0000
  C   C255      1.0  0.02067999999999998  0.14882000000000004  0.00084  1.0000
  C   C256      1.0  0.03338  0.20791000000000004  0.9674599999999999  1.0000
  C   C257      1.0  0.006050000000000005  0.18621  0.0362  1.0000
  C   C258      1.0  0.14565999999999998  0.08851000000000003  0.11554999999999999  1.0000
  C   C259      1.0  0.71137  0.36311  0.68466  1.0000
  C   C260      1.0  0.7235599999999999  0.3989200000000001  0.66097  1.0000
  C   C261      1.0  0.8300399999999999  0.5005900000000001  0.64888  1.0000
  C   C262      1.0  0.79145  0.46720000000000006  0.70804  1.0000
  C   C263      1.0  0.7711800000000001  0.53596  0.68605  1.0000
  C   C264      1.0  0.6507000000000001  0.61538  0.58868  1.0000
  C   C265      1.0  0.71121  0.18483000000000002  0.74093  1.0000
  C   C266      1.0  0.72314  0.16095  0.71697  1.0000
  C   C267      1.0  0.82967  0.14904999999999996  0.5205800000000002  1.0000
  C   C268      1.0  0.7909  0.20800000000000007  0.5336  1.0000
  C   C269      1.0  0.7711  0.18641  0.50655  1.0000
  C   C270      1.0  0.65068  0.0887  0.64571  1.0000
  C   C271      1.0  0.24108000000000002  0.36247000000000007  0.21102  1.0000
  C   C272      1.0  0.21732000000000004  0.39823000000000003  0.22332  1.0000
  C   C273      1.0  0.020359999999999875  0.5006000000000002  0.33013  1.0000
  C   C274      1.0  0.034030000000000005  0.46738  0.29121  1.0000
  C   C275      1.0  0.006699999999999952  0.53607  0.27135  1.0000
  C   C276      1.0  0.14556999999999998  0.61533  0.15074  1.0000
  C   C277      1.0  0.36302000000000006  0.24116999999999994  0.68512  1.0000
  C   C278      1.0  0.39877999999999986  0.21709000000000006  0.66104  1.0000
  C   C279      1.0  0.5008400000000002  0.020729999999999936  0.6488300000000001  1.0000
  C   C280      1.0  0.4674199999999999  0.03338999999999998  0.70795  1.0000
  C   C281      1.0  0.53616  0.006049999999999997  0.68627  1.0000
  C   C282      1.0  0.61554  0.14564000000000002  0.58853  1.0000
  C   C283      1.0  0.18470999999999993  0.7113500000000001  0.86309  1.0000
  C   C284      1.0  0.16097999999999996  0.7235599999999999  0.8989  1.0000
  C   C285      1.0  0.14889  0.83001  0.00055  1.0000
  C   C286      1.0  0.20808999999999991  0.79141  0.96719  1.0000
  C   C287      1.0  0.18604  0.7712  0.03595  1.0000
  C   C288      1.0  0.08869000000000003  0.65072  0.11537  1.0000
  C   C289      1.0  0.37301  0.49263  0.81691  1.0000
  C   C290      1.0  0.3584300000000001  0.53666  0.80235  1.0000
  C   C291      1.0  0.49263000000000007  0.373  0.81694  1.0000
  C   C292      1.0  0.53667  0.35841  0.80231  1.0000
  C   C293      1.0  0.31688  0.31682  0.99314  1.0000
  C   C294      1.0  0.3023  0.30231  0.03715  1.0000
  C   C295      1.0  0.31697  0.31695  0.87308  1.0000
  C   C296      1.0  0.30239  0.30233  0.85845  1.0000
  C   C297      1.0  0.31697  0.37307000000000007  0.81697  1.0000
  C   C298      1.0  0.3023799999999999  0.35845000000000016  0.80234  1.0000
  C   C299      1.0  0.3168599999999999  0.4931400000000001  0.81684  1.0000
  C   C300      1.0  0.3022599999999998  0.5371500000000002  0.80234  1.0000
  C   C301      1.0  0.3730100000000001  0.31693  0.99264  1.0000
  C   C302      1.0  0.35842  0.3023700000000001  0.03667  1.0000
  C   C303      1.0  0.49263  0.31692  0.873  1.0000
  C   C304      1.0  0.5366699999999999  0.3023200000000001  0.85841  1.0000
  C   C305      1.0  0.4930999999999999  0.31686000000000003  0.81685  1.0000
  C   C306      1.0  0.5371300000000001  0.30227000000000004  0.80227  1.0000
  C   C307      1.0  0.37311  0.3169600000000001  0.81695  1.0000
  C   C308      1.0  0.35851999999999995  0.30234000000000005  0.80232  1.0000
  C   C309      1.0  0.31693  0.37300999999999995  0.9926000000000001  1.0000
  C   C310      1.0  0.3023100000000001  0.35849  0.03664  1.0000
  C   C311      1.0  0.3169599999999999  0.49260000000000004  0.8730100000000001  1.0000
  C   C312      1.0  0.30234000000000005  0.53664  0.85849  1.0000
  C   C313      1.0  0.62699  0.50736  0.18307  1.0000
  C   C314      1.0  0.6415799999999999  0.46333  0.19762  1.0000
  C   C315      1.0  0.5073800000000002  0.627  0.18305  1.0000
  C   C316      1.0  0.46333  0.64158  0.19767  1.0000
  C   C317      1.0  0.68305  0.68302  0.12693  1.0000
  C   C318      1.0  0.69762  0.69766  0.14156  1.0000
  C   C319      1.0  0.68313  0.68317  0.00686  1.0000
  C   C320      1.0  0.6977200000000001  0.69768  0.96285  1.0000
  C   C321      1.0  0.68307  0.62699  0.007400000000000001  1.0000
  C   C322      1.0  0.6976799999999997  0.64152  0.9633700000000001  1.0000
  C   C323      1.0  0.68307  0.5074000000000001  0.12699  1.0000
  C   C324      1.0  0.6977099999999999  0.46337  0.14151  1.0000
  C   C325      1.0  0.6268899999999998  0.6830600000000002  0.18304  1.0000
  C   C326      1.0  0.64148  0.69767  0.19767  1.0000
  C   C327      1.0  0.5069  0.6831200000000001  0.18316  1.0000
  C   C328      1.0  0.46287999999999985  0.69771  0.19774  1.0000
  C   C329      1.0  0.50737  0.68309  0.127  1.0000
  C   C330      1.0  0.46333000000000013  0.6977  0.14159  1.0000
  C   C331      1.0  0.62699  0.68308  0.00737  1.0000
  C   C332      1.0  0.6415700000000002  0.69765  0.9633299999999999  1.0000
  C   C333      1.0  0.6830300000000001  0.6269300000000001  0.18305  1.0000
  C   C334      1.0  0.69763  0.64155  0.19767  1.0000
  C   C335      1.0  0.68312  0.50686  0.18318  1.0000
  C   C336      1.0  0.6977  0.46285  0.19769  1.0000
  C   C337      1.0  0.22414999999999996  0.65402  0.89752  1.0000
  C   C338      1.0  0.20046999999999984  0.6661900000000001  0.93322  1.0000
  C   C339      1.0  0.6539100000000001  0.22451999999999997  0.7245  1.0000
  C   C340      1.0  0.6656899999999999  0.2007  0.7007  1.0000
  C   C341      1.0  0.22417000000000004  0.39753  0.15402  1.0000
  C   C342      1.0  0.20044999999999996  0.43323000000000006  0.16619  1.0000
  C   C343      1.0  0.39787000000000017  0.22414999999999993  0.72416  1.0000
  C   C344      1.0  0.43353000000000014  0.20014999999999997  0.70018  1.0000
  C   C345      1.0  0.22416000000000005  0.22412  0.89787  1.0000
  C   C346      1.0  0.20016  0.20015999999999995  0.9335200000000001  1.0000
  C   C347      1.0  0.39752  0.6540300000000001  0.72416  1.0000
  C   C348      1.0  0.43323999999999996  0.6661500000000002  0.70049  1.0000
  C   C349      1.0  0.22447999999999996  0.22452000000000003  0.15395  1.0000
  C   C350      1.0  0.20069999999999982  0.2007  0.1657  1.0000
  C   C351      1.0  0.6540199999999999  0.39754000000000006  0.72412  1.0000
  C   C352      1.0  0.66616  0.4332500000000001  0.70046  1.0000
  C   C353      1.0  0.6540099999999999  0.22412000000000007  0.89754  1.0000
  C   C354      1.0  0.6661599999999998  0.20046999999999993  0.9332500000000001  1.0000
  C   C355      1.0  0.22416000000000008  0.39787  0.72411  1.0000
  C   C356      1.0  0.20014999999999994  0.4335300000000002  0.70016  1.0000
  C   C357      1.0  0.39752  0.22417  0.15403  1.0000
  C   C358      1.0  0.43324  0.20049  0.16616  1.0000
  C   C359      1.0  0.2244899999999999  0.6539500000000001  0.72452  1.0000
  C   C360      1.0  0.20068000000000003  0.6656900000000001  0.70072  1.0000
  C   C361      1.0  0.77551  0.34604000000000007  0.27549  1.0000
  C   C362      1.0  0.79931  0.33430000000000004  0.29929  1.0000
  C   C363      1.0  0.34598999999999996  0.7758800000000001  0.10245  1.0000
  C   C364      1.0  0.33385000000000015  0.7995400000000003  0.06674  1.0000
  C   C365      1.0  0.77583  0.60213  0.27589  1.0000
  C   C366      1.0  0.79983  0.56648  0.29984  1.0000
  C   C367      1.0  0.6024799999999999  0.77584  0.84596  1.0000
  C   C368      1.0  0.5667600000000002  0.79952  0.83384  1.0000
  C   C369      1.0  0.77548  0.7754999999999999  0.84605  1.0000
  C   C370      1.0  0.7992999999999999  0.7992900000000003  0.83431  1.0000
  C   C371      1.0  0.6024699999999998  0.34597000000000006  0.27585  1.0000
  C   C372      1.0  0.56676  0.33384000000000014  0.29952  1.0000
  C   C373      1.0  0.7758499999999998  0.7758700000000001  0.10214  1.0000
  C   C374      1.0  0.7998400000000001  0.79984  0.06648  1.0000
  C   C375      1.0  0.34599000000000024  0.60245  0.27587  1.0000
  C   C376      1.0  0.33384000000000014  0.56675  0.29952  1.0000
  C   C377      1.0  0.34607999999999994  0.7754700000000001  0.27551  1.0000
  C   C378      1.0  0.3343100000000003  0.7993  0.2993  1.0000
  C   C379      1.0  0.7758500000000003  0.6024599999999999  0.84598  1.0000
  C   C380      1.0  0.7995300000000001  0.56677  0.83381  1.0000
  C   C381      1.0  0.6021400000000001  0.77583  0.27586  1.0000
  C   C382      1.0  0.5664800000000001  0.7998099999999999  0.29985  1.0000
  C   C383      1.0  0.7758499999999999  0.3459800000000001  0.10247  1.0000
  C   C384      1.0  0.7995399999999999  0.33381  0.06678  1.0000
  I   I1        1.0  0.09882000000000005  0.69023  0.00768  1.0000
  I   I2        1.0  0.6895300000000002  0.09843999999999997  0.70455  1.0000
  I   I3        1.0  0.20439999999999994  0.50736  0.19005  1.0000
  I   I4        1.0  0.5079999999999999  0.20384000000000002  0.59817  1.0000
  I   I5        1.0  0.20385000000000006  0.0982  0.00795  1.0000
  I   I6        1.0  0.5073599999999999  0.69009  0.7044  1.0000
  I   I7        1.0  0.09839  0.20459999999999998  0.18954  1.0000
  I   I8        1.0  0.6902199999999998  0.50766  0.59881  1.0000
  I   I9        1.0  0.69006  0.20432  0.007499999999999999  1.0000
  I   I10       1.0  0.09813999999999999  0.5081  0.70378  1.0000
  I   I11       1.0  0.5077299999999999  0.09877000000000001  0.19023  1.0000
  I   I12       1.0  0.20451000000000003  0.6895500000000001  0.59838  1.0000
  I   I13       1.0  0.90159  0.31047  0.29541  1.0000
  I   I14       1.0  0.30976000000000004  0.9012  0.9923300000000002  1.0000
  I   I15       1.0  0.79615  0.49204000000000003  0.40181  1.0000
  I   I16       1.0  0.4926400000000002  0.7956100000000002  0.8099  1.0000
  I   I17       1.0  0.7955000000000002  0.9016099999999999  0.81044  1.0000
  I   I18       1.0  0.49224  0.30973  0.40128  1.0000
  I   I19       1.0  0.9018399999999999  0.7962199999999999  0.9919100000000001  1.0000
  I   I20       1.0  0.30995999999999996  0.49252000000000007  0.29567  1.0000
  I   I21       1.0  0.31049000000000004  0.79543  0.40158  1.0000
  I   I22       1.0  0.90118  0.49233  0.80978  1.0000
  I   I23       1.0  0.49199999999999994  0.9018  0.29615  1.0000
  I   I24       1.0  0.79561  0.30994000000000005  0.99263  1.0000
  I   I25       1.0  0.9011799999999998  0.30978000000000006  0.99234  1.0000
  I   I26       1.0  0.31049  0.9015800000000002  0.29544  1.0000
  I   I27       1.0  0.79563  0.49262000000000017  0.80991  1.0000
  I   I28       1.0  0.4919999999999998  0.7961700000000003  0.4018  1.0000
  I   I29       1.0  0.7961700000000002  0.90181  0.9920299999999999  1.0000
  I   I30       1.0  0.49263000000000007  0.30988999999999994  0.29561  1.0000
  I   I31       1.0  0.90161  0.7954400000000001  0.81044  1.0000
  I   I32       1.0  0.30978000000000006  0.49233  0.40117  1.0000
  I   I33       1.0  0.3099400000000001  0.7957  0.9924900000000001  1.0000
  I   I34       1.0  0.9018500000000002  0.4919  0.29623  1.0000
  I   I35       1.0  0.49226999999999993  0.90123  0.80975  1.0000
  I   I36       1.0  0.7955100000000002  0.31042000000000003  0.40163000000000004  1.0000
  I   I37       1.0  0.09839000000000005  0.68957  0.70457  1.0000
  I   I38       1.0  0.6902300000000002  0.09883000000000003  0.007669999999999999  1.0000
  I   I39       1.0  0.20386000000000004  0.50795  0.59819  1.0000
  I   I40       1.0  0.5073600000000003  0.20439  0.1901  1.0000
  I   I41       1.0  0.20452  0.09837999999999998  0.18956  1.0000
  I   I42       1.0  0.5077299999999998  0.6902700000000002  0.59875  1.0000
  I   I43       1.0  0.09815999999999998  0.20378  0.00809  1.0000
  I   I44       1.0  0.69007  0.5074900000000001  0.70428  1.0000
  I   I45       1.0  0.6894900000000002  0.20457  0.59846  1.0000
  I   I46       1.0  0.09882999999999997  0.50764  0.19022000000000003  1.0000
  I   I47       1.0  0.5080000000000001  0.09817  0.70384  1.0000
  I   I48       1.0  0.20438000000000003  0.69007  0.00739  1.0000
  I   I49       1.0  0.40147  0.40155  0.90154  1.0000
  I   I50       1.0  0.40182000000000023  0.40173999999999993  0.79403  1.0000
  I   I51       1.0  0.29403999999999997  0.40180000000000005  0.9018  1.0000
  I   I52       1.0  0.40181000000000006  0.29403000000000007  0.90174  1.0000
  I   I53       1.0  0.59817  0.59827  0.20597  1.0000
  I   I54       1.0  0.5985299999999998  0.59846  0.09845  1.0000
  I   I55       1.0  0.7059600000000001  0.5982  0.0982  1.0000
  I   I56       1.0  0.5982  0.70596  0.09826000000000001  1.0000
  I   I57       1.0  0.25448999999999994  0.73618  0.75456  1.0000
  I   I58       1.0  0.7362  0.25450000000000006  0.75451  1.0000
  I   I59       1.0  0.25448  0.25457  0.23617  1.0000
  I   I60       1.0  0.25493999999999994  0.25495000000000007  0.75494  1.0000
  I   I61       1.0  0.7455200000000001  0.26384  0.24543  1.0000
  I   I62       1.0  0.2638300000000001  0.7454799999999999  0.24549000000000004  1.0000
  I   I63       1.0  0.7450700000000001  0.74506  0.24506000000000003  1.0000
  I   I64       1.0  0.7455199999999998  0.7454300000000003  0.76382  1.0000
  I   I65       1.0  0.32633000000000023  0.6279000000000001  0.82626  1.0000
  I   I66       1.0  0.6278900000000002  0.32659  0.71896  1.0000
  I   I67       1.0  0.21898000000000004  0.32653000000000004  0.12791  1.0000
  I   I68       1.0  0.3266900000000002  0.21913  0.82672  1.0000
  I   I69       1.0  0.21909999999999996  0.32671  0.82671  1.0000
  I   I70       1.0  0.32657000000000014  0.62784  0.71903  1.0000
  I   I71       1.0  0.32657  0.21904  0.12785  1.0000
  I   I72       1.0  0.6279200000000001  0.32626999999999995  0.82627  1.0000
  I   I73       1.0  0.62788  0.21897000000000005  0.82659  1.0000
  I   I74       1.0  0.3267  0.32672  0.71912  1.0000
  I   I75       1.0  0.32632999999999995  0.32626  0.12791  1.0000
  I   I76       1.0  0.21897999999999998  0.6278900000000001  0.82655  1.0000
  I   I77       1.0  0.67343  0.37216000000000005  0.28095  1.0000
  I   I78       1.0  0.37208999999999975  0.67373  0.17373  1.0000
  I   I79       1.0  0.78088  0.67331  0.17331  1.0000
  I   I80       1.0  0.6734100000000001  0.7809700000000002  0.87215  1.0000
  I   I81       1.0  0.78103  0.67345  0.87209  1.0000
  I   I82       1.0  0.6736800000000002  0.37209  0.17373  1.0000
  I   I83       1.0  0.6732900000000002  0.78088  0.17328  1.0000
  I   I84       1.0  0.37210999999999994  0.67342  0.28102  1.0000
  I   I85       1.0  0.3721100000000001  0.781  0.17344  1.0000
  I   I86       1.0  0.6736800000000002  0.67374  0.87208  1.0000
  I   I87       1.0  0.6732800000000007  0.67328  0.2809  1.0000
  I   I88       1.0  0.78103  0.37210000000000004  0.17346  1.0000
  I   I89       1.0  0.12983999999999987  0.80093  0.9398600000000001  1.0000
  I   I90       1.0  0.08347999999999996  0.76505  0.06844  1.0000
  I   I91       1.0  0.80004  0.12972000000000003  0.6297200000000001  1.0000
  I   I92       1.0  0.76449  0.08356999999999998  0.58356  1.0000
  I   I93       1.0  0.12982000000000002  0.43987  0.30093  1.0000
  I   I94       1.0  0.08347  0.56846  0.26507  1.0000
  I   I95       1.0  0.44036000000000003  0.12962000000000004  0.62962  1.0000
  I   I96       1.0  0.5687400000000001  0.08318999999999999  0.58319  1.0000
  I   I97       1.0  0.12966999999999995  0.12960000000000002  0.94036  1.0000
  I   I98       1.0  0.08311999999999999  0.08323  0.06874  1.0000
  I   I99       1.0  0.4398300000000001  0.8008900000000001  0.62989  1.0000
  I   I100      1.0  0.56848  0.7650600000000001  0.58346  1.0000
  I   I101      1.0  0.12976000000000001  0.12979  0.30001  1.0000
  I   I102      1.0  0.08355000000000003  0.08351  0.26449  1.0000
  I   I103      1.0  0.8009300000000001  0.4398500000000001  0.62979  1.0000
  I   I104      1.0  0.7651100000000001  0.56844  0.58352  1.0000
  I   I105      1.0  0.8009400000000002  0.12980000000000003  0.93983  1.0000
  I   I106      1.0  0.7651399999999999  0.08351  0.06843  1.0000
  I   I107      1.0  0.12965  0.44036  0.6296  1.0000
  I   I108      1.0  0.0831099999999999  0.5687400000000001  0.58322  1.0000
  I   I109      1.0  0.43984999999999996  0.12987  0.30089  1.0000
  I   I110      1.0  0.56849  0.08347  0.26505  1.0000
  I   I111      1.0  0.12975  0.8  0.6298  1.0000
  I   I112      1.0  0.08355000000000007  0.7644900000000001  0.58351  1.0000
  I   I113      1.0  0.8702299999999997  0.19999  0.37022  1.0000
  I   I114      1.0  0.91645  0.23550000000000001  0.41649  1.0000
  I   I115      1.0  0.19906  0.8702  0.06015  1.0000
  I   I116      1.0  0.23487999999999995  0.9164900000000001  0.9315600000000002  1.0000
  I   I117      1.0  0.8703400000000001  0.55964  0.37041  1.0000
  I   I118      1.0  0.9168700000000001  0.4312500000000001  0.41677  1.0000
  I   I119      1.0  0.56017  0.8701100000000002  0.69909  1.0000
  I   I120      1.0  0.43153  0.91654  0.73493  1.0000
  I   I121      1.0  0.87025  0.8702  0.70001  1.0000
  I   I122      1.0  0.9164199999999999  0.9164800000000001  0.73551  1.0000
  I   I123      1.0  0.56017  0.19910000000000003  0.37012  1.0000
  I   I124      1.0  0.4315199999999999  0.23495  0.41653  1.0000
  I   I125      1.0  0.8703299999999999  0.8704100000000001  0.059640000000000006  1.0000
  I   I126      1.0  0.9168900000000004  0.91676  0.9312700000000002  1.0000
  I   I127      1.0  0.19907999999999995  0.56015  0.3702  1.0000
  I   I128      1.0  0.23486999999999997  0.43155000000000004  0.41649  1.0000
  I   I129      1.0  0.19990999999999992  0.87029  0.37028  1.0000
  I   I130      1.0  0.23549999999999996  0.9164400000000001  0.41646  1.0000
  I   I131      1.0  0.8701700000000006  0.56013  0.69907  1.0000
  I   I132      1.0  0.9165099999999999  0.4315599999999999  0.73494  1.0000
  I   I133      1.0  0.55961  0.87038  0.3704  1.0000
  I   I134      1.0  0.4312599999999999  0.9168  0.41682  1.0000
  I   I135      1.0  0.87018  0.19909  0.06013000000000001  1.0000
  I   I136      1.0  0.9165200000000002  0.23492999999999994  0.9315500000000001  1.0000
  N   N1        1.0  0.03388999999999995  0.79026  0.00236  1.0000
  N   N2        1.0  0.78984  0.03378999999999999  0.674  1.0000
  N   N3        1.0  0.17390999999999993  0.5021100000000001  0.29022  1.0000
  N   N4        1.0  0.5025000000000002  0.17393000000000006  0.53357  1.0000
  N   N5        1.0  0.17388  0.03356  0.0025500000000000006  1.0000
  N   N6        1.0  0.50217  0.7901999999999999  0.67391  1.0000
  N   N7        1.0  0.03378999999999997  0.17397000000000007  0.28983  1.0000
  N   N8        1.0  0.79026  0.50243  0.53385  1.0000
  N   N9        1.0  0.7902499999999999  0.17389000000000004  0.00215  1.0000
  N   N10       1.0  0.033550000000000024  0.50252  0.67389  1.0000
  N   N11       1.0  0.5024  0.03387  0.29026  1.0000
  N   N12       1.0  0.17395000000000002  0.7898599999999999  0.5337900000000001  1.0000
  N   N13       1.0  0.9661999999999997  0.21016  0.32603  1.0000
  N   N14       1.0  0.20974000000000015  0.9661399999999998  0.99758  1.0000
  N   N15       1.0  0.8261300000000001  0.49745  0.46643  1.0000
  N   N16       1.0  0.49784999999999974  0.8260700000000003  0.7098  1.0000
  N   N17       1.0  0.82605  0.9662100000000001  0.71013  1.0000
  N   N18       1.0  0.49758999999999987  0.20972000000000005  0.46614  1.0000
  N   N19       1.0  0.9664500000000001  0.82611  0.99748  1.0000
  N   N20       1.0  0.20975000000000002  0.49784000000000006  0.32611  1.0000
  N   N21       1.0  0.21016999999999983  0.8260000000000003  0.46620000000000006  1.0000
  N   N22       1.0  0.9661100000000001  0.4976300000000001  0.70974  1.0000
  N   N23       1.0  0.49750999999999995  0.9664200000000001  0.32606  1.0000
  N   N24       1.0  0.8260900000000002  0.2097900000000001  0.9978799999999999  1.0000
  N   N25       1.0  0.9661000000000001  0.20975  0.99764  1.0000
  N   N26       1.0  0.2101899999999999  0.96619  0.32599000000000006  1.0000
  N   N27       1.0  0.82608  0.4978700000000001  0.70978  1.0000
  N   N28       1.0  0.49749999999999994  0.8260700000000002  0.46643  1.0000
  N   N29       1.0  0.8261100000000002  0.96645  0.99745  1.0000
  N   N30       1.0  0.4978099999999999  0.20981000000000002  0.3261  1.0000
  N   N31       1.0  0.96622  0.82602  0.71016  1.0000
  N   N32       1.0  0.20975  0.49758  0.46614  1.0000
  N   N33       1.0  0.2097499999999999  0.82611  0.9978600000000001  1.0000
  N   N34       1.0  0.9664400000000001  0.49747  0.3261  1.0000
  N   N35       1.0  0.4976  0.9661300000000002  0.70971  1.0000
  N   N36       1.0  0.8260399999999998  0.2101300000000001  0.46620999999999996  1.0000
  N   N37       1.0  0.03377999999999999  0.7898300000000001  0.67398  1.0000
  N   N38       1.0  0.79026  0.03386  0.00242  1.0000
  N   N39       1.0  0.17388  0.50255  0.53355  1.0000
  N   N40       1.0  0.50216  0.17391  0.29021  1.0000
  N   N41       1.0  0.17394999999999994  0.03379  0.28986  1.0000
  N   N42       1.0  0.5023999999999998  0.79028  0.5338700000000001  1.0000
  N   N43       1.0  0.03355999999999997  0.17389000000000004  0.00252  1.0000
  N   N44       1.0  0.7902499999999999  0.50214  0.6739  1.0000
  N   N45       1.0  0.78981  0.17401999999999998  0.5337900000000001  1.0000
  N   N46       1.0  0.03389000000000003  0.50237  0.29026  1.0000
  N   N47       1.0  0.5024999999999998  0.033570000000000016  0.67394  1.0000
  N   N48       1.0  0.17392000000000002  0.79022  0.00211  1.0000
  N   N49       1.0  0.34047000000000005  0.47806999999999994  0.84044  1.0000
  N   N50       1.0  0.31612  0.55157  0.81619  1.0000
  N   N51       1.0  0.4780699999999999  0.34045999999999993  0.84046  1.0000
  N   N52       1.0  0.55157  0.31611  0.81611  1.0000
  N   N53       1.0  0.34047  0.34044  0.97806  1.0000
  N   N54       1.0  0.31612  0.31619  0.05158  1.0000
  N   N55       1.0  0.3405500000000003  0.34054  0.84055  1.0000
  N   N56       1.0  0.31622000000000006  0.31614  0.81614  1.0000
  N   N57       1.0  0.65953  0.5219299999999999  0.15956  1.0000
  N   N58       1.0  0.6838900000000002  0.44843  0.18381  1.0000
  N   N59       1.0  0.52194  0.65954  0.15954  1.0000
  N   N60       1.0  0.44843000000000005  0.68389  0.18389  1.0000
  N   N61       1.0  0.65945  0.6594600000000002  0.15947  1.0000
  N   N62       1.0  0.6837899999999999  0.6838500000000001  0.18386  1.0000
  N   N63       1.0  0.6595299999999998  0.6595600000000001  0.02193  1.0000
  N   N64       1.0  0.68388  0.6838200000000001  0.9484299999999999  1.0000
  N   N65       1.0  0.22455999999999995  0.6880200000000001  0.86243  1.0000
  N   N66       1.0  0.18500000000000005  0.70837  0.92214  1.0000
  N   N67       1.0  0.1226599999999999  0.6604500000000002  0.09467  1.0000
  N   N68       1.0  0.6881400000000001  0.22472999999999999  0.72473  1.0000
  N   N69       1.0  0.70785  0.1849  0.6849  1.0000
  N   N70       1.0  0.66006  0.12287000000000003  0.62287  1.0000
  N   N71       1.0  0.22457000000000005  0.36244  0.18802  1.0000
  N   N72       1.0  0.185  0.42213  0.20838  1.0000
  N   N73       1.0  0.12267000000000002  0.59461  0.16046  1.0000
  N   N74       1.0  0.36273000000000005  0.22486  0.72485  1.0000
  N   N75       1.0  0.42239  0.18471999999999997  0.68472  1.0000
  N   N76       1.0  0.59498  0.12230000000000003  0.6223  1.0000
  N   N77       1.0  0.22487  0.22481  0.86273  1.0000
  N   N78       1.0  0.18471999999999994  0.18473000000000003  0.92238  1.0000
  N   N79       1.0  0.12227000000000006  0.12224  0.09501  1.0000
  N   N80       1.0  0.36243000000000003  0.6880399999999999  0.72457  1.0000
  N   N81       1.0  0.4221600000000001  0.7083300000000001  0.68504  1.0000
  N   N82       1.0  0.59464  0.66051  0.62267  1.0000
  N   N83       1.0  0.22469999999999984  0.22473  0.18819  1.0000
  N   N84       1.0  0.18488000000000013  0.18491000000000002  0.20785  1.0000
  N   N85       1.0  0.12278  0.12285000000000001  0.16013  1.0000
  N   N86       1.0  0.6880199999999999  0.36245000000000005  0.72452  1.0000
  N   N87       1.0  0.70835  0.42216  0.685  1.0000
  N   N88       1.0  0.6605299999999998  0.59468  0.62259  1.0000
  N   N89       1.0  0.6880199999999997  0.22451000000000004  0.86245  1.0000
  N   N90       1.0  0.70835  0.18501  0.92216  1.0000
  N   N91       1.0  0.6605400000000001  0.12258000000000001  0.09471  1.0000
  N   N92       1.0  0.22487  0.36273000000000005  0.72482  1.0000
  N   N93       1.0  0.18471000000000004  0.42239  0.68472  1.0000
  N   N94       1.0  0.12227000000000006  0.595  0.62223  1.0000
  N   N95       1.0  0.36243  0.22457  0.18804  1.0000
  N   N96       1.0  0.42216000000000004  0.18503  0.20834  1.0000
  N   N97       1.0  0.59463  0.12268  0.16051  1.0000
  N   N98       1.0  0.22469999999999993  0.6881800000000002  0.72473  1.0000
  N   N99       1.0  0.18487999999999988  0.7078400000000002  0.68492  1.0000
  N   N100      1.0  0.12277999999999997  0.66012  0.62284  1.0000
  N   N101      1.0  0.7753  0.31181  0.27527  1.0000
  N   N102      1.0  0.81512  0.2921500000000001  0.31509  1.0000
  N   N103      1.0  0.87724  0.33986  0.37717  1.0000
  N   N104      1.0  0.31197999999999976  0.7754800000000002  0.13755  1.0000
  N   N105      1.0  0.29165000000000013  0.81499  0.07783  1.0000
  N   N106      1.0  0.33947  0.8774100000000001  0.90531  1.0000
  N   N107      1.0  0.7751200000000001  0.63727  0.27519  1.0000
  N   N108      1.0  0.81528  0.57761  0.31527  1.0000
  N   N109      1.0  0.8777300000000001  0.40498999999999996  0.37776  1.0000
  N   N110      1.0  0.6375700000000001  0.77543  0.81195  1.0000
  N   N111      1.0  0.57783  0.8149700000000001  0.79166  1.0000
  N   N112      1.0  0.40536000000000005  0.8773300000000002  0.83949  1.0000
  N   N113      1.0  0.7752899999999999  0.7752600000000001  0.81182  1.0000
  N   N114      1.0  0.81512  0.8150700000000001  0.79216  1.0000
  N   N115      1.0  0.87722  0.8771500000000001  0.83987  1.0000
  N   N116      1.0  0.63757  0.31196  0.27543  1.0000
  N   N117      1.0  0.57783  0.29166000000000003  0.31498  1.0000
  N   N118      1.0  0.40534000000000003  0.33948000000000006  0.37735  1.0000
  N   N119      1.0  0.7751200000000001  0.77519  0.13728  1.0000
  N   N120      1.0  0.81528  0.81527  0.07762  1.0000
  N   N121      1.0  0.8777500000000001  0.87776  0.90498  1.0000
  N   N122      1.0  0.3119799999999999  0.63754  0.27548  1.0000
  N   N123      1.0  0.29165  0.57784  0.31499  1.0000
  N   N124      1.0  0.33947  0.40530999999999995  0.37741  1.0000
  N   N125      1.0  0.31186  0.77527  0.27528  1.0000
  N   N126      1.0  0.29213999999999996  0.8151  0.3151  1.0000
  N   N127      1.0  0.33992999999999984  0.8771500000000003  0.37715  1.0000
  N   N128      1.0  0.77544  0.63756  0.81199  1.0000
  N   N129      1.0  0.8149999999999997  0.57786  0.79162  1.0000
  N   N130      1.0  0.87734  0.40534999999999993  0.83954  1.0000
  N   N131      1.0  0.6372699999999999  0.7751400000000002  0.27515  1.0000
  N   N132      1.0  0.5776199999999999  0.8152600000000003  0.31528  1.0000
  N   N133      1.0  0.4050599999999999  0.87768  0.37768  1.0000
  N   N134      1.0  0.77544  0.31198000000000004  0.13756  1.0000
  N   N135      1.0  0.815  0.29162000000000005  0.07787  1.0000
  N   N136      1.0  0.8773400000000001  0.33953999999999995  0.90537  1.0000
