data_image0
_chemical_formula_structural       Cd24Si12H192C336N192
_chemical_formula_sum              "Cd24 Si12 H192 C336 N192"
_cell_length_a       32.60663
_cell_length_b       32.60699000000001
_cell_length_c       32.60712
_cell_angle_alpha    109.47483999999999
_cell_angle_beta     109.48101
_cell_angle_gamma    109.48109

_space_group_name_H-M_alt    "P 1"
_space_group_IT_number       1

loop_
  _space_group_symop_operation_xyz
  'x, y, z'

loop_
  _atom_site_type_symbol
  _atom_site_label
  _atom_site_symmetry_multiplicity
  _atom_site_fract_x
  _atom_site_fract_y
  _atom_site_fract_z
  _atom_site_occupancy
  Cd  Cd1       1.0  0.60834  0.10833999999999996  0.60833  1.0000
  Cd  Cd2       1.0  0.10832000000000001  0.6083400000000002  0.10835  1.0000
  Cd  Cd3       1.0  0.49996  0.39158  0.99995  1.0000
  Cd  Cd4       1.0  0.0  0.0  0.5  1.0000
  Cd  Cd5       1.0  0.10841000000000008  0.5000400000000003  0.50002  1.0000
  Cd  Cd6       1.0  0.50004  0.60842  4.9999999999999996e-05  1.0000
  Cd  Cd7       1.0  0.5  0.5  0.5  1.0000
  Cd  Cd8       1.0  0.39166  0.89166  0.39166  1.0000
  Cd  Cd9       1.0  0.5  0.0  0.0  1.0000
  Cd  Cd10      1.0  0.8915899999999998  0.49995999999999996  0.49996999999999997  1.0000
  Cd  Cd11      1.0  0.6084100000000001  0.5000400000000003  0.50004  1.0000
  Cd  Cd12      1.0  0.9999699999999999  0.99996  0.39161  1.0000
  Cd  Cd13      1.0  0.39158999999999994  0.49996  0.49996  1.0000
  Cd  Cd14      1.0  0.0  0.5  0.5  1.0000
  Cd  Cd15      1.0  4.0000000000000986e-05  1.9999999999995987e-05  0.1084  1.0000
  Cd  Cd16      1.0  0.5  0.5  0.0  1.0000
  Cd  Cd17      1.0  3.0000000000009396e-05  4.000000000000642e-05  0.60839  1.0000
  Cd  Cd18      1.0  0.0  0.5  0.0  1.0000
  Cd  Cd19      1.0  0.5  0.0  0.5  1.0000
  Cd  Cd20      1.0  0.99996  0.9999800000000002  0.8916  1.0000
  Cd  Cd21      1.0  0.49996999999999997  0.89161  0.0  1.0000
  Cd  Cd22      1.0  0.8916799999999998  0.39166  0.89165  1.0000
  Cd  Cd23      1.0  0.0  0.0  0.0  1.0000
  Cd  Cd24      1.0  0.50003  0.10839  0.0  1.0000
  Si  Si1       1.0  0.8750000000000001  0.25002000000000013  0.12501  1.0000
  Si  Si2       1.0  0.74998  0.12501  0.37498  1.0000
  Si  Si3       1.0  0.24996999999999997  0.37498  0.12501  1.0000
  Si  Si4       1.0  0.75003  0.62502  0.87499  1.0000
  Si  Si5       1.0  0.2500299999999999  0.8749900000000002  0.62501  1.0000
  Si  Si6       1.0  0.1250199999999999  0.37499000000000005  0.7500299999999998  1.0000
  Si  Si7       1.0  0.12500000000000003  0.74997  0.87498  1.0000
  Si  Si8       1.0  0.6250099999999997  0.7500300000000002  0.37499  1.0000
  Si  Si9       1.0  0.37499000000000005  0.12501000000000007  0.25002  1.0000
  Si  Si10      1.0  0.8749799999999998  0.62501  0.24997  1.0000
  Si  Si11      1.0  0.6250099999999998  0.8749900000000003  0.74998  1.0000
  Si  Si12      1.0  0.37499  0.24997000000000005  0.62501  1.0000
  H   H1        1.0  0.45140999999999987  0.11656000000000004  0.40811  1.0000
  H   H2        1.0  0.8835699999999997  0.33492  0.29165  1.0000
  H   H3        1.0  0.024630000000000065  0.6417900000000002  0.23066  1.0000
  H   H4        1.0  0.85822  0.58881  0.38287  1.0000
  H   H5        1.0  0.5918999999999998  0.04858999999999995  0.38345999999999997  1.0000
  H   H6        1.0  0.16097000000000009  0.7265800000000002  0.79961  1.0000
  H   H7        1.0  0.20841999999999988  0.04327  0.09196  1.0000
  H   H8        1.0  0.72255  0.51927  0.84047  1.0000
  H   H9        1.0  0.45674999999999993  0.40806  0.79158  1.0000
  H   H10       1.0  0.8828199999999999  0.794  0.02461  1.0000
  H   H11       1.0  0.48053000000000007  0.20310000000000003  0.3211  1.0000
  H   H12       1.0  0.7003199999999998  0.92681  0.86114  1.0000
  H   H13       1.0  0.26934  0.8582000000000002  0.47537  1.0000
  H   H14       1.0  0.4513599999999999  0.33489  0.54329  1.0000
  H   H15       1.0  0.16510999999999992  0.95671  0.54862  1.0000
  H   H16       1.0  0.3390399999999999  0.20041  0.27344  1.0000
  H   H17       1.0  0.26944  0.41126  0.29409  1.0000
  H   H18       1.0  0.8818899999999997  0.7032100000000002  0.22247  1.0000
  H   H19       1.0  0.2915900000000001  0.9080400000000002  0.95673  1.0000
  H   H20       1.0  0.08880999999999999  0.88287  0.8582  1.0000
  H   H21       1.0  0.9805499999999999  0.3211200000000001  0.20313  1.0000
  H   H22       1.0  0.63886  0.5732000000000003  0.79969  1.0000
  H   H23       1.0  0.8611599999999998  0.20033000000000004  0.42680999999999997  1.0000
  H   H24       1.0  0.8211099999999999  0.7030999999999998  0.9805299999999999  1.0000
  H   H25       1.0  0.41124  0.26941  0.79406  1.0000
  H   H26       1.0  0.57304  0.93434  0.77351  1.0000
  H   H27       1.0  0.3391  0.13860000000000003  0.56564  1.0000
  H   H28       1.0  0.43432999999999994  0.16091  0.36136  1.0000
  H   H29       1.0  0.09194999999999999  0.7084  0.54325  1.0000
  H   H30       1.0  0.15945  0.38204  0.67872  1.0000
  H   H31       1.0  0.45670999999999995  0.048620000000000024  0.16511  1.0000
  H   H32       1.0  0.22253999999999993  0.84048  0.51927  1.0000
  H   H33       1.0  0.07319  0.29968  0.63883  1.0000
  H   H34       1.0  0.92698  0.22648  0.06566  1.0000
  H   H35       1.0  0.48073000000000005  0.2774500000000001  0.6595  1.0000
  H   H36       1.0  0.42683  0.36117  0.70032  1.0000
  H   H37       1.0  0.41119999999999995  0.14177000000000006  0.11712  1.0000
  H   H38       1.0  0.7996  0.66095  0.22656  1.0000
  H   H39       1.0  0.22656  0.2996  0.16096  1.0000
  H   H40       1.0  0.20599999999999993  0.11719000000000003  0.4754  1.0000
  H   H41       1.0  0.23067000000000007  0.5246400000000002  0.14182  1.0000
  H   H42       1.0  0.6179599999999997  0.8405500000000002  0.82131  1.0000
  H   H43       1.0  0.6787000000000001  0.6594700000000001  0.88206  1.0000
  H   H44       1.0  0.5919399999999998  0.54325  0.70843  1.0000
  H   H45       1.0  0.9080899999999997  0.61651  0.95139  1.0000
  H   H46       1.0  0.8390300000000002  0.27342  0.20038  1.0000
  H   H47       1.0  0.5656699999999999  0.83909  0.6386299999999999  1.0000
  H   H48       1.0  0.7694099999999998  0.29407  0.41123  1.0000
  H   H49       1.0  0.36114  0.42680000000000007  0.2003  1.0000
  H   H50       1.0  0.14178000000000004  0.4111800000000001  0.61713  1.0000
  H   H51       1.0  0.7031  0.8211000000000002  0.48052  1.0000
  H   H52       1.0  0.9111899999999998  0.11713  0.14179  1.0000
  H   H53       1.0  0.04326000000000002  0.20842000000000008  0.59193  1.0000
  H   H54       1.0  0.72659  0.16096  0.29961  1.0000
  H   H55       1.0  0.84049  0.22254  0.01925  1.0000
  H   H56       1.0  0.23059000000000004  0.70593  0.58876  1.0000
  H   H57       1.0  0.2083399999999999  0.1650599999999999  0.6164099999999999  1.0000
  H   H58       1.0  0.64178  0.024619999999999993  0.73062  1.0000
  H   H59       1.0  0.5887599999999997  0.73059  0.20594  1.0000
  H   H60       1.0  0.47538  0.7060100000000002  0.61719  1.0000
  H   H61       1.0  0.019270000000000016  0.34048  0.72254  1.0000
  H   H62       1.0  0.6595299999999997  0.98075  0.77745  1.0000
  H   H63       1.0  0.5432500000000001  0.5919400000000002  0.20842  1.0000
  H   H64       1.0  0.0486300000000001  0.45670000000000016  0.6651  1.0000
  H   H65       1.0  0.2031  0.48053000000000007  0.82111  1.0000
  H   H66       1.0  0.5485899999999998  0.8834400000000002  0.59189  1.0000
  H   H67       1.0  0.38288  0.35823  0.08879999999999999  1.0000
  H   H68       1.0  0.9112399999999999  0.79406  0.26941  1.0000
  H   H69       1.0  0.77754  0.6181  0.79676  1.0000
  H   H70       1.0  0.9567499999999999  0.7915800000000002  0.40806  1.0000
  H   H71       1.0  0.54329  0.9513800000000002  0.83488  1.0000
  H   H72       1.0  0.3819000000000001  0.22246000000000005  0.7032  1.0000
  H   H73       1.0  0.20592999999999995  0.08875  0.23059  1.0000
  H   H74       1.0  0.17888999999999994  0.2969  0.01946  1.0000
  H   H75       1.0  0.3834799999999999  0.09190000000000001  0.5486  1.0000
  H   H76       1.0  0.11714000000000002  0.91119  0.64178  1.0000
  H   H77       1.0  0.29962  0.22658000000000003  0.66097  1.0000
  H   H78       1.0  0.35823  0.38288  0.58882  1.0000
  H   H79       1.0  0.7735099999999998  0.07302000000000002  0.43432  1.0000
  H   H80       1.0  0.27745999999999976  0.48073  0.15953  1.0000
  H   H81       1.0  0.22649000000000005  0.9269700000000002  0.56567  1.0000
  H   H82       1.0  0.07301999999999993  0.7735199999999999  0.9343299999999999  1.0000
  H   H83       1.0  0.7060000000000001  0.47538  0.11717  1.0000
  H   H84       1.0  0.40805999999999987  0.45674  0.29157  1.0000
  H   H85       1.0  0.56571  0.7265200000000003  0.42699  1.0000
  H   H86       1.0  0.34053999999999995  0.32127  0.61795  1.0000
  H   H87       1.0  0.61712  0.64177  0.9112  1.0000
  H   H88       1.0  0.9807399999999998  0.65952  0.27745  1.0000
  H   H89       1.0  0.06569000000000005  0.42698000000000014  0.72651  1.0000
  H   H90       1.0  0.09191000000000002  0.3834900000000001  0.0486  1.0000
  H   H91       1.0  0.79166  0.8349300000000002  0.38359  1.0000
  H   H92       1.0  0.93431  0.57301  0.27349  1.0000
  H   H93       1.0  0.35822000000000004  0.9753800000000002  0.26938  1.0000
  H   H94       1.0  0.9080499999999999  0.2915900000000001  0.45675  1.0000
  H   H95       1.0  0.2940599999999999  0.7694  0.91125  1.0000
  H   H96       1.0  0.88287  0.08881000000000003  0.35821  1.0000
  H   H97       1.0  0.92681  0.70031  0.36116  1.0000
  H   H98       1.0  0.20319999999999996  0.7224600000000002  0.88191  1.0000
  H   H99       1.0  0.15950999999999999  0.77746  0.98075  1.0000
  H   H100      1.0  0.6651199999999998  0.54862  0.95671  1.0000
  H   H101      1.0  0.82129  0.11796000000000004  0.34054  1.0000
  H   H102      1.0  0.79967  0.13884  0.07317  1.0000
  H   H103      1.0  0.8614  0.66089  0.93434  1.0000
  H   H104      1.0  0.20040000000000002  0.33904  0.77344  1.0000
  H   H105      1.0  0.3349300000000001  0.8835900000000002  0.79166  1.0000
  H   H106      1.0  0.3348799999999999  0.45138000000000006  0.04329  1.0000
  H   H107      1.0  0.95669  0.16508000000000006  0.04862  1.0000
  H   H108      1.0  0.8349499999999995  0.79167  0.8836  1.0000
  H   H109      1.0  0.6650799999999998  0.11641  0.20834  1.0000
  H   H110      1.0  0.3213  0.34053  0.11794  1.0000
  H   H111      1.0  0.11811000000000003  0.2967900000000001  0.77753  1.0000
  H   H112      1.0  0.14178  0.73063  0.024619999999999996  1.0000
  H   H113      1.0  0.7734400000000001  0.7003900000000002  0.83904  1.0000
  H   H114      1.0  0.7969  0.5194700000000001  0.17887999999999998  1.0000
  H   H115      1.0  0.5194700000000001  0.7969000000000003  0.6789  1.0000
  H   H116      1.0  0.7693299999999998  0.47536  0.85818  1.0000
  H   H117      1.0  0.70038  0.77342  0.33903  1.0000
  H   H118      1.0  0.34047000000000005  0.019250000000000028  0.22255  1.0000
  H   H119      1.0  0.1165299999999999  0.45139  0.9080899999999997  1.0000
  H   H120      1.0  0.6171700000000002  0.9753900000000004  0.20601  1.0000
  H   H121      1.0  0.6609  0.8614  0.43436  1.0000
  H   H122      1.0  0.01945000000000006  0.6788700000000002  0.79686  1.0000
  H   H123      1.0  0.6165200000000001  0.9081000000000002  0.45139  1.0000
  H   H124      1.0  0.29968  0.07319000000000003  0.13886  1.0000
  H   H125      1.0  0.8820400000000002  0.17870000000000005  0.15945  1.0000
  H   H126      1.0  0.65946  0.6787200000000002  0.38204  1.0000
  H   H127      1.0  0.70832  0.6163900000000002  0.16506  1.0000
  H   H128      1.0  0.95137  0.54329  0.3349  1.0000
  H   H129      1.0  0.11796000000000001  0.82129  0.84055  1.0000
  H   H130      1.0  0.8405499999999998  0.61796  0.32128  1.0000
  H   H131      1.0  0.9753999999999998  0.61717  0.70597  1.0000
  H   H132      1.0  0.8390999999999996  0.56567  0.13861  1.0000
  H   H133      1.0  0.7306599999999998  0.14179  0.52462  1.0000
  H   H134      1.0  0.20033  0.86115  0.92682  1.0000
  H   H135      1.0  0.88347  0.5486  0.09191  1.0000
  H   H136      1.0  0.9753699999999998  0.35821000000000003  0.76933  1.0000
  H   H137      1.0  0.29167999999999994  0.38361  0.83494  1.0000
  H   H138      1.0  0.06565  0.63864  0.83909  1.0000
  H   H139      1.0  0.1787100000000001  0.8820400000000004  0.65945  1.0000
  H   H140      1.0  0.7059400000000001  0.23060000000000005  0.08875  1.0000
  H   H141      1.0  0.38204  0.15944000000000003  0.17867999999999998  1.0000
  H   H142      1.0  0.8349  0.043289999999999995  0.45137  1.0000
  H   H143      1.0  0.5887999999999998  0.85822  0.88288  1.0000
  H   H144      1.0  0.04859000000000007  0.5918900000000002  0.88345  1.0000
  H   H145      1.0  0.04331000000000004  0.83491  0.95137  1.0000
  H   H146      1.0  0.95141  0.40810000000000013  0.11654999999999999  1.0000
  H   H147      1.0  0.6788999999999997  0.01946  0.2969  1.0000
  H   H148      1.0  0.5192700000000001  0.7225500000000002  0.3405  1.0000
  H   H149      1.0  0.5246199999999999  0.29399  0.3828  1.0000
  H   H150      1.0  0.43429  0.27348  0.57301  1.0000
  H   H151      1.0  0.7940699999999998  0.91125  0.76941  1.0000
  H   H152      1.0  0.38283  0.024610000000000007  0.79399  1.0000
  H   H153      1.0  0.13884000000000007  0.79967  0.57319  1.0000
  H   H154      1.0  0.93435  0.36136  0.16091  1.0000
  H   H155      1.0  0.5486399999999998  0.66511  0.45671  1.0000
  H   H156      1.0  0.16091000000000003  0.43433  0.86139  1.0000
  H   H157      1.0  0.2734099999999999  0.83903  0.70038  1.0000
  H   H158      1.0  0.7967999999999997  0.27754  0.11809  1.0000
  H   H159      1.0  0.7224699999999996  0.20321  0.38189  1.0000
  H   H160      1.0  0.4269599999999999  0.06566000000000002  0.22648  1.0000
  H   H161      1.0  0.4080999999999999  0.9514099999999999  0.6165299999999999  1.0000
  H   H162      1.0  0.7774599999999998  0.15952  0.48073  1.0000
  H   H163      1.0  0.27349  0.4343100000000001  0.07301  1.0000
  H   H164      1.0  0.36139000000000016  0.9343400000000004  0.66091  1.0000
  H   H165      1.0  0.79158  0.9567199999999999  0.9080399999999998  1.0000
  H   H166      1.0  0.7265100000000001  0.5656900000000002  0.92698  1.0000
  H   H167      1.0  0.66096  0.7995900000000002  0.72656  1.0000
  H   H168      1.0  0.11643000000000002  0.66508  0.70834  1.0000
  H   H169      1.0  0.38362  0.29167999999999994  0.33494999999999997  1.0000
  H   H170      1.0  0.85822  0.26937  0.97537  1.0000
  H   H171      1.0  0.02460000000000001  0.38283  0.29402  1.0000
  H   H172      1.0  0.57317  0.63883  0.29968  1.0000
  H   H173      1.0  0.2967899999999999  0.11811000000000003  0.27754  1.0000
  H   H174      1.0  0.52464  0.23066  0.64179  1.0000
  H   H175      1.0  0.27753  0.79679  0.61811  1.0000
  H   H176      1.0  0.11718000000000003  0.20600000000000002  0.97538  1.0000
  H   H177      1.0  0.32109999999999983  0.9805300000000001  0.7031  1.0000
  H   H178      1.0  0.22247  0.38189  0.20323  1.0000
  H   H179      1.0  0.7305600000000001  0.58874  0.7059  1.0000
  H   H180      1.0  0.6181000000000002  0.7775300000000003  0.29679  1.0000
  H   H181      1.0  0.47537  0.7693300000000002  0.35819999999999996  1.0000
  H   H182      1.0  0.64177  0.61712  0.41117  1.0000
  H   H183      1.0  0.294  0.52461  0.88282  1.0000
  H   H184      1.0  0.61638  0.70832  0.66505  1.0000
  H   H185      1.0  0.794  0.88281  0.5246  1.0000
  H   H186      1.0  0.2969100000000001  0.17889  0.51947  1.0000
  H   H187      1.0  0.6386099999999998  0.06566  0.33909  1.0000
  H   H188      1.0  0.7032100000000001  0.8818900000000002  0.72245  1.0000
  H   H189      1.0  0.70841  0.09195  0.04326  1.0000
  H   H190      1.0  0.13861  0.3391  0.06566  1.0000
  H   H191      1.0  0.08875999999999998  0.20593999999999996  0.73059  1.0000
  H   H192      1.0  0.16505  0.20833000000000002  0.1164  1.0000
  C   C1        1.0  0.63262  0.5602  0.72826  1.0000
  C   C2        1.0  0.73691  0.60211  0.77783  1.0000
  C   C3        1.0  0.42304  0.08224  0.20247  1.0000
  C   C4        1.0  0.60211  0.7369100000000002  0.27785  1.0000
  C   C5        1.0  0.77176  0.83192  0.4043399999999999  1.0000
  C   C6        1.0  0.63684  0.04328999999999999  0.20163  1.0000
  C   C7        1.0  0.22215  0.76308  0.89789  1.0000
  C   C8        1.0  0.7974799999999999  0.7205200000000003  0.87965  1.0000
  C   C9        1.0  0.4567099999999999  0.15829000000000004  0.59352  1.0000
  C   C10       1.0  0.29321999999999987  0.90623  0.69453  1.0000
  C   C11       1.0  0.54777  0.63138  0.14808  1.0000
  C   C12       1.0  0.1411900000000001  0.9144500000000002  0.62522  1.0000
  C   C13       1.0  0.90647  0.5647400000000002  0.3632  1.0000
  C   C14       1.0  0.8519299999999999  0.95225  0.86862  1.0000
  C   C15       1.0  0.21184999999999998  0.80547  0.59877  1.0000
  C   C16       1.0  0.5647300000000001  0.9064600000000003  0.86319  1.0000
  C   C17       1.0  0.8797  0.58223  0.15915  1.0000
  C   C18       1.0  0.4398  0.36738  0.77173  1.0000
  C   C19       1.0  0.5647899999999998  0.65831  0.20162  1.0000
  C   C20       1.0  0.28918999999999995  0.4144  0.27323  1.0000
  C   C21       1.0  0.41778  0.12031000000000006  0.34084  1.0000
  C   C22       1.0  0.28920000000000007  0.8747900000000002  0.516  1.0000
  C   C23       1.0  0.40621999999999997  0.19453000000000006  0.29321  1.0000
  C   C24       1.0  0.77948  0.62034  0.20251  1.0000
  C   C25       1.0  0.09352000000000009  0.6582800000000002  0.95669  1.0000
  C   C26       1.0  0.7778799999999998  0.54106  0.17582999999999996  1.0000
  C   C27       1.0  0.58554  0.8747900000000001  0.8588199999999999  1.0000
  C   C28       1.0  0.30547  0.09877  0.21185  1.0000
  C   C29       1.0  0.59564  0.72823  0.66807  1.0000
  C   C30       1.0  0.40435  0.13257000000000005  0.57242  1.0000
  C   C31       1.0  0.38693  0.09371000000000003  0.28825  1.0000
  C   C32       1.0  0.48335  0.35192  0.39971  1.0000
  C   C33       1.0  0.60025  0.5835900000000003  0.9522299999999999  1.0000
  C   C34       1.0  0.85877  0.77318  0.98398  1.0000
  C   C35       1.0  0.95901  0.6348200000000003  0.23684  1.0000
  C   C36       1.0  0.6252100000000002  0.9839900000000005  0.71078  1.0000
  C   C37       1.0  0.85881  0.08554999999999995  0.37477999999999995  1.0000
  C   C38       1.0  0.36518  0.040990000000000006  0.26316  1.0000
  C   C39       1.0  0.63257  0.07242  0.4043399999999999  1.0000
  C   C40       1.0  0.41642000000000007  0.39976  0.54778  1.0000
  C   C41       1.0  0.57241  0.90433  0.63256  1.0000
  C   C42       1.0  0.58359  0.98332  0.63139  1.0000
  C   C43       1.0  0.92759  0.36743  0.09566  1.0000
  C   C44       1.0  0.9143899999999999  0.77321  0.28919  1.0000
  C   C45       1.0  0.9275599999999998  0.56014  0.33194  1.0000
  C   C46       1.0  0.09876999999999987  0.30546999999999996  0.7118299999999999  1.0000
  C   C47       1.0  0.51665  0.64808  0.60029  1.0000
  C   C48       1.0  0.45224  0.36862  0.85192  1.0000
  C   C49       1.0  0.6582999999999998  0.5647699999999999  0.7015999999999999  1.0000
  C   C50       1.0  0.85191  0.8997199999999999  0.48335  1.0000
  C   C51       1.0  0.77785  0.23692  0.1021  1.0000
  C   C52       1.0  0.92304  0.20247000000000004  0.08223999999999998  1.0000
  C   C53       1.0  0.57245  0.6680499999999999  0.43984999999999996  1.0000
  C   C54       1.0  0.35882000000000003  0.37480000000000013  0.08555  1.0000
  C   C55       1.0  0.78918  0.27322  0.41437999999999997  1.0000
  C   C56       1.0  0.40646999999999994  0.3632100000000001  0.56475  1.0000
  C   C57       1.0  0.8978900000000003  0.7221500000000002  0.26309  1.0000
  C   C58       1.0  0.65829  0.09351  0.45669  1.0000
  C   C59       1.0  0.22826  0.060210000000000014  0.13263  1.0000
  C   C60       1.0  0.90434  0.57242  0.13257  1.0000
  C   C61       1.0  0.8054700000000001  0.5937700000000002  0.20676999999999998  1.0000
  C   C62       1.0  0.6680599999999999  0.5724299999999999  0.9398599999999999  1.0000
  C   C63       1.0  0.39975000000000005  0.41641  0.04775999999999998  1.0000
  C   C64       1.0  0.36860000000000004  0.9164000000000002  0.51667  1.0000
  C   C65       1.0  0.5770400000000002  0.65925  0.27951  1.0000
  C   C66       1.0  0.90648  0.34172000000000013  0.043309999999999994  1.0000
  C   C67       1.0  0.40123999999999993  0.2881600000000001  0.69453  1.0000
  C   C68       1.0  0.11307999999999999  0.4013  0.70676  1.0000
  C   C69       1.0  0.43986  0.07244  0.16805  1.0000
  C   C70       1.0  0.5477600000000001  0.9163900000000003  0.8997399999999999  1.0000
  C   C71       1.0  0.33192  0.90434  0.77176  1.0000
  C   C72       1.0  0.9398500000000001  0.16804000000000005  0.07244  1.0000
  C   C73       1.0  0.5935299999999998  0.63679  0.43524  1.0000
  C   C74       1.0  0.6313699999999998  0.5477500000000002  0.64806  1.0000
  C   C75       1.0  0.8997  0.85191  0.9833399999999999  1.0000
  C   C76       1.0  0.65915  0.08221999999999997  0.37969  1.0000
  C   C77       1.0  0.7983799999999999  0.8631500000000002  0.4567  1.0000
  C   C78       1.0  0.7932499999999998  0.09870999999999998  0.38693  1.0000
  C   C79       1.0  0.37478999999999996  0.016010000000000028  0.28922  1.0000
  C   C80       1.0  0.40628000000000003  0.21174000000000007  0.61305  1.0000
  C   C81       1.0  0.09371999999999997  0.38692999999999994  0.7882599999999998  1.0000
  C   C82       1.0  0.8416899999999999  0.2984000000000001  0.43521  1.0000
  C   C83       1.0  0.26316  0.86518  0.541  1.0000
  C   C84       1.0  0.48333  0.13139  0.5836  1.0000
  C   C85       1.0  0.2717400000000001  0.86737  0.93979  1.0000
  C   C86       1.0  0.79323  0.69453  0.90623  1.0000
  C   C87       1.0  0.09377999999999999  0.70678  0.80546  1.0000
  C   C88       1.0  0.07704999999999991  0.27951999999999994  0.6592599999999998  1.0000
  C   C89       1.0  0.7891999999999999  0.5159900000000002  0.87477  1.0000
  C   C90       1.0  0.33194  0.42756  0.06014  1.0000
  C   C91       1.0  0.86863  0.35193000000000013  0.4522399999999999  1.0000
  C   C92       1.0  0.4275499999999999  0.33194  0.56015  1.0000
  C   C93       1.0  0.5987599999999998  0.71183  0.30547  1.0000
  C   C94       1.0  0.9589499999999997  0.3241700000000001  0.22213  1.0000
  C   C95       1.0  0.7067899999999998  0.09376999999999998  0.30547  1.0000
  C   C96       1.0  0.08360000000000002  0.4522300000000001  0.60025  1.0000
  C   C97       1.0  0.8631499999999998  0.79838  0.95671  1.0000
  C   C98       1.0  0.29839000000000004  0.8416800000000001  0.9352099999999999  1.0000
  C   C99       1.0  0.56014  0.92756  0.83194  1.0000
  C   C100      1.0  0.7221099999999998  0.82416  0.45893  1.0000
  C   C101      1.0  0.8997599999999999  0.04776999999999999  0.41641  1.0000
  C   C102      1.0  0.95224  0.10025  0.08361  1.0000
  C   C103      1.0  0.65927  0.57706  0.77951  1.0000
  C   C104      1.0  0.2778899999999999  0.17584000000000005  0.54106  1.0000
  C   C105      1.0  0.17583  0.27788  0.04105  1.0000
  C   C106      1.0  0.7717399999999996  0.9397900000000002  0.86736  1.0000
  C   C107      1.0  0.92295  0.72048  0.34073999999999993  1.0000
  C   C108      1.0  0.45901  0.23683000000000007  0.63481  1.0000
  C   C109      1.0  0.15927000000000008  0.7795100000000003  0.57705  1.0000
  C   C110      1.0  0.48399  0.27317  0.35877  1.0000
  C   C111      1.0  0.4840099999999999  0.21078999999999992  0.6252099999999999  1.0000
  C   C112      1.0  0.35877999999999993  0.9839800000000002  0.77317  1.0000
  C   C113      1.0  0.41774000000000006  0.2975100000000001  0.57695  1.0000
  C   C114      1.0  0.3408500000000002  0.9177800000000004  0.6203  1.0000
  C   C115      1.0  0.39788999999999997  0.26309000000000005  0.7221499999999998  1.0000
  C   C116      1.0  0.17578  0.8979800000000001  0.6348  1.0000
  C   C117      1.0  0.93527  0.13680000000000006  0.09355  1.0000
  C   C118      1.0  0.6757699999999998  0.6348  0.89799  1.0000
  C   C119      1.0  0.86737  0.2717400000000001  0.43979  1.0000
  C   C120      1.0  0.4229599999999999  0.34074  0.72048  1.0000
  C   C121      1.0  0.71081  0.5856  0.72677  1.0000
  C   C122      1.0  0.60028  0.01666  0.1481  1.0000
  C   C123      1.0  0.09567000000000009  0.6680800000000002  0.72823  1.0000
  C   C124      1.0  0.8869200000000002  0.5987000000000002  0.29323  1.0000
  C   C125      1.0  0.7108  0.12520999999999993  0.4839999999999999  1.0000
  C   C126      1.0  0.13263000000000008  0.7282600000000002  0.5602  1.0000
  C   C127      1.0  0.08221000000000003  0.65916  0.87969  1.0000
  C   C128      1.0  0.9567000000000001  0.3631600000000001  0.29839  1.0000
  C   C129      1.0  0.36317  0.9567100000000002  0.79837  1.0000
  C   C130      1.0  0.09566  0.42758000000000007  0.8674199999999999  1.0000
  C   C131      1.0  0.27318  0.4839900000000001  0.85877  1.0000
  C   C132      1.0  0.01666000000000003  0.6002900000000002  0.64808  1.0000
  C   C133      1.0  0.5769699999999999  0.91776  0.7975299999999999  1.0000
  C   C134      1.0  0.8408499999999999  0.62029  0.9177699999999999  1.0000
  C   C135      1.0  0.22678  0.0856  0.21082  1.0000
  C   C136      1.0  0.27322  0.78918  0.91439  1.0000
  C   C137      1.0  0.7204900000000001  0.9229400000000002  0.84072  1.0000
  C   C138      1.0  0.9062199999999998  0.29322  0.19453  1.0000
  C   C139      1.0  0.34171000000000007  0.4352300000000001  0.2984  1.0000
  C   C140      1.0  0.10202000000000004  0.8242300000000001  0.8652  1.0000
  C   C141      1.0  0.84073  0.22049  0.42294  1.0000
  C   C142      1.0  0.0602  0.22827  0.63261  1.0000
  C   C143      1.0  0.7024800000000001  0.5822500000000003  0.9230499999999999  1.0000
  C   C144      1.0  0.8319499999999997  0.06014  0.42756  1.0000
  C   C145      1.0  0.13481999999999997  0.73684  0.95901  1.0000
  C   C146      1.0  0.01667999999999995  0.41640999999999995  0.8685899999999999  1.0000
  C   C147      1.0  0.13258  0.40436  0.07243  1.0000
  C   C148      1.0  0.27951  0.07704999999999998  0.15927999999999998  1.0000
  C   C149      1.0  0.6252100000000002  0.6411800000000002  0.41443  1.0000
  C   C150      1.0  0.70161  0.5432800000000002  0.13683  1.0000
  C   C151      1.0  0.77322  0.9143900000000001  0.7891799999999999  1.0000
  C   C152      1.0  0.7630899999999997  0.22216  0.39789  1.0000
  C   C153      1.0  0.91775  0.57695  0.29751  1.0000
  C   C154      1.0  0.72051  0.79747  0.37964  1.0000
  C   C155      1.0  0.15830000000000005  0.4567100000000001  0.09353  1.0000
  C   C156      1.0  0.86518  0.2631600000000001  0.04099  1.0000
  C   C157      1.0  0.8241699999999997  0.7221100000000001  0.9589399999999999  1.0000
  C   C158      1.0  0.64808  0.51665  0.10028  1.0000
  C   C159      1.0  0.64118  0.6252  0.91445  1.0000
  C   C160      1.0  0.6202900000000001  0.8408500000000002  0.41779  1.0000
  C   C161      1.0  0.16805000000000012  0.9398600000000003  0.57244  1.0000
  C   C162      1.0  0.14122999999999994  0.22682  0.01601  1.0000
  C   C163      1.0  0.0836100000000001  0.6314000000000002  0.98333  1.0000
  C   C164      1.0  0.7731699999999999  0.85876  0.48398  1.0000
  C   C165      1.0  0.6368000000000001  0.5935200000000003  0.93526  1.0000
  C   C166      1.0  0.04777  0.14808000000000004  0.63138  1.0000
  C   C167      1.0  0.3242300000000001  0.36520000000000014  0.10201  1.0000
  C   C168      1.0  0.9567  0.59351  0.1583  1.0000
  C   C169      1.0  0.22682999999999995  0.14124  0.51602  1.0000
  C   C170      1.0  0.12521  0.41444  0.64118  1.0000
  C   C171      1.0  0.13137  0.64806  0.54776  1.0000
  C   C172      1.0  0.12036000000000008  0.7025300000000002  0.77948  1.0000
  C   C173      1.0  0.4164099999999999  0.016680000000000018  0.36861  1.0000
  C   C174      1.0  0.04330000000000003  0.40649  0.8417  1.0000
  C   C175      1.0  0.72215  0.8978900000000002  0.76307  1.0000
  C   C176      1.0  0.4275900000000001  0.09567000000000005  0.36744  1.0000
  C   C177      1.0  0.62035  0.7794700000000002  0.7025199999999999  1.0000
  C   C178      1.0  0.5410600000000001  0.7778800000000002  0.67584  1.0000
  C   C179      1.0  0.70676  0.61308  0.9013  1.0000
  C   C180      1.0  0.07695999999999996  0.79753  0.91775  1.0000
  C   C181      1.0  0.3796599999999999  0.22052  0.29747  1.0000
  C   C182      1.0  0.1348  0.39798  0.67578  1.0000
  C   C183      1.0  0.3747899999999999  0.35882  0.58556  1.0000
  C   C184      1.0  0.37971  0.15915  0.58221  1.0000
  C   C185      1.0  0.04099000000000004  0.3651800000000001  0.76316  1.0000
  C   C186      1.0  0.6130899999999998  0.70676  0.40129999999999993  1.0000
  C   C187      1.0  0.1583099999999999  0.7016  0.56478  1.0000
  C   C188      1.0  0.61307  0.90629  0.71174  1.0000
  C   C189      1.0  0.67584  0.04105  0.27789  1.0000
  C   C190      1.0  0.43521000000000004  0.3416900000000002  0.79838  1.0000
  C   C191      1.0  0.20248000000000008  0.9230400000000002  0.58224  1.0000
  C   C192      1.0  0.13685  0.20162  0.04328  1.0000
  C   C193      1.0  0.91445  0.14118  0.12522  1.0000
  C   C194      1.0  0.3979899999999999  0.13479  0.17576  1.0000
  C   C195      1.0  0.08560999999999999  0.22678  0.71081  1.0000
  C   C196      1.0  0.9164  0.54777  0.39974999999999994  1.0000
  C   C197      1.0  0.22051999999999994  0.37965  0.79748  1.0000
  C   C198      1.0  0.2016199999999999  0.13685  0.54329  1.0000
  C   C199      1.0  0.72682  0.51601  0.14122  1.0000
  C   C200      1.0  0.7975199999999996  0.07695999999999999  0.41775  1.0000
  C   C201      1.0  0.8651999999999999  0.60201  0.32421999999999995  1.0000
  C   C202      1.0  0.23690999999999998  0.7778399999999999  0.6021099999999999  1.0000
  C   C203      1.0  0.29839  0.45672  0.86316  1.0000
  C   C204      1.0  0.6314  0.08359999999999998  0.48332  1.0000
  C   C205      1.0  0.59351  0.9566900000000003  0.65828  1.0000
  C   C206      1.0  0.1003  0.14809  0.01666  1.0000
  C   C207      1.0  0.5160100000000001  0.7268200000000002  0.6412299999999999  1.0000
  C   C208      1.0  0.29752  0.41775  0.07695  1.0000
  C   C209      1.0  0.016000000000000066  0.3747900000000001  0.7892  1.0000
  C   C210      1.0  0.40436  0.27177  0.33193  1.0000
  C   C211      1.0  0.14807000000000003  0.04775000000000003  0.13137  1.0000
  C   C212      1.0  0.6348100000000001  0.6757800000000003  0.39798  1.0000
  C   C213      1.0  0.93522  0.79838  0.34169  1.0000
  C   C214      1.0  0.5432699999999998  0.70161  0.63683  1.0000
  C   C215      1.0  0.8319300000000001  0.7717600000000002  0.9043499999999999  1.0000
  C   C216      1.0  0.9833399999999999  0.39971  0.35190999999999995  1.0000
  C   C217      1.0  0.7795099999999998  0.15927  0.07704  1.0000
  C   C218      1.0  0.70161  0.15831000000000006  0.06479  1.0000
  C   C219      1.0  0.41445999999999994  0.12521  0.14118  1.0000
  C   C220      1.0  0.9839699999999999  0.3587700000000001  0.27318  1.0000
  C   C221      1.0  0.29323999999999995  0.3869200000000001  0.0987  1.0000
  C   C222      1.0  0.06473000000000004  0.8632000000000002  0.9064499999999999  1.0000
  C   C223      1.0  0.1314  0.48333  0.0836  1.0000
  C   C224      1.0  0.36743  0.9275800000000002  0.59566  1.0000
  C   C225      1.0  0.016029999999999968  0.64122  0.72681  1.0000
  C   C226      1.0  0.9012299999999998  0.69453  0.28816  1.0000
  C   C227      1.0  0.54099  0.7631600000000002  0.36519  1.0000
  C   C228      1.0  0.34171  0.90648  0.5433  1.0000
  C   C229      1.0  0.11306000000000002  0.71175  0.90629  1.0000
  C   C230      1.0  0.4064899999999999  0.04331  0.34172  1.0000
  C   C231      1.0  0.90433  0.33192  0.27176  1.0000
  C   C232      1.0  0.5856199999999998  0.7108200000000002  0.22678999999999996  1.0000
  C   C233      1.0  0.20251999999999995  0.27948  0.12034999999999997  1.0000
  C   C234      1.0  0.69453  0.9012300000000001  0.7881399999999998  1.0000
  C   C235      1.0  0.6680799999999998  0.09565999999999998  0.22824  1.0000
  C   C236      1.0  0.87479  0.58556  0.35881  1.0000
  C   C237      1.0  0.27176999999999996  0.40436  0.83193  1.0000
  C   C238      1.0  0.70254  0.12035  0.27949  1.0000
  C   C239      1.0  0.35191999999999996  0.4833500000000001  0.89971  1.0000
  C   C240      1.0  0.40129  0.11307000000000002  0.20674999999999996  1.0000
  C   C241      1.0  0.7631600000000001  0.5409900000000002  0.86517  1.0000
  C   C242      1.0  0.07244  0.43985000000000013  0.66805  1.0000
  C   C243      1.0  0.80547  0.21185000000000007  0.09876  1.0000
  C   C244      1.0  0.21080000000000002  0.4840100000000001  0.12523  1.0000
  C   C245      1.0  0.04776000000000007  0.8997400000000002  0.91639  1.0000
  C   C246      1.0  0.27949  0.2025300000000001  0.62036  1.0000
  C   C247      1.0  0.12521  0.7107800000000002  0.98399  1.0000
  C   C248      1.0  0.15914999999999996  0.37971000000000005  0.08223  1.0000
  C   C249      1.0  0.54329  0.84171  0.40647  1.0000
  C   C250      1.0  0.07241  0.63256  0.90433  1.0000
  C   C251      1.0  0.7117399999999998  0.11306  0.40628  1.0000
  C   C252      1.0  0.45894  0.22212  0.32416  1.0000
  C   C253      1.0  0.10211000000000008  0.2778500000000001  0.73691  1.0000
  C   C254      1.0  0.29745999999999995  0.8796500000000002  0.7205099999999999  1.0000
  C   C255      1.0  0.3632  0.4064800000000001  0.06473  1.0000
  C   C256      1.0  0.06478000000000005  0.2016100000000001  0.6583  1.0000
  C   C257      1.0  0.9062799999999998  0.61307  0.21174  1.0000
  C   C258      1.0  0.14809  0.10028  0.51665  1.0000
  C   C259      1.0  0.8417  0.54329  0.90647  1.0000
  C   C260      1.0  0.51599  0.7892000000000001  0.37477999999999995  1.0000
  C   C261      1.0  0.3407299999999999  0.42294  0.22047999999999998  1.0000
  C   C262      1.0  0.78826  0.59371  0.88693  1.0000
  C   C263      1.0  0.5601999999999998  0.63262  0.22827  1.0000
  C   C264      1.0  0.20676999999999995  0.30547  0.09377  1.0000
  C   C265      1.0  0.4143800000000001  0.28918000000000005  0.7732099999999998  1.0000
  C   C266      1.0  0.64122  0.01602  0.22683  1.0000
  C   C267      1.0  0.20674999999999988  0.90129  0.61307  1.0000
  C   C268      1.0  0.9839999999999999  0.62521  0.2108  1.0000
  C   C269      1.0  0.22211999999999998  0.4589400000000001  0.82417  1.0000
  C   C270      1.0  0.0986999999999999  0.79325  0.88692  1.0000
  C   C271      1.0  0.26309  0.39789  0.22216  1.0000
  C   C272      1.0  0.86742  0.59564  0.92757  1.0000
  C   C273      1.0  0.5835800000000001  0.6002400000000002  0.45221  1.0000
  C   C274      1.0  0.8979899999999997  0.17577  0.1348  1.0000
  C   C275      1.0  0.58223  0.87969  0.65915  1.0000
  C   C276      1.0  0.9013  0.20674999999999996  0.11306999999999999  1.0000
  C   C277      1.0  0.8869399999999997  0.28825  0.09371  1.0000
  C   C278      1.0  0.1945300000000001  0.4062300000000001  0.79323  1.0000
  C   C279      1.0  0.060149999999999926  0.83196  0.92755  1.0000
  C   C280      1.0  0.3997199999999999  0.9833400000000001  0.8518999999999999  1.0000
  C   C281      1.0  0.28825999999999985  0.8869299999999999  0.59371  1.0000
  C   C282      1.0  0.36737999999999993  0.43980000000000014  0.27173  1.0000
  C   C283      1.0  0.28815  0.40121999999999997  0.19453  1.0000
  C   C284      1.0  0.95223  0.8519200000000002  0.36861999999999995  1.0000
  C   C285      1.0  0.36862999999999985  0.45225000000000004  0.35192999999999997  1.0000
  C   C286      1.0  0.58226  0.70249  0.42305  1.0000
  C   C287      1.0  0.9163900000000001  0.3686  0.01667  1.0000
  C   C288      1.0  0.20160999999999993  0.06478  0.15831  1.0000
  C   C289      1.0  0.35193  0.8686300000000002  0.95224  1.0000
  C   C290      1.0  0.59372  0.7882600000000002  0.38695  1.0000
  C   C291      1.0  0.1945300000000001  0.7881500000000002  0.90124  1.0000
  C   C292      1.0  0.21082  0.7267800000000002  0.58561  1.0000
  C   C293      1.0  0.87479  0.28921000000000013  0.016  1.0000
  C   C294      1.0  0.30547  0.20677  0.59377  1.0000
  C   C295      1.0  0.22049  0.84073  0.92296  1.0000
  C   C296      1.0  0.72823  0.59564  0.16807  1.0000
  C   C297      1.0  0.23684  0.459  0.13483  1.0000
  C   C298      1.0  0.8631999999999999  0.06473999999999999  0.40646  1.0000
  C   C299      1.0  0.27785  0.10211000000000002  0.23692  1.0000
  C   C300      1.0  0.60201  0.8652000000000002  0.8242299999999999  1.0000
  C   C301      1.0  0.4522499999999999  0.08361000000000003  0.10025  1.0000
  C   C302      1.0  0.041059999999999874  0.67583  0.7778699999999997  1.0000
  C   C303      1.0  0.3241600000000001  0.9589400000000002  0.72211  1.0000
  C   C304      1.0  0.63482  0.95901  0.73683  1.0000
  C   C305      1.0  0.8686  0.51667  0.91639  1.0000
  C   C306      1.0  0.12030000000000002  0.41777  0.84084  1.0000
  C   C307      1.0  0.7282599999999999  0.13263  0.0602  1.0000
  C   C308      1.0  0.3652000000000001  0.3242200000000001  0.60201  1.0000
  C   C309      1.0  0.5956500000000001  0.8674300000000004  0.42758  1.0000
  C   C310      1.0  0.13680000000000012  0.9352600000000001  0.59354  1.0000
  C   C311      1.0  0.51667  0.8686  0.4164  1.0000
  C   C312      1.0  0.21173999999999998  0.4062800000000001  0.11306999999999999  1.0000
  C   C313      1.0  0.043300000000000005  0.63684  0.70161  1.0000
  C   C314      1.0  0.7983899999999998  0.9352200000000003  0.84168  1.0000
  C   C315      1.0  0.43527  0.09354  0.1368  1.0000
  C   C316      1.0  0.69453  0.7932200000000003  0.40622  1.0000
  C   C317      1.0  0.87964  0.29747  0.22052  1.0000
  C   C318      1.0  0.09352999999999999  0.43525  0.6368  1.0000
  C   C319      1.0  0.3869099999999999  0.2932300000000001  0.5987  1.0000
  C   C320      1.0  0.9397999999999997  0.77173  0.36738  1.0000
  C   C321      1.0  0.6480699999999998  0.13137000000000004  0.04775999999999998  1.0000
  C   C322      1.0  0.1002500000000001  0.9522200000000002  0.58359  1.0000
  C   C323      1.0  0.08225000000000009  0.4230500000000001  0.70249  1.0000
  C   C324      1.0  0.78815  0.19453000000000006  0.40122  1.0000
  C   C325      1.0  0.72678  0.21082000000000006  0.08561  1.0000
  C   C326      1.0  0.5987099999999999  0.8869299999999999  0.7932499999999999  1.0000
  C   C327      1.0  0.82423  0.10201999999999994  0.36519999999999997  1.0000
  C   C328      1.0  0.59378  0.80547  0.70679  1.0000
  C   C329      1.0  0.08555000000000001  0.85881  0.87477  1.0000
  C   C330      1.0  0.22823999999999994  0.16808000000000006  0.59566  1.0000
  C   C331      1.0  0.91779  0.34084  0.1203  1.0000
  C   C332      1.0  0.73684  0.13482  0.459  1.0000
  C   C333      1.0  0.16807000000000002  0.22823000000000007  0.09564999999999999  1.0000
  C   C334      1.0  0.98332  0.5835800000000002  0.1314  1.0000
  C   C335      1.0  0.4567299999999999  0.29839  0.36316  1.0000
  C   C336      1.0  0.71185  0.59878  0.80547  1.0000
  N   N1        1.0  0.8787  0.96378  0.91692  1.0000
  N   N2        1.0  0.4484000000000001  0.44807  0.52291  1.0000
  N   N3        1.0  0.5337900000000002  0.15285000000000007  0.61102  1.0000
  N   N4        1.0  0.54753  0.95741  0.07408  1.0000
  N   N5        1.0  0.57489  0.50038  0.05201  1.0000
  N   N6        1.0  0.03822999999999995  0.45316  0.9169  1.0000
  N   N7        1.0  0.4524999999999999  0.4098900000000001  0.02654  1.0000
  N   N8        1.0  0.8786300000000001  0.91491  0.46178  1.0000
  N   N9        1.0  0.45818000000000003  0.34716000000000014  0.88089  1.0000
  N   N10       1.0  0.92594  0.9524700000000003  0.5426  1.0000
  N   N11       1.0  0.036259999999999994  0.12130999999999995  0.58309  1.0000
  N   N12       1.0  0.03378000000000001  0.6110100000000002  0.15288  1.0000
  N   N13       1.0  0.9771100000000001  0.9251300000000002  0.42546999999999996  1.0000
  N   N14       1.0  0.9617699999999999  0.4149100000000001  0.37862  1.0000
  N   N15       1.0  0.57721  0.96621  0.11907  1.0000
  N   N16       1.0  0.9617699999999998  0.54684  0.08309  1.0000
  N   N17       1.0  0.61672  0.09015999999999999  0.54261  1.0000
  N   N18       1.0  0.46176000000000006  0.3786200000000001  0.41487  1.0000
  N   N19       1.0  0.53824  0.62138  0.58512  1.0000
  N   N20       1.0  0.59009  0.54748  0.47342999999999996  1.0000
  N   N21       1.0  0.9480799999999998  0.02292000000000001  0.44841  1.0000
  N   N22       1.0  0.95819  0.0772  0.11099  1.0000
  N   N23       1.0  0.34710999999999986  0.88899  0.46621  1.0000
  N   N24       1.0  0.4771499999999999  0.42548  0.92514  1.0000
  N   N25       1.0  0.047550000000000016  0.07406000000000001  0.95741  1.0000
  N   N26       1.0  0.45740999999999987  0.57405  0.54753  1.0000
  N   N27       1.0  0.9662199999999997  0.38898  0.84712  1.0000
  N   N28       1.0  0.041780000000000005  0.11908000000000007  0.65282  1.0000
  N   N29       1.0  0.6110399999999998  0.03378000000000002  0.65285  1.0000
  N   N30       1.0  0.45315999999999995  0.41496000000000016  0.53623  1.0000
  N   N31       1.0  0.8889899999999998  0.3471100000000001  0.9662  1.0000
  N   N32       1.0  0.5228499999999998  0.57452  0.07486  1.0000
  N   N33       1.0  0.57485  0.07451  0.02286  1.0000
  N   N34       1.0  0.9255  0.4251499999999999  0.47713999999999995  1.0000
  N   N35       1.0  0.02651999999999998  0.95249  0.90988  1.0000
  N   N36       1.0  0.38097000000000003  0.5338  0.92279  1.0000
  N   N37       1.0  0.58511  0.038239999999999996  0.12138  1.0000
  N   N38       1.0  0.5519999999999999  0.00037000000000000157  0.07491  1.0000
  N   N39       1.0  0.8833099999999998  0.45739  0.90983  1.0000
  N   N40       1.0  0.96379  0.08506  0.046849999999999996  1.0000
  N   N41       1.0  0.15281  0.61908  0.54178  1.0000
  N   N42       1.0  0.11668999999999997  0.54261  0.09016  1.0000
  N   N43       1.0  0.45317  0.038219999999999976  0.41691  1.0000
  N   N44       1.0  0.3786999999999999  0.91692  0.96378  1.0000
  N   N45       1.0  0.42511000000000004  0.4996200000000001  0.94799  1.0000
  N   N46       1.0  0.91498  0.03625  0.45317  1.0000
  N   N47       1.0  0.07723  0.11905000000000002  0.96621  1.0000
  N   N48       1.0  0.5515999999999998  0.5519300000000003  0.47709  1.0000
  N   N49       1.0  0.07450000000000001  0.57485  0.52286  1.0000
  N   N50       1.0  0.59018  0.04261  0.61669  1.0000
  N   N51       1.0  0.58308  0.046869999999999995  0.46177  1.0000
  N   N52       1.0  0.08307000000000005  0.6213000000000002  0.53622  1.0000
  N   N53       1.0  0.3786300000000001  0.4617700000000001  0.91488  1.0000
  N   N54       1.0  0.08512  0.12137000000000003  0.03823  1.0000
  N   N55       1.0  0.041809999999999986  0.9228000000000002  0.8890099999999999  1.0000
  N   N56       1.0  0.88092  0.95823  0.84718  1.0000
  N   N57       1.0  0.94838  0.52288  0.44805  1.0000
  N   N58       1.0  0.9259199999999999  0.9735300000000001  0.88334  1.0000
  N   N59       1.0  0.57453  0.05166  0.49966  1.0000
  N   N60       1.0  0.02649  0.07409  0.61667  1.0000
  N   N61       1.0  0.46177000000000007  0.08307999999999999  0.54684  1.0000
  N   N62       1.0  0.07720000000000003  0.95818  0.61098  1.0000
  N   N63       1.0  0.61669  0.5265200000000002  0.57409  1.0000
  N   N64       1.0  0.38331  0.4734800000000001  0.42590999999999996  1.0000
  N   N65       1.0  0.5228499999999999  0.9483500000000002  0.94803  1.0000
  N   N66       1.0  0.042590000000000024  0.4524600000000001  0.42594  1.0000
  N   N67       1.0  0.40991  0.45252  0.52656  1.0000
  N   N68       1.0  0.57408  0.11666000000000003  0.02649  1.0000
  N   N69       1.0  0.4574  0.88332  0.40982999999999997  1.0000
  N   N70       1.0  0.5003799999999998  0.5749  0.55201  1.0000
  N   N71       1.0  0.42549000000000003  0.4771600000000001  0.42516  1.0000
  N   N72       1.0  0.5850199999999999  0.5468299999999999  0.9637599999999998  1.0000
  N   N73       1.0  0.95741  0.54754  0.57406  1.0000
  N   N74       1.0  0.11908000000000002  0.04177000000000003  0.15282  1.0000
  N   N75       1.0  0.97348  0.04751  0.09012  1.0000
  N   N76       1.0  0.02287000000000002  0.9480400000000001  0.9483699999999999  1.0000
  N   N77       1.0  0.4771499999999999  0.05164000000000001  0.05197  1.0000
  N   N78       1.0  0.54684  0.58504  0.46377  1.0000
  N   N79       1.0  0.4734399999999999  0.09010000000000001  0.04748  1.0000
  N   N80       1.0  0.38902999999999993  0.4228100000000002  0.54184  1.0000
  N   N81       1.0  0.047500000000000056  0.9734500000000003  0.5901  1.0000
  N   N82       1.0  0.88095  0.92278  0.53379  1.0000
  N   N83       1.0  0.9574  0.40983000000000014  0.88328  1.0000
  N   N84       1.0  0.53823  0.9169100000000001  0.45315  1.0000
  N   N85       1.0  0.04689000000000002  0.58307  0.96178  1.0000
  N   N86       1.0  0.07452000000000004  0.4996500000000001  0.05164  1.0000
  N   N87       1.0  0.95251  0.02655  0.4099  1.0000
  N   N88       1.0  0.08503000000000005  0.9637500000000002  0.54683  1.0000
  N   N89       1.0  0.11101  0.65289  0.0338  1.0000
  N   N90       1.0  0.8890399999999998  0.54186  0.42282999999999993  1.0000
  N   N91       1.0  0.9251499999999998  0.97716  0.92549  1.0000
  N   N92       1.0  0.61908  0.15281  0.04179  1.0000
  N   N93       1.0  0.97351  0.9259099999999999  0.38333  1.0000
  N   N94       1.0  0.9479799999999998  0.9251000000000003  0.99963  1.0000
  N   N95       1.0  0.57451  0.52283  0.57484  1.0000
  N   N96       1.0  0.42279  0.03379000000000001  0.88093  1.0000
  N   N97       1.0  0.5426  0.11668  0.59017  1.0000
  N   N98       1.0  0.5519199999999997  0.55159  0.9770899999999999  1.0000
  N   N99       1.0  0.90983  0.38328  0.95738  1.0000
  N   N100      1.0  0.04687000000000005  0.4638100000000001  0.58507  1.0000
  N   N101      1.0  0.3809199999999999  0.84718  0.95821  1.0000
  N   N102      1.0  0.5425899999999998  0.42594999999999994  0.45246999999999993  1.0000
  N   N103      1.0  0.46620999999999985  0.84714  0.38898  1.0000
  N   N104      1.0  0.4259599999999999  0.54259  0.95247  1.0000
  N   N105      1.0  0.9099099999999999  0.5265700000000002  0.45252  1.0000
  N   N106      1.0  0.94832  0.4254700000000001  0.00033  1.0000
  N   N107      1.0  0.84714  0.46621  0.88898  1.0000
  N   N108      1.0  0.4581399999999999  0.11096  0.07716  1.0000
  N   N109      1.0  0.40982000000000013  0.9573900000000002  0.3833  1.0000
  N   N110      1.0  0.95311  0.4169200000000001  0.03822  1.0000
  N   N111      1.0  0.05161999999999998  0.47712  0.55195  1.0000
  N   N112      1.0  0.52656  0.9099  0.9525199999999999  1.0000
  N   N113      1.0  0.41692  0.95313  0.53822  1.0000
  N   N114      1.0  0.00037000000000002157  0.55199  0.5749  1.0000
  N   N115      1.0  0.65285  0.5418300000000003  0.6190899999999999  1.0000
  N   N116      1.0  0.6528899999999997  0.11101  0.53378  1.0000
  N   N117      1.0  0.09017  0.61671  0.04262  1.0000
  N   N118      1.0  0.15287  0.53379  0.11102  1.0000
  N   N119      1.0  0.08309000000000002  0.4617700000000001  0.046849999999999996  1.0000
  N   N120      1.0  0.07485  0.02284  0.07451  1.0000
  N   N121      1.0  0.11904999999999995  0.07721999999999997  0.46619999999999995  1.0000
  N   N122      1.0  0.9169300000000001  0.3787000000000001  0.46378  1.0000
  N   N123      1.0  0.57404  0.45741  0.04753  1.0000
  N   N124      1.0  0.61097  0.57718  0.45814999999999995  1.0000
  N   N125      1.0  0.5361700000000001  0.9531100000000002  0.91491  1.0000
  N   N126      1.0  0.46620000000000006  0.61903  0.5772  1.0000
  N   N127      1.0  0.448  0.9996300000000001  0.92509  1.0000
  N   N128      1.0  0.38895999999999986  0.9662200000000001  0.34714  1.0000
  N   N129      1.0  0.49962000000000006  0.42509000000000013  0.44799  1.0000
  N   N130      1.0  0.54683  0.9617800000000001  0.58309  1.0000
  N   N131      1.0  0.41498  0.45317000000000013  0.03624  1.0000
  N   N132      1.0  0.5338  0.38096000000000013  0.4228  1.0000
  N   N133      1.0  0.0003500000000000771  0.44835000000000014  0.92546  1.0000
  N   N134      1.0  0.036220000000000044  0.9149400000000002  0.95314  1.0000
  N   N135      1.0  0.5361900000000002  0.5830800000000004  0.1213  1.0000
  N   N136      1.0  0.05201999999999998  0.07489  0.00037  1.0000
  N   N137      1.0  0.41694  0.4638300000000001  0.37872  1.0000
  N   N138      1.0  0.9169199999999997  0.5382299999999999  0.9531499999999999  1.0000
  N   N139      1.0  0.95313  0.53619  0.41493  1.0000
  N   N140      1.0  0.9771299999999998  0.05196000000000001  0.05162  1.0000
  N   N141      1.0  0.09009000000000006  0.47343000000000013  0.54747  1.0000
  N   N142      1.0  0.033789999999999994  0.42277  0.38096  1.0000
  N   N143      1.0  0.92277  0.8809500000000002  0.03379  1.0000
  N   N144      1.0  0.6213  0.08307  0.03621  1.0000
  N   N145      1.0  0.9251  0.94802  0.49964  1.0000
  N   N146      1.0  0.4483599999999998  0.00033999999999999677  0.42546  1.0000
  N   N147      1.0  0.61903  0.4662000000000001  0.0772  1.0000
  N   N148      1.0  0.42592  0.8833400000000002  0.9735  1.0000
  N   N149      1.0  0.5474999999999998  0.59011  0.97346  1.0000
  N   N150      1.0  0.5418599999999997  0.8890299999999999  0.9228399999999999  1.0000
  N   N151      1.0  0.6213699999999998  0.53823  0.08511  1.0000
  N   N152      1.0  0.91489  0.87863  0.96176  1.0000
  N   N153      1.0  0.04260000000000004  0.5901700000000001  0.11671  1.0000
  N   N154      1.0  0.03823000000000001  0.58509  0.62137  1.0000
  N   N155      1.0  0.42279000000000005  0.38901000000000013  0.0418  1.0000
  N   N156      1.0  0.3471599999999999  0.45817000000000013  0.38089999999999996  1.0000
  N   N157      1.0  0.05192000000000007  0.9770800000000004  0.55159  1.0000
  N   N158      1.0  0.07406  0.04753000000000002  0.4574  1.0000
  N   N159      1.0  0.5418199999999997  0.65284  0.1191  1.0000
  N   N160      1.0  0.4996399999999999  0.07452000000000006  0.55165  1.0000
  N   N161      1.0  0.9996299999999999  0.44801000000000013  0.4251  1.0000
  N   N162      1.0  0.46381  0.4169200000000001  0.8787  1.0000
  N   N163      1.0  0.07408  0.026459999999999994  0.11665999999999999  1.0000
  N   N164      1.0  0.4638300000000001  0.046890000000000015  0.08508999999999999  1.0000
  N   N165      1.0  0.051680000000000004  0.57452  0.99966  1.0000
  N   N166      1.0  0.022889999999999994  0.07486  0.57453  1.0000
  N   N167      1.0  0.8833499999999997  0.42592000000000013  0.47352  1.0000
  N   N168      1.0  0.52652  0.6166900000000002  0.0741  1.0000
  N   N169      1.0  0.47348  0.38331  0.9259  1.0000
  N   N170      1.0  0.9228  0.04182000000000004  0.38901  1.0000
  N   N171      1.0  0.11096000000000004  0.45814000000000016  0.57717  1.0000
  N   N172      1.0  0.44808  0.44840000000000013  0.02291  1.0000
  N   N173      1.0  0.3832800000000001  0.9098400000000002  0.45739  1.0000
  N   N174      1.0  0.9996499999999999  0.55164  0.07454  1.0000
  N   N175      1.0  0.45246999999999993  0.042589999999999975  0.92591  1.0000
  N   N176      1.0  0.4148900000000001  0.9617600000000002  0.87862  1.0000
  N   N177      1.0  0.96375  0.8786900000000001  0.4169  1.0000
  N   N178      1.0  0.92548  0.50035  0.94835  1.0000
  N   N179      1.0  0.42547  0.94834  0.50034  1.0000
  N   N180      1.0  0.9582199999999998  0.8809100000000004  0.34718  1.0000
  N   N181      1.0  0.11664999999999998  0.57407  0.52648  1.0000
  N   N182      1.0  0.5516399999999998  0.99966  0.57453  1.0000
  N   N183      1.0  0.9662099999999998  0.57723  0.61904  1.0000
  N   N184      1.0  0.57721  0.61099  0.9582  1.0000
  N   N185      1.0  0.50036  0.9254800000000002  0.44835  1.0000
  N   N186      1.0  0.12129999999999998  0.03622  0.08308  1.0000
  N   N187      1.0  0.8471899999999996  0.38092  0.45822  1.0000
  N   N188      1.0  0.5830699999999999  0.5361700000000003  0.62128  1.0000
  N   N189      1.0  0.07490000000000002  0.05197999999999999  0.50036  1.0000
  N   N190      1.0  0.12137999999999997  0.08508999999999994  0.53822  1.0000
  N   N191      1.0  0.95245  0.9259400000000002  0.04259  1.0000
  N   N192      1.0  0.4251500000000001  0.9254900000000003  0.97714  1.0000
