data_image0
_chemical_formula_structural       Cu24H120C288N24O96
_chemical_formula_sum              "Cu24 H120 C288 N24 O96"
_cell_length_a       30.58272
_cell_length_b       30.58394
_cell_length_c       30.583950000000005
_cell_angle_alpha    59.95755000000002
_cell_angle_beta     59.96244999999999
_cell_angle_gamma    59.96244

_space_group_name_H-M_alt    "P 1"
_space_group_IT_number       1

loop_
  _space_group_symop_operation_xyz
  'x, y, z'

loop_
  _atom_site_type_symbol
  _atom_site_label
  _atom_site_symmetry_multiplicity
  _atom_site_fract_x
  _atom_site_fract_y
  _atom_site_fract_z
  _atom_site_occupancy
  Cu  Cu1       1.0  0.26599  2e-05  2.0000000000000005e-05  1.0000
  Cu  Cu2       1.0  0.3461000000000001  0.9999799999999999  0.9999800000000001  1.0000
  Cu  Cu3       1.0  0.0  0.26598  0.73402  1.0000
  Cu  Cu4       1.0  0.9999999999999999  0.34610999999999986  0.6538900000000002  1.0000
  Cu  Cu5       1.0  0.7340099999999997  0.9999799999999999  0.9999800000000001  1.0000
  Cu  Cu6       1.0  0.6539  2e-05  2.0000000000000005e-05  1.0000
  Cu  Cu7       1.0  1.1616735459764537e-16  0.7340199999999998  0.26598  1.0000
  Cu  Cu8       1.0  0.9999999999999999  0.65389  0.34611000000000003  1.0000
  Cu  Cu9       1.0  0.7340099999999999  0.26598  1.0000000000000003e-05  1.0000
  Cu  Cu10      1.0  0.6538900000000002  0.34610999999999986  0.99999  1.0000
  Cu  Cu11      1.0  0.99998  0.9999700000000001  0.73401  1.0000
  Cu  Cu12      1.0  2.000000000003527e-05  2.999999999999763e-05  0.6539  1.0000
  Cu  Cu13      1.0  0.26598000000000027  0.7340199999999998  0.99999  1.0000
  Cu  Cu14      1.0  0.3461  0.65389  1.0000000000000003e-05  1.0000
  Cu  Cu15      1.0  2.0000000000006226e-05  2.999999999999763e-05  0.26599  1.0000
  Cu  Cu16      1.0  0.9999800000000001  0.9999699999999999  0.34611000000000003  1.0000
  Cu  Cu17      1.0  0.9999800000000002  0.7340099999999997  0.99997  1.0000
  Cu  Cu18      1.0  2.0000000000003454e-05  0.6539  3.0000000000000008e-05  1.0000
  Cu  Cu19      1.0  0.2659800000000001  0.9999899999999998  0.73402  1.0000
  Cu  Cu20      1.0  0.34610000000000013  0.9999999999999998  0.6538900000000002  1.0000
  Cu  Cu21      1.0  2.0000000000003454e-05  0.26599  3.0000000000000008e-05  1.0000
  Cu  Cu22      1.0  0.9999800000000001  0.34609999999999985  0.99997  1.0000
  Cu  Cu23      1.0  0.7340099999999999  9.99999999999362e-06  0.26598  1.0000
  Cu  Cu24      1.0  0.6538900000000001  0.9999899999999998  0.34611000000000003  1.0000
  H   H1        1.0  0.44311  0.03180999999999995  0.8332900000000001  1.0000
  H   H2        1.0  0.5566899999999999  0.06077999999999996  0.6134900000000001  1.0000
  H   H3        1.0  0.03181999999999998  0.44319  0.69169  1.0000
  H   H4        1.0  0.060800000000000104  0.5566199999999997  0.7691300000000001  1.0000
  H   H5        1.0  0.6916899999999999  0.83336  0.03182  1.0000
  H   H6        1.0  0.7690599999999999  0.61343  0.06079  1.0000
  H   H7        1.0  0.8333299999999999  0.69167  0.44317  1.0000
  H   H8        1.0  0.61344  0.76912  0.55664  1.0000
  H   H9        1.0  0.6916799999999999  0.4431599999999999  0.8333400000000002  1.0000
  H   H10       1.0  0.7690999999999998  0.5566499999999998  0.6134600000000001  1.0000
  H   H11       1.0  0.8333499999999998  0.03180999999999995  0.6917000000000001  1.0000
  H   H12       1.0  0.61343  0.06077999999999996  0.7690700000000001  1.0000
  H   H13       1.0  0.4431800000000001  0.69169  0.03182  1.0000
  H   H14       1.0  0.5566299999999998  0.7691199999999999  0.06080000000000001  1.0000
  H   H15       1.0  0.03181000000000003  0.8332799999999999  0.44311  1.0000
  H   H16       1.0  0.060769999999999984  0.61349  0.5567  1.0000
  H   H17       1.0  0.03180999999999998  0.69169  0.8333700000000002  1.0000
  H   H18       1.0  0.0607800000000001  0.7690699999999998  0.61342  1.0000
  H   H19       1.0  0.44314999999999993  0.8333499999999998  0.6916700000000001  1.0000
  H   H20       1.0  0.5566399999999999  0.61344  0.76912  1.0000
  H   H21       1.0  0.8332800000000001  0.4431099999999999  0.03182  1.0000
  H   H22       1.0  0.61348  0.5566999999999999  0.06078000000000001  1.0000
  H   H23       1.0  0.69169  0.03182000000000001  0.44318  1.0000
  H   H24       1.0  0.7691099999999998  0.060800000000000014  0.55664  1.0000
  H   H25       1.0  0.55681  0.96818  0.30831  1.0000
  H   H26       1.0  0.44336000000000003  0.9391999999999998  0.23089000000000004  1.0000
  H   H27       1.0  0.9681800000000003  0.5568899999999998  0.16672000000000003  1.0000
  H   H28       1.0  0.93922  0.4433  0.38651  1.0000
  H   H29       1.0  0.30831000000000003  0.16666000000000003  0.55684  1.0000
  H   H30       1.0  0.23088999999999998  0.38654999999999995  0.4433500000000001  1.0000
  H   H31       1.0  0.16664  0.30829999999999996  0.9681900000000001  1.0000
  H   H32       1.0  0.38656  0.23092999999999986  0.9392200000000002  1.0000
  H   H33       1.0  0.30829999999999985  0.55682  0.96818  1.0000
  H   H34       1.0  0.23088  0.4433599999999999  0.9392  1.0000
  H   H35       1.0  0.16669999999999988  0.9681800000000002  0.55689  1.0000
  H   H36       1.0  0.38651000000000013  0.9392199999999998  0.4433  1.0000
  H   H37       1.0  0.55684  0.30833  0.16665  1.0000
  H   H38       1.0  0.44334999999999997  0.23087999999999997  0.38656  1.0000
  H   H39       1.0  0.96818  0.16663  0.30831  1.0000
  H   H40       1.0  0.9392099999999999  0.38658  0.23093  1.0000
  H   H41       1.0  0.9681699999999999  0.30831  0.55681  1.0000
  H   H42       1.0  0.93919  0.23087  0.44337  1.0000
  H   H43       1.0  0.5568799999999999  0.16670999999999994  0.9681900000000001  1.0000
  H   H44       1.0  0.4433  0.38650999999999985  0.9392200000000002  1.0000
  H   H45       1.0  0.16666000000000014  0.5568299999999998  0.30833  1.0000
  H   H46       1.0  0.38655  0.44336999999999976  0.23088  1.0000
  H   H47       1.0  0.30829999999999985  0.96818  0.16664000000000004  1.0000
  H   H48       1.0  0.23092000000000004  0.9392199999999998  0.38657  1.0000
  H   H49       1.0  0.55688  0.96818  0.16672000000000003  1.0000
  H   H50       1.0  0.44330000000000025  0.9392199999999998  0.38652  1.0000
  H   H51       1.0  0.96817  0.5568099999999999  0.30832  1.0000
  H   H52       1.0  0.93919  0.4433699999999999  0.23087  1.0000
  H   H53       1.0  0.30829999999999985  0.16663999999999987  0.9681900000000001  1.0000
  H   H54       1.0  0.23092999999999989  0.3865699999999999  0.9392200000000002  1.0000
  H   H55       1.0  0.16666  0.30833  0.55683  1.0000
  H   H56       1.0  0.3865499999999999  0.23088  0.44337  1.0000
  H   H57       1.0  0.30831000000000003  0.5568399999999998  0.16667  1.0000
  H   H58       1.0  0.23089000000000004  0.44334999999999986  0.3865500000000001  1.0000
  H   H59       1.0  0.16664000000000004  0.96818  0.3083  1.0000
  H   H60       1.0  0.38656000000000007  0.9392199999999998  0.23094000000000003  1.0000
  H   H61       1.0  0.55681  0.3083  0.96818  1.0000
  H   H62       1.0  0.4433599999999999  0.23088  0.9392  1.0000
  H   H63       1.0  0.9681799999999997  0.16672  0.55689  1.0000
  H   H64       1.0  0.9392200000000003  0.3865099999999999  0.4433  1.0000
  H   H65       1.0  0.9681799999999999  0.30831  0.16663  1.0000
  H   H66       1.0  0.9392099999999998  0.23092999999999986  0.3865800000000001  1.0000
  H   H67       1.0  0.5568399999999999  0.16665  0.30833  1.0000
  H   H68       1.0  0.44335  0.38655999999999996  0.23089000000000004  1.0000
  H   H69       1.0  0.16671000000000005  0.5568899999999998  0.9681900000000001  1.0000
  H   H70       1.0  0.38651  0.4433  0.9392200000000002  1.0000
  H   H71       1.0  0.30830000000000013  0.9681799999999996  0.5568200000000001  1.0000
  H   H72       1.0  0.2308800000000002  0.9391999999999997  0.44336  1.0000
  H   H73       1.0  0.4431799999999998  0.03181999999999999  0.69169  1.0000
  H   H74       1.0  0.5566299999999998  0.060800000000000014  0.76912  1.0000
  H   H75       1.0  0.03180999999999995  0.4431099999999999  0.8332800000000002  1.0000
  H   H76       1.0  0.06076999999999993  0.5566999999999999  0.6134900000000001  1.0000
  H   H77       1.0  0.6916799999999996  0.8333299999999999  0.4431600000000001  1.0000
  H   H78       1.0  0.7691  0.61345  0.55665  1.0000
  H   H79       1.0  0.83335  0.6917  0.03182  1.0000
  H   H80       1.0  0.6134300000000001  0.7690699999999998  0.06078000000000001  1.0000
  H   H81       1.0  0.69169  0.44317999999999996  0.03182  1.0000
  H   H82       1.0  0.7691099999999998  0.55664  0.06080000000000001  1.0000
  H   H83       1.0  0.8332800000000001  0.03181  0.44311  1.0000
  H   H84       1.0  0.61348  0.06077999999999996  0.5567  1.0000
  H   H85       1.0  0.44315000000000004  0.69167  0.83335  1.0000
  H   H86       1.0  0.5566400000000001  0.7691099999999998  0.61344  1.0000
  H   H87       1.0  0.031810000000000095  0.8333699999999999  0.69169  1.0000
  H   H88       1.0  0.06077999999999987  0.61342  0.7690700000000001  1.0000
  H   H89       1.0  0.03181999999999992  0.69168  0.4431900000000001  1.0000
  H   H90       1.0  0.060799999999999986  0.7691299999999999  0.55663  1.0000
  H   H91       1.0  0.4431100000000001  0.8332899999999999  0.03182  1.0000
  H   H92       1.0  0.55669  0.61348  0.06078000000000001  1.0000
  H   H93       1.0  0.8333299999999999  0.4431699999999999  0.6916700000000001  1.0000
  H   H94       1.0  0.61344  0.5566299999999998  0.76912  1.0000
  H   H95       1.0  0.6916900000000001  0.03181000000000001  0.83336  1.0000
  H   H96       1.0  0.76907  0.06077999999999996  0.61343  1.0000
  H   H97       1.0  0.3094799999999999  0.014339999999999874  0.8381200000000002  1.0000
  H   H98       1.0  0.014340000000000066  0.30947  0.83813  1.0000
  H   H99       1.0  0.8380500000000001  0.83805  0.014350000000000003  1.0000
  H   H100      1.0  0.8380899999999998  0.8381099999999999  0.30945000000000006  1.0000
  H   H101      1.0  0.8380899999999998  0.30943999999999994  0.8381200000000002  1.0000
  H   H102      1.0  0.8380500000000001  0.014349999999999984  0.83805  1.0000
  H   H103      1.0  0.3094700000000001  0.83812  0.01434  1.0000
  H   H104      1.0  0.014340000000000096  0.8381299999999999  0.30947  1.0000
  H   H105      1.0  0.01435000000000004  0.83805  0.83805  1.0000
  H   H106      1.0  0.30946  0.8381  0.8381000000000001  1.0000
  H   H107      1.0  0.8381099999999997  0.30949  0.01434  1.0000
  H   H108      1.0  0.8381099999999998  0.014340000000000007  0.30949  1.0000
  H   H109      1.0  0.6905100000000001  0.9856599999999998  0.16188  1.0000
  H   H110      1.0  0.98565  0.6905299999999998  0.16187  1.0000
  H   H111      1.0  0.16190000000000004  0.16188  0.69056  1.0000
  H   H112      1.0  0.16194000000000008  0.1619399999999999  0.98565  1.0000
  H   H113      1.0  0.16188000000000013  0.6905099999999997  0.98566  1.0000
  H   H114      1.0  0.16188000000000008  0.9856499999999997  0.6905200000000001  1.0000
  H   H115      1.0  0.6905299999999999  0.16189999999999993  0.1619  1.0000
  H   H116      1.0  0.9856400000000001  0.16194999999999996  0.16195  1.0000
  H   H117      1.0  0.98565  0.16187000000000004  0.69053  1.0000
  H   H118      1.0  0.6905199999999999  0.16187999999999989  0.98566  1.0000
  H   H119      1.0  0.16190000000000002  0.6905599999999997  0.16189  1.0000
  H   H120      1.0  0.16194000000000003  0.9856499999999998  0.16195  1.0000
  C   C1        1.0  0.34836000000000006  0.016080000000000004  0.8995  1.0000
  C   C2        1.0  0.37386  0.022809999999999987  0.84121  1.0000
  C   C3        1.0  0.42378999999999994  0.03012999999999991  0.8127200000000002  1.0000
  C   C4        1.0  0.016070000000000046  0.34838999999999987  0.73605  1.0000
  C   C5        1.0  0.022810000000000077  0.37386999999999987  0.76209  1.0000
  C   C6        1.0  0.030129999999999976  0.4238199999999999  0.73327  1.0000
  C   C7        1.0  0.736  0.8994999999999997  0.01609  1.0000
  C   C8        1.0  0.76206  0.8412099999999999  0.02282  1.0000
  C   C9        1.0  0.7332700000000002  0.8127599999999999  0.030140000000000004  1.0000
  C   C10       1.0  0.8995199999999997  0.73603  0.34837000000000007  1.0000
  C   C11       1.0  0.84123  0.76208  0.37386  1.0000
  C   C12       1.0  0.8127700000000002  0.7332699999999998  0.42382  1.0000
  C   C13       1.0  0.73603  0.34836  0.89953  1.0000
  C   C14       1.0  0.7620799999999999  0.3738599999999999  0.84124  1.0000
  C   C15       1.0  0.7332699999999999  0.42380999999999996  0.81277  1.0000
  C   C16       1.0  0.8994999999999999  0.016079999999999938  0.7360100000000003  1.0000
  C   C17       1.0  0.8412099999999999  0.02281999999999993  0.7620700000000002  1.0000
  C   C18       1.0  0.81275  0.030139999999999955  0.7332800000000002  1.0000
  C   C19       1.0  0.34839  0.73605  0.01607  1.0000
  C   C20       1.0  0.3738700000000001  0.7620899999999999  0.02281  1.0000
  C   C21       1.0  0.42382000000000003  0.7332799999999998  0.030140000000000004  1.0000
  C   C22       1.0  0.016070000000000105  0.8994999999999997  0.34835  1.0000
  C   C23       1.0  0.02280999999999999  0.8412099999999999  0.37386  1.0000
  C   C24       1.0  0.030130000000000035  0.8127199999999999  0.42380000000000007  1.0000
  C   C25       1.0  0.016080000000000046  0.736  0.8995  1.0000
  C   C26       1.0  0.02282000000000005  0.7620499999999999  0.84121  1.0000
  C   C27       1.0  0.030140000000000153  0.7332699999999998  0.81276  1.0000
  C   C28       1.0  0.3483700000000002  0.8995299999999998  0.73602  1.0000
  C   C29       1.0  0.37385999999999997  0.8412299999999999  0.7620800000000001  1.0000
  C   C30       1.0  0.42381  0.81277  0.73327  1.0000
  C   C31       1.0  0.89949  0.34836  0.01608  1.0000
  C   C32       1.0  0.84121  0.3738599999999999  0.02281  1.0000
  C   C33       1.0  0.8127199999999999  0.42379999999999995  0.030130000000000004  1.0000
  C   C34       1.0  0.7360399999999999  0.01606999999999996  0.34840000000000004  1.0000
  C   C35       1.0  0.76208  0.022809999999999952  0.3738800000000001  1.0000
  C   C36       1.0  0.73327  0.03013999999999999  0.42382  1.0000
  C   C37       1.0  0.6516000000000001  0.98393  0.26396  1.0000
  C   C38       1.0  0.62611  0.9771899999999998  0.23791  1.0000
  C   C39       1.0  0.5761700000000002  0.9698599999999998  0.26672  1.0000
  C   C40       1.0  0.9839100000000002  0.6516499999999996  0.10050000000000002  1.0000
  C   C41       1.0  0.9771799999999997  0.62615  0.15879000000000001  1.0000
  C   C42       1.0  0.9698599999999996  0.57621  0.18728000000000003  1.0000
  C   C43       1.0  0.26397000000000004  0.10047  0.65164  1.0000
  C   C44       1.0  0.23791  0.1587599999999999  0.62614  1.0000
  C   C45       1.0  0.26672000000000007  0.18723  0.57619  1.0000
  C   C46       1.0  0.10050000000000005  0.26399  0.98392  1.0000
  C   C47       1.0  0.15878000000000006  0.2379299999999999  0.97718  1.0000
  C   C48       1.0  0.18723999999999996  0.26671999999999996  0.9698600000000002  1.0000
  C   C49       1.0  0.26394999999999996  0.6515999999999997  0.98393  1.0000
  C   C50       1.0  0.23791000000000004  0.6261199999999999  0.97719  1.0000
  C   C51       1.0  0.2667199999999999  0.57617  0.96987  1.0000
  C   C52       1.0  0.10049  0.98392  0.65164  1.0000
  C   C53       1.0  0.15878000000000006  0.9771899999999998  0.62614  1.0000
  C   C54       1.0  0.18727000000000021  0.9698599999999997  0.5762  1.0000
  C   C55       1.0  0.65162  0.26398  0.10047  1.0000
  C   C56       1.0  0.62613  0.23791999999999994  0.15876  1.0000
  C   C57       1.0  0.5761799999999997  0.26673  0.18723  1.0000
  C   C58       1.0  0.98391  0.10049999999999999  0.264  1.0000
  C   C59       1.0  0.9771699999999995  0.15878999999999993  0.23794  1.0000
  C   C60       1.0  0.9698500000000001  0.18723999999999993  0.26673  1.0000
  C   C61       1.0  0.9839199999999999  0.2639499999999998  0.6516100000000002  1.0000
  C   C62       1.0  0.9771799999999997  0.23791000000000004  0.62612  1.0000
  C   C63       1.0  0.9698600000000003  0.26672999999999997  0.57618  1.0000
  C   C64       1.0  0.6516399999999999  0.10050000000000005  0.98392  1.0000
  C   C65       1.0  0.6261300000000001  0.1587799999999999  0.97719  1.0000
  C   C66       1.0  0.5762  0.18726999999999996  0.96987  1.0000
  C   C67       1.0  0.10047000000000016  0.6516299999999997  0.26397000000000004  1.0000
  C   C68       1.0  0.15875999999999996  0.62614  0.23792  1.0000
  C   C69       1.0  0.18721999999999997  0.57618  0.26673  1.0000
  C   C70       1.0  0.2639900000000001  0.9839099999999996  0.10050000000000002  1.0000
  C   C71       1.0  0.23792999999999997  0.9771799999999998  0.15879000000000001  1.0000
  C   C72       1.0  0.2667100000000002  0.9698599999999997  0.18725000000000006  1.0000
  C   C73       1.0  0.65163  0.9839199999999997  0.10050000000000002  1.0000
  C   C74       1.0  0.62613  0.9771899999999998  0.15879000000000001  1.0000
  C   C75       1.0  0.57619  0.9698699999999998  0.18728000000000003  1.0000
  C   C76       1.0  0.98392  0.65161  0.26396  1.0000
  C   C77       1.0  0.9771799999999997  0.62612  0.23792  1.0000
  C   C78       1.0  0.9698599999999996  0.57618  0.26673  1.0000
  C   C79       1.0  0.26398999999999995  0.10049999999999991  0.9839100000000002  1.0000
  C   C80       1.0  0.23793000000000003  0.1587899999999999  0.97718  1.0000
  C   C81       1.0  0.26671999999999996  0.18723999999999988  0.9698600000000002  1.0000
  C   C82       1.0  0.10047000000000005  0.26397  0.65163  1.0000
  C   C83       1.0  0.15876000000000007  0.2379199999999999  0.62614  1.0000
  C   C84       1.0  0.18721999999999997  0.26673  0.57619  1.0000
  C   C85       1.0  0.2639600000000002  0.6516399999999998  0.10047  1.0000
  C   C86       1.0  0.23790999999999995  0.62614  0.15876  1.0000
  C   C87       1.0  0.26672  0.57619  0.18723  1.0000
  C   C88       1.0  0.10048999999999987  0.98391  0.26399  1.0000
  C   C89       1.0  0.15878000000000006  0.9771799999999998  0.23794  1.0000
  C   C90       1.0  0.1872400000000001  0.9698599999999998  0.26672  1.0000
  C   C91       1.0  0.6516000000000001  0.26394999999999996  0.98393  1.0000
  C   C92       1.0  0.62612  0.23790999999999993  0.97719  1.0000
  C   C93       1.0  0.5761699999999996  0.26672  0.96987  1.0000
  C   C94       1.0  0.9839099999999998  0.10048999999999993  0.6516500000000001  1.0000
  C   C95       1.0  0.9771799999999993  0.15877999999999998  0.62615  1.0000
  C   C96       1.0  0.9698600000000002  0.18727999999999997  0.57621  1.0000
  C   C97       1.0  0.9839099999999998  0.264  0.10050000000000002  1.0000
  C   C98       1.0  0.9771699999999996  0.23793999999999996  0.15879000000000001  1.0000
  C   C99       1.0  0.96985  0.26672999999999997  0.18724  1.0000
  C   C100      1.0  0.65162  0.10046999999999999  0.26398  1.0000
  C   C101      1.0  0.62613  0.15876  0.23793000000000003  1.0000
  C   C102      1.0  0.5761799999999998  0.18723  0.26673  1.0000
  C   C103      1.0  0.10049  0.6516300000000002  0.98392  1.0000
  C   C104      1.0  0.15878000000000025  0.6261299999999995  0.97719  1.0000
  C   C105      1.0  0.18727  0.5762  0.96987  1.0000
  C   C106      1.0  0.26394999999999996  0.9839299999999996  0.6516100000000002  1.0000
  C   C107      1.0  0.23790999999999995  0.9771899999999998  0.62612  1.0000
  C   C108      1.0  0.2667200000000001  0.9698599999999998  0.57618  1.0000
  C   C109      1.0  0.34839000000000003  0.016069999999999994  0.73605  1.0000
  C   C110      1.0  0.37388000000000005  0.022809999999999987  0.76209  1.0000
  C   C111      1.0  0.4238199999999999  0.030129999999999945  0.7332800000000002  1.0000
  C   C112      1.0  0.01607999999999999  0.3483499999999999  0.8995100000000003  1.0000
  C   C113      1.0  0.022810000000000018  0.37384999999999996  0.84122  1.0000
  C   C114      1.0  0.030129999999999917  0.4237899999999999  0.8127200000000002  1.0000
  C   C115      1.0  0.7360200000000002  0.8995299999999998  0.34837000000000007  1.0000
  C   C116      1.0  0.7620800000000001  0.84124  0.37386  1.0000
  C   C117      1.0  0.73327  0.81277  0.42381000000000013  1.0000
  C   C118      1.0  0.8994900000000001  0.7360099999999999  0.01609  1.0000
  C   C119      1.0  0.8411999999999998  0.76206  0.02282  1.0000
  C   C120      1.0  0.8127500000000001  0.7332799999999998  0.030140000000000004  1.0000
  C   C121      1.0  0.73604  0.3483999999999999  0.01607  1.0000
  C   C122      1.0  0.76208  0.37387999999999993  0.02281  1.0000
  C   C123      1.0  0.73327  0.42382  0.030140000000000004  1.0000
  C   C124      1.0  0.8995  0.016080000000000004  0.34836  1.0000
  C   C125      1.0  0.84121  0.022810000000000004  0.37386  1.0000
  C   C126      1.0  0.8127199999999999  0.030129999999999994  0.42380000000000007  1.0000
  C   C127      1.0  0.34837  0.73602  0.89953  1.0000
  C   C128      1.0  0.37386000000000014  0.7620699999999999  0.84124  1.0000
  C   C129      1.0  0.4238100000000002  0.7332699999999998  0.81277  1.0000
  C   C130      1.0  0.016080000000000105  0.8994999999999997  0.736  1.0000
  C   C131      1.0  0.02282000000000005  0.8412099999999999  0.76206  1.0000
  C   C132      1.0  0.030140000000000094  0.8127599999999998  0.7332800000000002  1.0000
  C   C133      1.0  0.016069999999999987  0.73604  0.34839  1.0000
  C   C134      1.0  0.02280999999999999  0.7620899999999999  0.3738800000000001  1.0000
  C   C135      1.0  0.030130000000000035  0.7332699999999998  0.42382  1.0000
  C   C136      1.0  0.3483500000000001  0.8994999999999997  0.01608  1.0000
  C   C137      1.0  0.3738600000000001  0.8412099999999999  0.02281  1.0000
  C   C138      1.0  0.42379000000000006  0.8127199999999999  0.030130000000000004  1.0000
  C   C139      1.0  0.8995199999999997  0.34837  0.73603  1.0000
  C   C140      1.0  0.8412299999999999  0.3738599999999999  0.7620800000000001  1.0000
  C   C141      1.0  0.81277  0.42380999999999996  0.73327  1.0000
  C   C142      1.0  0.7359999999999999  0.016090000000000014  0.8995  1.0000
  C   C143      1.0  0.76206  0.022819999999999997  0.84121  1.0000
  C   C144      1.0  0.73328  0.03013999999999999  0.81276  1.0000
  C   C145      1.0  0.3483299999999999  0.01982999999999991  0.8159200000000002  1.0000
  C   C146      1.0  0.44924  0.034609999999999974  0.7580400000000002  1.0000
  C   C147      1.0  0.49966999999999995  0.04220999999999995  0.7290200000000001  1.0000
  C   C148      1.0  0.54417  0.047029999999999995  0.70444  1.0000
  C   C149      1.0  0.5962  0.049889999999999914  0.6769800000000002  1.0000
  C   C150      1.0  0.01982999999999997  0.34832999999999975  0.8159200000000002  1.0000
  C   C151      1.0  0.03460999999999997  0.44923999999999986  0.7580400000000002  1.0000
  C   C152      1.0  0.04221  0.4996699999999999  0.7290200000000001  1.0000
  C   C153      1.0  0.04702999999999993  0.5441699999999999  0.7044500000000002  1.0000
  C   C154      1.0  0.04989000000000008  0.5961999999999997  0.6769800000000002  1.0000
  C   C155      1.0  0.8158800000000002  0.8158899999999999  0.019850000000000003  1.0000
  C   C156      1.0  0.7580599999999997  0.7580699999999999  0.03461  1.0000
  C   C157      1.0  0.7290499999999999  0.72906  0.04220000000000001  1.0000
  C   C158      1.0  0.7043999999999999  0.7044  0.04702  1.0000
  C   C159      1.0  0.67697  0.6769699999999997  0.04988  1.0000
  C   C160      1.0  0.8159200000000001  0.8159299999999999  0.3483100000000001  1.0000
  C   C161      1.0  0.7580799999999999  0.7580699999999999  0.44923  1.0000
  C   C162      1.0  0.7290500000000001  0.72905  0.4996700000000001  1.0000
  C   C163      1.0  0.7043900000000001  0.70441  0.54416  1.0000
  C   C164      1.0  0.67694  0.6769599999999998  0.5962000000000001  1.0000
  C   C165      1.0  0.8159199999999996  0.34831  0.81593  1.0000
  C   C166      1.0  0.7580800000000001  0.44923  0.7580700000000001  1.0000
  C   C167      1.0  0.72905  0.49967  0.7290500000000001  1.0000
  C   C168      1.0  0.7043899999999998  0.5441499999999998  0.70441  1.0000
  C   C169      1.0  0.67694  0.5961899999999998  0.6769600000000001  1.0000
  C   C170      1.0  0.8158899999999996  0.01983999999999992  0.8158900000000002  1.0000
  C   C171      1.0  0.7580599999999996  0.034609999999999974  0.7580700000000001  1.0000
  C   C172      1.0  0.72905  0.04220000000000001  0.72906  1.0000
  C   C173      1.0  0.7043999999999999  0.047019999999999985  0.70441  1.0000
  C   C174      1.0  0.67697  0.04987  0.67697  1.0000
  C   C175      1.0  0.34833000000000003  0.81592  0.01983  1.0000
  C   C176      1.0  0.44924000000000003  0.7580399999999999  0.03461  1.0000
  C   C177      1.0  0.49967000000000006  0.72902  0.04221  1.0000
  C   C178      1.0  0.54417  0.70444  0.047030000000000016  1.0000
  C   C179      1.0  0.5962000000000001  0.6769799999999998  0.04989000000000001  1.0000
  C   C180      1.0  0.01982999999999994  0.81592  0.34833  1.0000
  C   C181      1.0  0.034600000000000054  0.7580299999999999  0.44924000000000003  1.0000
  C   C182      1.0  0.04220999999999997  0.7290199999999999  0.49968  1.0000
  C   C183      1.0  0.04702999999999999  0.70444  0.54417  1.0000
  C   C184      1.0  0.049890000000000136  0.6769799999999997  0.5962100000000001  1.0000
  C   C185      1.0  0.01983999999999994  0.8158799999999998  0.8158900000000002  1.0000
  C   C186      1.0  0.034600000000000054  0.7580599999999997  0.7580700000000001  1.0000
  C   C187      1.0  0.04220000000000003  0.7290599999999999  0.72906  1.0000
  C   C188      1.0  0.047010000000000045  0.70441  0.70441  1.0000
  C   C189      1.0  0.049869999999999956  0.6769699999999997  0.6769800000000002  1.0000
  C   C190      1.0  0.34831999999999985  0.81592  0.8159200000000002  1.0000
  C   C191      1.0  0.4492300000000002  0.7580799999999999  0.75808  1.0000
  C   C192      1.0  0.49966000000000005  0.7290599999999999  0.72906  1.0000
  C   C193      1.0  0.5441499999999996  0.7044  0.70441  1.0000
  C   C194      1.0  0.5961800000000002  0.6769599999999996  0.6769600000000001  1.0000
  C   C195      1.0  0.8159099999999999  0.34833999999999987  0.01983  1.0000
  C   C196      1.0  0.7580400000000002  0.44923999999999986  0.03461  1.0000
  C   C197      1.0  0.72902  0.4996699999999999  0.04221  1.0000
  C   C198      1.0  0.70443  0.5441699999999999  0.047030000000000016  1.0000
  C   C199      1.0  0.6769800000000002  0.5961999999999997  0.04989000000000001  1.0000
  C   C200      1.0  0.8159099999999998  0.01982999999999996  0.3483400000000001  1.0000
  C   C201      1.0  0.75804  0.03460999999999999  0.44924000000000003  1.0000
  C   C202      1.0  0.7290200000000001  0.042209999999999984  0.49968  1.0000
  C   C203      1.0  0.7044399999999998  0.047029999999999995  0.54417  1.0000
  C   C204      1.0  0.67698  0.04988999999999995  0.5962000000000001  1.0000
  C   C205      1.0  0.6516600000000002  0.9801699999999998  0.18408  1.0000
  C   C206      1.0  0.5507500000000001  0.9653899999999999  0.24196000000000006  1.0000
  C   C207      1.0  0.5003199999999999  0.95779  0.27098  1.0000
  C   C208      1.0  0.4558199999999999  0.95297  0.29557  1.0000
  C   C209      1.0  0.40379000000000015  0.9501099999999998  0.32302  1.0000
  C   C210      1.0  0.9801600000000001  0.6516699999999997  0.18408  1.0000
  C   C211      1.0  0.9653800000000001  0.5507599999999998  0.24197000000000002  1.0000
  C   C212      1.0  0.9577799999999997  0.50032  0.27098  1.0000
  C   C213      1.0  0.9529600000000001  0.45582999999999996  0.29556  1.0000
  C   C214      1.0  0.9501000000000001  0.40378999999999987  0.32302  1.0000
  C   C215      1.0  0.18407  0.18407  0.65169  1.0000
  C   C216      1.0  0.24191  0.24192999999999998  0.55077  1.0000
  C   C217      1.0  0.27094  0.2709499999999999  0.50033  1.0000
  C   C218      1.0  0.2956  0.29558999999999996  0.45584  1.0000
  C   C219      1.0  0.32305000000000006  0.3230399999999999  0.40381  1.0000
  C   C220      1.0  0.1841099999999999  0.1841099999999999  0.9801600000000003  1.0000
  C   C221      1.0  0.24193000000000003  0.24192999999999995  0.96539  1.0000
  C   C222      1.0  0.27093999999999996  0.2709399999999999  0.9578000000000001  1.0000
  C   C223      1.0  0.29559  0.2955899999999998  0.9529800000000003  1.0000
  C   C224      1.0  0.32302000000000003  0.32302999999999976  0.9501300000000003  1.0000
  C   C225      1.0  0.18408000000000002  0.6516599999999998  0.9801700000000001  1.0000
  C   C226      1.0  0.24195000000000014  0.5507599999999998  0.96539  1.0000
  C   C227      1.0  0.27097000000000004  0.5003199999999998  0.9577900000000003  1.0000
  C   C228      1.0  0.29556000000000004  0.45582999999999996  0.95297  1.0000
  C   C229      1.0  0.32301  0.4037999999999998  0.9501100000000001  1.0000
  C   C230      1.0  0.18408000000000002  0.9801699999999995  0.65166  1.0000
  C   C231      1.0  0.24195000000000008  0.9653899999999999  0.55076  1.0000
  C   C232      1.0  0.27097000000000004  0.95779  0.50033  1.0000
  C   C233      1.0  0.2955499999999998  0.95297  0.4558300000000001  1.0000
  C   C234      1.0  0.32301000000000013  0.9501099999999998  0.40380000000000005  1.0000
  C   C235      1.0  0.65167  0.18407999999999988  0.18408  1.0000
  C   C236      1.0  0.55076  0.24192  0.24192  1.0000
  C   C237      1.0  0.50033  0.27094  0.27094  1.0000
  C   C238      1.0  0.45583999999999986  0.29559  0.2956  1.0000
  C   C239      1.0  0.40381000000000006  0.3230399999999999  0.32304  1.0000
  C   C240      1.0  0.9801499999999999  0.18411999999999995  0.18412  1.0000
  C   C241      1.0  0.96539  0.24192999999999995  0.24194000000000004  1.0000
  C   C242      1.0  0.9577899999999999  0.27094  0.27094  1.0000
  C   C243      1.0  0.9529799999999996  0.29559  0.29559  1.0000
  C   C244      1.0  0.95012  0.3230299999999999  0.32303000000000004  1.0000
  C   C245      1.0  0.9801600000000001  0.18408000000000002  0.65167  1.0000
  C   C246      1.0  0.9653899999999999  0.24196  0.55076  1.0000
  C   C247      1.0  0.95778  0.2709799999999999  0.50033  1.0000
  C   C248      1.0  0.9529599999999995  0.2955499999999999  0.4558300000000001  1.0000
  C   C249      1.0  0.9501  0.32301999999999986  0.40380000000000005  1.0000
  C   C250      1.0  0.6516599999999998  0.18407999999999988  0.9801700000000001  1.0000
  C   C251      1.0  0.5507500000000001  0.24195999999999998  0.96539  1.0000
  C   C252      1.0  0.5003200000000002  0.2709699999999999  0.9577900000000003  1.0000
  C   C253      1.0  0.4558199999999998  0.29556  0.95297  1.0000
  C   C254      1.0  0.40379  0.32301999999999975  0.9501100000000001  1.0000
  C   C255      1.0  0.18407000000000015  0.6516899999999998  0.18408  1.0000
  C   C256      1.0  0.24191000000000007  0.5507699999999999  0.24193  1.0000
  C   C257      1.0  0.2709399999999999  0.50033  0.2709500000000001  1.0000
  C   C258      1.0  0.2955999999999999  0.45583999999999997  0.29559  1.0000
  C   C259      1.0  0.32305  0.4037999999999999  0.32304  1.0000
  C   C260      1.0  0.1841000000000001  0.9801599999999998  0.18411  1.0000
  C   C261      1.0  0.2419300000000001  0.9653899999999999  0.24194000000000004  1.0000
  C   C262      1.0  0.2709399999999999  0.9578  0.27094  1.0000
  C   C263      1.0  0.2955899999999999  0.95298  0.2956  1.0000
  C   C264      1.0  0.32302000000000003  0.9501199999999997  0.32303000000000004  1.0000
  C   C265      1.0  0.62303  0.05065  0.62304  1.0000
  C   C266      1.0  0.05062999999999992  0.62302  0.7033300000000002  1.0000
  C   C267      1.0  0.70332  0.62302  0.05064  1.0000
  C   C268      1.0  0.6230000000000002  0.7033399999999999  0.62301  1.0000
  C   C269      1.0  0.70332  0.62301  0.62302  1.0000
  C   C270      1.0  0.62302  0.05063999999999999  0.70332  1.0000
  C   C271      1.0  0.6230200000000001  0.7033199999999998  0.05064  1.0000
  C   C272      1.0  0.05064999999999998  0.6230400000000001  0.62304  1.0000
  C   C273      1.0  0.05063000000000009  0.7033299999999998  0.62302  1.0000
  C   C274      1.0  0.623  0.62301  0.70334  1.0000
  C   C275      1.0  0.62303  0.62304  0.05065  1.0000
  C   C276      1.0  0.7033199999999998  0.05063999999999999  0.62302  1.0000
  C   C277      1.0  0.3769699999999999  0.9493599999999998  0.29668000000000005  1.0000
  C   C278      1.0  0.9493400000000001  0.3769599999999998  0.37696000000000013  1.0000
  C   C279      1.0  0.29667000000000004  0.3769799999999998  0.3769900000000001  1.0000
  C   C280      1.0  0.37696999999999975  0.2966699999999999  0.9493600000000001  1.0000
  C   C281      1.0  0.29667000000000004  0.3769799999999998  0.9493600000000001  1.0000
  C   C282      1.0  0.37696000000000024  0.9493499999999998  0.37697  1.0000
  C   C283      1.0  0.37699000000000005  0.2966599999999999  0.3769900000000001  1.0000
  C   C284      1.0  0.9493600000000003  0.37697999999999987  0.29667  1.0000
  C   C285      1.0  0.9493600000000001  0.29666999999999993  0.37698000000000004  1.0000
  C   C286      1.0  0.3769600000000001  0.3769599999999998  0.9493500000000002  1.0000
  C   C287      1.0  0.37699  0.3769899999999999  0.29666000000000003  1.0000
  C   C288      1.0  0.29667  0.9493599999999998  0.37698000000000004  1.0000
  N   N1        1.0  0.5971799999999999  0.050769999999999954  0.5971900000000001  1.0000
  N   N2        1.0  0.050760000000000055  0.5971199999999999  0.75494  1.0000
  N   N3        1.0  0.75492  0.59713  0.05076  1.0000
  N   N4        1.0  0.5971400000000001  0.7549599999999999  0.59714  1.0000
  N   N5        1.0  0.7549400000000002  0.5971499999999997  0.5971500000000001  1.0000
  N   N6        1.0  0.5971299999999998  0.050759999999999916  0.7549300000000002  1.0000
  N   N7        1.0  0.59713  0.7549299999999999  0.05076  1.0000
  N   N8        1.0  0.05077000000000006  0.5971899999999998  0.5971900000000001  1.0000
  N   N9        1.0  0.05076000000000011  0.7549299999999999  0.59712  1.0000
  N   N10       1.0  0.59714  0.5971299999999998  0.7549600000000002  1.0000
  N   N11       1.0  0.5971800000000003  0.5971899999999998  0.05077000000000001  1.0000
  N   N12       1.0  0.75492  0.050759999999999916  0.5971300000000002  1.0000
  N   N13       1.0  0.4028600000000001  0.9492399999999996  0.24508000000000002  1.0000
  N   N14       1.0  0.94922  0.40280999999999995  0.40281  1.0000
  N   N15       1.0  0.24504999999999993  0.40285  0.40285000000000004  1.0000
  N   N16       1.0  0.40286  0.24506999999999984  0.9492400000000002  1.0000
  N   N17       1.0  0.24506999999999995  0.40286999999999995  0.9492400000000002  1.0000
  N   N18       1.0  0.40281000000000006  0.9492299999999999  0.40281  1.0000
  N   N19       1.0  0.4028500000000001  0.24504000000000004  0.40286  1.0000
  N   N20       1.0  0.94923  0.40288  0.24506  1.0000
  N   N21       1.0  0.94923  0.24505999999999997  0.40288000000000007  1.0000
  N   N22       1.0  0.40281  0.40281  0.94923  1.0000
  N   N23       1.0  0.4028499999999999  0.40286  0.24504000000000006  1.0000
  N   N24       1.0  0.2450600000000001  0.9492399999999998  0.40287  1.0000
  O   O1        1.0  0.30116999999999994  0.013069999999999962  0.9223500000000001  1.0000
  O   O2        1.0  0.37588  0.013349999999999985  0.92207  1.0000
  O   O3        1.0  0.013039999999999928  0.3012  0.76344  1.0000
  O   O4        1.0  0.013330000000000009  0.37592  0.68866  1.0000
  O   O5        1.0  0.7633899999999998  0.9222999999999998  0.013070000000000002  1.0000
  O   O6        1.0  0.6886199999999999  0.92213  0.01336  1.0000
  O   O7        1.0  0.9223400000000003  0.7634199999999998  0.30118  1.0000
  O   O8        1.0  0.9221100000000001  0.68863  0.3759100000000001  1.0000
  O   O9        1.0  0.7634100000000001  0.30117  0.92236  1.0000
  O   O10       1.0  0.6886300000000001  0.37589999999999996  0.9221200000000002  1.0000
  O   O11       1.0  0.9222900000000002  0.013059999999999952  0.7634000000000001  1.0000
  O   O12       1.0  0.92212  0.013349999999999985  0.68863  1.0000
  O   O13       1.0  0.30120000000000013  0.7634399999999998  0.01304  1.0000
  O   O14       1.0  0.37592  0.68866  0.013330000000000003  1.0000
  O   O15       1.0  0.013060000000000049  0.9223599999999997  0.30117  1.0000
  O   O16       1.0  0.013340000000000097  0.92207  0.37588  1.0000
  O   O17       1.0  0.013060000000000049  0.7633899999999998  0.9223  1.0000
  O   O18       1.0  0.01335000000000004  0.68862  0.92214  1.0000
  O   O19       1.0  0.30118000000000017  0.9223499999999998  0.76342  1.0000
  O   O20       1.0  0.37590000000000007  0.92213  0.68863  1.0000
  O   O21       1.0  0.92234  0.30118  0.013070000000000002  1.0000
  O   O22       1.0  0.9220699999999998  0.37588999999999995  0.01335  1.0000
  O   O23       1.0  0.76343  0.013039999999999998  0.30121  1.0000
  O   O24       1.0  0.6886499999999998  0.013329999999999998  0.37593  1.0000
  O   O25       1.0  0.69878  0.98696  0.23657000000000003  1.0000
  O   O26       1.0  0.62407  0.9866699999999999  0.31134  1.0000
  O   O27       1.0  0.98693  0.69883  0.07764  1.0000
  O   O28       1.0  0.9866500000000001  0.6241199999999998  0.07793  1.0000
  O   O29       1.0  0.23657999999999982  0.07764  0.69883  1.0000
  O   O30       1.0  0.31135999999999997  0.07787999999999995  0.6241000000000001  1.0000
  O   O31       1.0  0.0777000000000001  0.2365999999999999  0.98694  1.0000
  O   O32       1.0  0.07786999999999998  0.31137  0.9866500000000001  1.0000
  O   O33       1.0  0.23656000000000008  0.6987799999999998  0.9869600000000002  1.0000
  O   O34       1.0  0.3113400000000001  0.6240699999999998  0.9866700000000003  1.0000
  O   O35       1.0  0.07765  0.98693  0.69882  1.0000
  O   O36       1.0  0.07792000000000004  0.9866499999999998  0.62412  1.0000
  O   O37       1.0  0.69881  0.23658999999999994  0.07765  1.0000
  O   O38       1.0  0.62409  0.31137  0.07787  1.0000
  O   O39       1.0  0.98693  0.07770999999999999  0.23661  1.0000
  O   O40       1.0  0.98664  0.07785999999999993  0.31138000000000005  1.0000
  O   O41       1.0  0.98695  0.2365599999999999  0.6988  1.0000
  O   O42       1.0  0.9866599999999999  0.31134  0.62408  1.0000
  O   O43       1.0  0.6988199999999999  0.07764999999999991  0.9869300000000002  1.0000
  O   O44       1.0  0.6241100000000002  0.07792999999999993  0.9866500000000001  1.0000
  O   O45       1.0  0.07765  0.69882  0.23658  1.0000
  O   O46       1.0  0.07787000000000009  0.6240899999999998  0.31137  1.0000
  O   O47       1.0  0.23659999999999998  0.98693  0.07771000000000002  1.0000
  O   O48       1.0  0.31137000000000004  0.9866399999999997  0.07788  1.0000
  O   O49       1.0  0.69882  0.98693  0.07765  1.0000
  O   O50       1.0  0.6241100000000002  0.9866499999999998  0.07793  1.0000
  O   O51       1.0  0.9869499999999999  0.69879  0.23657000000000003  1.0000
  O   O52       1.0  0.9866600000000002  0.6240799999999997  0.31135000000000007  1.0000
  O   O53       1.0  0.23660000000000003  0.07769999999999996  0.98694  1.0000
  O   O54       1.0  0.3113699999999999  0.07787000000000001  0.98664  1.0000
  O   O55       1.0  0.07765  0.23657999999999993  0.69882  1.0000
  O   O56       1.0  0.07787000000000004  0.31137  0.62409  1.0000
  O   O57       1.0  0.23658000000000004  0.69883  0.07764  1.0000
  O   O58       1.0  0.3113600000000001  0.6240999999999998  0.07788  1.0000
  O   O59       1.0  0.07770000000000006  0.9869399999999999  0.23661  1.0000
  O   O60       1.0  0.07787000000000015  0.9866399999999997  0.31137  1.0000
  O   O61       1.0  0.69879  0.23655999999999985  0.9869600000000002  1.0000
  O   O62       1.0  0.6240700000000003  0.3113399999999999  0.9866700000000003  1.0000
  O   O63       1.0  0.98693  0.07764  0.69883  1.0000
  O   O64       1.0  0.9866500000000001  0.07792999999999997  0.62412  1.0000
  O   O65       1.0  0.98693  0.23660999999999996  0.07771000000000002  1.0000
  O   O66       1.0  0.9866400000000001  0.31138  0.07787  1.0000
  O   O67       1.0  0.6988099999999999  0.07765  0.23659000000000005  1.0000
  O   O68       1.0  0.62409  0.07786999999999994  0.31138000000000005  1.0000
  O   O69       1.0  0.07765  0.69882  0.98694  1.0000
  O   O70       1.0  0.0779200000000001  0.6241099999999998  0.98666  1.0000
  O   O71       1.0  0.23656000000000013  0.98695  0.69879  1.0000
  O   O72       1.0  0.31134000000000017  0.9866699999999998  0.62408  1.0000
  O   O73       1.0  0.30121  0.013039999999999998  0.76344  1.0000
  O   O74       1.0  0.37592000000000003  0.013329999999999998  0.68866  1.0000
  O   O75       1.0  0.01305999999999996  0.30117  0.92236  1.0000
  O   O76       1.0  0.01334000000000004  0.37588  0.92207  1.0000
  O   O77       1.0  0.7634100000000001  0.9223599999999997  0.30118  1.0000
  O   O78       1.0  0.68863  0.92212  0.3759100000000001  1.0000
  O   O79       1.0  0.9222900000000002  0.7633999999999997  0.013060000000000004  1.0000
  O   O80       1.0  0.9221200000000002  0.68863  0.01336  1.0000
  O   O81       1.0  0.76343  0.30121  0.01305  1.0000
  O   O82       1.0  0.6886500000000001  0.37593  0.013330000000000003  1.0000
  O   O83       1.0  0.9223399999999999  0.013069999999999997  0.30118  1.0000
  O   O84       1.0  0.9220699999999998  0.013340000000000008  0.37589  1.0000
  O   O85       1.0  0.30117999999999967  0.7634099999999998  0.9223500000000001  1.0000
  O   O86       1.0  0.37589999999999985  0.68862  0.92213  1.0000
  O   O87       1.0  0.01305999999999999  0.92229  0.76339  1.0000
  O   O88       1.0  0.013349999999999924  0.92213  0.6886200000000001  1.0000
  O   O89       1.0  0.013040000000000104  0.7634299999999998  0.30121  1.0000
  O   O90       1.0  0.013330000000000036  0.68866  0.37593  1.0000
  O   O91       1.0  0.3011700000000001  0.9223499999999998  0.013070000000000002  1.0000
  O   O92       1.0  0.37588000000000005  0.92207  0.01335  1.0000
  O   O93       1.0  0.92234  0.3011799999999999  0.76342  1.0000
  O   O94       1.0  0.92212  0.37590999999999997  0.68863  1.0000
  O   O95       1.0  0.76339  0.01306000000000002  0.9223  1.0000
  O   O96       1.0  0.68862  0.013359999999999995  0.92213  1.0000
