data_image0
_chemical_formula_structural       In36H288C480N72O156
_chemical_formula_sum              "In36 H288 C480 N72 O156"
_cell_length_a       33.95266
_cell_length_b       33.95039
_cell_length_c       33.94699
_cell_angle_alpha    109.38404
_cell_angle_beta     109.50913999999999
_cell_angle_gamma    109.55391

_symmetry_space_group_name_H-M    'P 1'
_symmetry_Int_Tables_number       1

loop_
  _symmetry_equiv_pos_as_xyz
  'x,y,z'

loop_
  _atom_site_type_symbol
  _atom_site_label
  _atom_site_symmetry_multiplicity
  _atom_site_fract_x
  _atom_site_fract_y
  _atom_site_fract_z
  _atom_site_occupancy
  In  In1       1.0  0.8831100000000003  0.8076  0.66159  1.0000
  In  In2       1.0  0.61781  0.2782199999999999  0.9257699999999998  1.0000
  In  In3       1.0  0.64768  0.22148999999999994  0.83945  1.0000
  In  In4       1.0  0.85422  0.6927400000000002  0.57577  1.0000
  In  In5       1.0  0.92543  0.11739000000000002  0.77844  1.0000
  In  In6       1.0  0.66176  0.3833200000000001  0.30763  1.0000
  In  In7       1.0  0.57563  0.35419  0.19253  1.0000
  In  In8       1.0  0.83904  0.14689  0.7215599999999999  1.0000
  In  In9       1.0  0.19228  0.07429999999999999  0.85273  1.0000
  In  In10      1.0  0.7215  0.3393099999999999  0.6477799999999998  1.0000
  In  In11      1.0  0.77831  0.42568999999999996  0.61795  1.0000
  In  In12      1.0  0.30844  0.16071000000000008  0.88192  1.0000
  In  In13      1.0  0.11698000000000001  0.92425  0.27832  1.0000
  In  In14      1.0  0.38365999999999995  0.66187  0.8067999999999997  1.0000
  In  In15      1.0  0.3551299999999998  0.5767499999999998  0.6931399999999998  1.0000
  In  In16      1.0  0.14584000000000008  0.8387400000000003  0.22169  1.0000
  In  In17      1.0  0.07639  0.19301  0.35474  1.0000
  In  In18      1.0  0.3378000000000001  0.7218500000000002  0.14477  1.0000
  In  In19      1.0  0.4228999999999999  0.7781  0.11589999999999998  1.0000
  In  In20      1.0  0.16182  0.30707  0.3835  1.0000
  In  In21      1.0  0.8071299999999999  0.88327  0.16169  1.0000
  In  In22      1.0  0.27821  0.61657  0.4234999999999999  1.0000
  In  In23      1.0  0.22174  0.64545  0.33823  1.0000
  In  In24      1.0  0.69301  0.85463  0.07636  1.0000
  In  In25      1.0  0.9473100000000001  0.74998  0.69722  1.0000
  In  In26      1.0  0.55569  0.2500399999999999  0.8056599999999998  1.0000
  In  In27      1.0  0.80418  0.05432000000000004  0.75004  1.0000
  In  In28      1.0  0.69758  0.44755  0.24984999999999993  1.0000
  In  In29      1.0  0.2498699999999999  0.1943799999999999  0.9443299999999998  1.0000
  In  In30      1.0  0.74998  0.30541  0.55557  1.0000
  In  In31      1.0  0.05240999999999997  0.80249  0.24989999999999998  1.0000
  In  In32      1.0  0.44930000000000003  0.69934  0.74994  1.0000
  In  In33      1.0  0.19868999999999995  0.24993999999999997  0.4486899999999999  1.0000
  In  In34      1.0  0.30025  0.74996  0.05035  1.0000
  In  In35      1.0  0.74998  0.94835  0.19824  1.0000
  In  In36      1.0  0.24994000000000005  0.5515000000000002  0.30149  1.0000
  H   H1        1.0  0.01641000000000003  0.93905  0.7111  1.0000
  H   H2        1.0  0.08507999999999989  0.89387  0.8049899999999998  1.0000
  H   H3        1.0  0.15846999999999997  0.97735  0.85269  1.0000
  H   H4        1.0  0.09318  0.019599999999999996  0.76091  1.0000
  H   H5        1.0  0.86032  0.86609  0.06118999999999999  1.0000
  H   H6        1.0  0.8544500000000002  0.84169  0.7766199999999999  1.0000
  H   H7        1.0  0.73342  0.85999  0.96861  1.0000
  H   H8        1.0  0.88518  0.85486  0.99789  1.0000
  H   H9        1.0  0.75905  0.85056  0.90586  1.0000
  H   H10       1.0  0.93006  0.77388  0.82692  1.0000
  H   H11       1.0  0.83577  0.85738  0.84406  1.0000
  H   H12       1.0  0.9132000000000001  0.7916799999999999  0.8959499999999999  1.0000
  H   H13       1.0  0.4843099999999999  0.19504999999999992  0.9214299999999999  1.0000
  H   H14       1.0  0.41435999999999995  0.21957000000000004  0.80736  1.0000
  H   H15       1.0  0.34191999999999984  0.1944999999999999  0.8183899999999997  1.0000
  H   H16       1.0  0.40835999999999983  0.1686899999999999  0.9262599999999998  1.0000
  H   H17       1.0  0.63934  0.70035  0.005509999999999999  1.0000
  H   H18       1.0  0.64472  0.42054999999999987  0.9856399999999997  1.0000
  H   H19       1.0  0.7662800000000001  0.73495  0.12635  1.0000
  H   H20       1.0  0.61463  0.61226  0.96941  1.0000
  H   H21       1.0  0.74091  0.64669  0.09142  1.0000
  H   H22       1.0  0.56922  0.3962100000000001  0.84252  1.0000
  H   H23       1.0  0.66374  0.50666  0.02055999999999999  1.0000
  H   H24       1.0  0.58649  0.48207  0.8778  1.0000
  H   H25       1.0  0.7264  0.30491  0.7893  1.0000
  H   H26       1.0  0.58786  0.2803300000000001  0.6947  1.0000
  H   H27       1.0  0.62401  0.30549  0.64742  1.0000
  H   H28       1.0  0.75765  0.33112  0.73972  1.0000
  H   H29       1.0  0.30504000000000003  0.7993600000000002  0.43889  1.0000
  H   H30       1.0  0.56507  0.0797299999999999  0.7242899999999998  1.0000
  H   H31       1.0  0.39147000000000004  0.7650600000000001  0.53142  1.0000
  H   H32       1.0  0.35707999999999995  0.8875699999999999  0.50229  1.0000
  H   H33       1.0  0.44478999999999996  0.85349  0.5943  1.0000
  H   H34       1.0  0.4461  0.10364000000000004  0.67291  1.0000
  H   H35       1.0  0.5139  0.99338  0.6571099999999997  1.0000
  H   H36       1.0  0.39555  0.017599999999999973  0.60424  1.0000
  H   H37       1.0  0.77188  0.56072  0.57733  1.0000
  H   H38       1.0  0.9111699999999999  0.60602  0.6912199999999998  1.0000
  H   H39       1.0  0.8754300000000003  0.52277  0.68117  1.0000
  H   H40       1.0  0.74132  0.48045  0.57362  1.0000
  H   H41       1.0  0.19508  0.63381  0.4941199999999999  1.0000
  H   H42       1.0  0.9349800000000001  0.6582600000000002  0.51272  1.0000
  H   H43       1.0  0.10855999999999999  0.63992  0.37332  1.0000
  H   H44       1.0  0.14313999999999996  0.64509  0.53025  1.0000
  H   H45       1.0  0.055379999999999915  0.6493999999999999  0.4084799999999999  1.0000
  H   H46       1.0  0.0532  0.72615  0.65629  1.0000
  H   H47       1.0  0.98669  0.6426300000000003  0.4784499999999999  1.0000
  H   H48       1.0  0.10430000000000003  0.70838  0.6216199999999998  1.0000
  H   H49       1.0  0.9221200000000002  0.9835900000000003  0.69463  1.0000
  H   H50       1.0  0.8082599999999999  0.91436  0.71967  1.0000
  H   H51       1.0  0.8188299999999998  0.84151  0.69433  1.0000
  H   H52       1.0  0.9263099999999997  0.9072899999999999  0.6680999999999998  1.0000
  H   H53       1.0  0.005619999999999982  0.13953  0.20064999999999994  1.0000
  H   H54       1.0  0.9866200000000002  0.14527999999999996  0.9215  1.0000
  H   H55       1.0  0.12658  0.2665  0.23525  1.0000
  H   H56       1.0  0.9696099999999999  0.11481  0.11250999999999997  1.0000
  H   H57       1.0  0.09163  0.24108  0.14692  1.0000
  H   H58       1.0  0.8430999999999998  0.06964999999999988  0.8962399999999998  1.0000
  H   H59       1.0  0.02114000000000001  0.16394  0.007619999999999999  1.0000
  H   H60       1.0  0.87794  0.08648999999999993  0.9821099999999998  1.0000
  H   H61       1.0  0.71118  0.51667  0.43942  1.0000
  H   H62       1.0  0.8051699999999999  0.58534  0.39433  1.0000
  H   H63       1.0  0.85292  0.65866  0.47785  1.0000
  H   H64       1.0  0.76111  0.59346  0.5198999999999999  1.0000
  H   H65       1.0  0.0613399999999999  0.36042  0.3661799999999999  1.0000
  H   H66       1.0  0.77673  0.35429  0.34183  1.0000
  H   H67       1.0  0.9687000000000006  0.23337  0.36002  1.0000
  H   H68       1.0  0.99795  0.38515  0.35485  1.0000
  H   H69       1.0  0.9059  0.25893  0.35048  1.0000
  H   H70       1.0  0.8268  0.43006  0.27392  1.0000
  H   H71       1.0  0.84431  0.33573  0.35751  1.0000
  H   H72       1.0  0.8959100000000002  0.41326  0.29173  1.0000
  H   H73       1.0  0.57709  0.27176  0.06067  1.0000
  H   H74       1.0  0.69105  0.41097  0.10608  1.0000
  H   H75       1.0  0.6812500000000001  0.3755000000000001  0.02293  1.0000
  H   H76       1.0  0.57354  0.24127999999999994  0.98045  1.0000
  H   H77       1.0  0.49417  0.6953399999999998  0.13384  1.0000
  H   H78       1.0  0.51229  0.43491000000000013  0.15808  1.0000
  H   H79       1.0  0.37333  0.60885  0.13994  1.0000
  H   H80       1.0  0.53022  0.64326  0.1451  1.0000
  H   H81       1.0  0.40837  0.55554  0.14944  1.0000
  H   H82       1.0  0.65606  0.5529  0.22607999999999995  1.0000
  H   H83       1.0  0.47812000000000004  0.48678999999999994  0.14245  1.0000
  H   H84       1.0  0.62161  0.60422  0.20833  1.0000
  H   H85       1.0  0.7891199999999998  0.22742999999999994  0.80515  1.0000
  H   H86       1.0  0.69476  0.08845999999999991  0.7801399999999997  1.0000
  H   H87       1.0  0.6474899999999998  0.12424999999999989  0.8056499999999998  1.0000
  H   H88       1.0  0.73956  0.25820999999999994  0.83171  1.0000
  H   H89       1.0  0.43854  0.8048  0.29876  1.0000
  H   H90       1.0  0.72368  0.06504999999999994  0.5785399999999999  1.0000
  H   H91       1.0  0.53129  0.89134  0.2646  1.0000
  H   H92       1.0  0.5019899999999999  0.8568599999999998  0.38707999999999987  1.0000
  H   H93       1.0  0.59414  0.9446  0.35317  1.0000
  H   H94       1.0  0.67297  0.94653  0.60342  1.0000
  H   H95       1.0  0.65626  0.013460000000000008  0.49224  1.0000
  H   H96       1.0  0.6040400000000002  0.8956200000000004  0.51731  1.0000
  H   H97       1.0  0.06220000000000006  0.07824000000000003  0.77319  1.0000
  H   H98       1.0  0.10677999999999988  0.19217999999999988  0.9118699999999997  1.0000
  H   H99       1.0  0.023400000000000018  0.18143000000000004  0.87585  1.0000
  H   H100      1.0  0.98165  0.07378999999999995  0.7422299999999998  1.0000
  H   H101      1.0  0.13391000000000008  0.99426  0.19474  1.0000
  H   H102      1.0  0.15900000000000006  0.014229999999999994  0.93503  1.0000
  H   H103      1.0  0.14001000000000002  0.87362  0.10849  1.0000
  H   H104      1.0  0.14527  0.030480000000000004  0.14278  1.0000
  H   H105      1.0  0.14953  0.90872  0.055189999999999996  1.0000
  H   H106      1.0  0.22669  0.15738  0.05374  1.0000
  H   H107      1.0  0.1430699999999999  0.97925  0.9861899999999999  1.0000
  H   H108      1.0  0.20862000000000003  0.12198  0.10425  1.0000
  H   H109      1.0  0.8049  0.2888399999999999  0.7267099999999997  1.0000
  H   H110      1.0  0.7803099999999998  0.19471999999999987  0.5881899999999998  1.0000
  H   H111      1.0  0.80566  0.14751  0.6243  1.0000
  H   H112      1.0  0.8313199999999998  0.23925999999999994  0.7577399999999999  1.0000
  H   H113      1.0  0.29942  0.93906  0.30519  1.0000
  H   H114      1.0  0.57923  0.22401000000000004  0.56519  1.0000
  H   H115      1.0  0.26503999999999994  0.031409999999999966  0.3914599999999999  1.0000
  H   H116      1.0  0.38778999999999997  0.0025600000000000054  0.35737  1.0000
  H   H117      1.0  0.35369  0.09434999999999995  0.4448899999999999  1.0000
  H   H118      1.0  0.60386  0.17317  0.4466499999999999  1.0000
  H   H119      1.0  0.49285999999999996  0.15667999999999999  0.51368  1.0000
  H   H120      1.0  0.51764  0.10440000000000003  0.39587  1.0000
  H   H121      1.0  0.69463  0.42145  0.48366  1.0000
  H   H122      1.0  0.71959  0.30784  0.41435  1.0000
  H   H123      1.0  0.69449  0.3188200000000001  0.34174  1.0000
  H   H124      1.0  0.66837  0.42615  0.4075799999999999  1.0000
  H   H125      1.0  0.20072  0.50584  0.63968  1.0000
  H   H126      1.0  0.9208899999999999  0.4858499999999999  0.6448699999999998  1.0000
  H   H127      1.0  0.2352499999999999  0.62654  0.7664399999999998  1.0000
  H   H128      1.0  0.11251999999999995  0.46965999999999997  0.6148499999999999  1.0000
  H   H129      1.0  0.14686999999999992  0.5914499999999998  0.7409399999999998  1.0000
  H   H130      1.0  0.8961  0.34268  0.56936  1.0000
  H   H131      1.0  0.007099999999999975  0.52077  0.6637699999999999  1.0000
  H   H132      1.0  0.9820500000000001  0.37792  0.58648  1.0000
  H   H133      1.0  0.43769  0.21103000000000005  0.01608  1.0000
  H   H134      1.0  0.3934599999999999  0.3052  0.0857  1.0000
  H   H135      1.0  0.47715  0.35255  0.15844  1.0000
  H   H136      1.0  0.51858  0.26081  0.09235  1.0000
  H   H137      1.0  0.36617  0.56107  0.86044  1.0000
  H   H138      1.0  0.34097  0.2760299999999999  0.8552199999999998  1.0000
  H   H139      1.0  0.3600899999999999  0.4687199999999999  0.7336499999999998  1.0000
  H   H140      1.0  0.35473  0.4976800000000001  0.88517  1.0000
  H   H141      1.0  0.3504499999999998  0.4058799999999999  0.7591599999999997  1.0000
  H   H142      1.0  0.27331999999999995  0.32701  0.9306599999999999  1.0000
  H   H143      1.0  0.35693999999999987  0.3431999999999999  0.8361599999999998  1.0000
  H   H144      1.0  0.29145999999999983  0.39566999999999986  0.9133399999999998  1.0000
  H   H145      1.0  0.9832  0.92266  0.1945  1.0000
  H   H146      1.0  0.9143999999999999  0.8087099999999999  0.21956999999999993  1.0000
  H   H147      1.0  0.84126  0.81909  0.19427999999999998  1.0000
  H   H148      1.0  0.9065400000000001  0.9265400000000003  0.16782  1.0000
  H   H149      1.0  0.13931  0.005580000000000001  0.70029  1.0000
  H   H150      1.0  0.14559000000000002  0.9873  0.42216  1.0000
  H   H151      1.0  0.26648  0.12661  0.73502  1.0000
  H   H152      1.0  0.1148500000000001  0.9696300000000001  0.61222  1.0000
  H   H153      1.0  0.2410699999999999  0.0914999999999999  0.6466399999999998  1.0000
  H   H154      1.0  0.06977000000000007  0.8436  0.39644  1.0000
  H   H155      1.0  0.16402999999999995  0.021389999999999958  0.50822  1.0000
  H   H156      1.0  0.08649000000000008  0.87815  0.48231  1.0000
  H   H157      1.0  0.51702  0.7113699999999998  0.9401599999999998  1.0000
  H   H158      1.0  0.58518  0.80488  0.89453  1.0000
  H   H159      1.0  0.65888  0.85302  0.97817  1.0000
  H   H160      1.0  0.5941900000000001  0.7614800000000003  0.02073  1.0000
  H   H161      1.0  0.3605299999999999  0.0610699999999999  0.8662199999999999  1.0000
  H   H162      1.0  0.35397999999999996  0.77689  0.8421299999999998  1.0000
  H   H163      1.0  0.2334299999999998  0.9683299999999998  0.8600499999999998  1.0000
  H   H164      1.0  0.38521  0.9976299999999999  0.85483  1.0000
  H   H165      1.0  0.25904  0.90556  0.85042  1.0000
  H   H166      1.0  0.4298799999999999  0.8266  0.77423  1.0000
  H   H167      1.0  0.3355899999999999  0.84459  0.85762  1.0000
  H   H168      1.0  0.41331  0.89595  0.79184  1.0000
  H   H169      1.0  0.27086  0.57664  0.55938  1.0000
  H   H170      1.0  0.41029  0.69052  0.60542  1.0000
  H   H171      1.0  0.37505  0.68077  0.52202  1.0000
  H   H172      1.0  0.24075000000000002  0.5735  0.47915  1.0000
  H   H173      1.0  0.69481  0.49421000000000004  0.6337499999999999  1.0000
  H   H174      1.0  0.43484  0.51182  0.65783  1.0000
  H   H175      1.0  0.60832  0.37331  0.63996  1.0000
  H   H176      1.0  0.64283  0.5303  0.64524  1.0000
  H   H177      1.0  0.5551199999999998  0.4084999999999999  0.6495699999999999  1.0000
  H   H178      1.0  0.5525999999999999  0.65575  0.7258799999999997  1.0000
  H   H179      1.0  0.4869899999999999  0.47806000000000004  0.64232  1.0000
  H   H180      1.0  0.60409  0.62152  0.70808  1.0000
  H   H181      1.0  0.22829000000000005  0.78879  0.30556999999999995  1.0000
  H   H182      1.0  0.08914  0.69491  0.28028  1.0000
  H   H183      1.0  0.12475999999999998  0.64709  0.30567  1.0000
  H   H184      1.0  0.25873  0.73879  0.33222  1.0000
  H   H185      1.0  0.80522  0.43897  0.79942  1.0000
  H   H186      1.0  0.06523000000000007  0.7235000000000003  0.07797  1.0000
  H   H187      1.0  0.89175  0.5317399999999998  0.7651499999999998  1.0000
  H   H188      1.0  0.8572800000000002  0.50259  0.88772  1.0000
  H   H189      1.0  0.9449899999999999  0.59461  0.8537499999999998  1.0000
  H   H190      1.0  0.94712  0.67325  0.10346  1.0000
  H   H191      1.0  0.013180000000000016  0.65581  0.99173  1.0000
  H   H192      1.0  0.89577  0.60406  0.01737  1.0000
  H   H193      1.0  0.07685000000000003  0.05986000000000003  0.27126  1.0000
  H   H194      1.0  0.19076999999999997  0.10562999999999997  0.41049999999999986  1.0000
  H   H195      1.0  0.18096999999999994  0.022379999999999955  0.37513999999999986  1.0000
  H   H196      1.0  0.07355999999999992  0.97969  0.24101999999999998  1.0000
  H   H197      1.0  0.9942399999999999  0.1337499999999999  0.6949399999999999  1.0000
  H   H198      1.0  0.012119999999999966  0.15799999999999997  0.43488999999999994  1.0000
  H   H199      1.0  0.87334  0.13988999999999993  0.60861  1.0000
  H   H200      1.0  0.03024000000000001  0.14514000000000005  0.64283  1.0000
  H   H201      1.0  0.90845  0.1495  0.55531  1.0000
  H   H202      1.0  0.15601  0.22605000000000006  0.55266  1.0000
  H   H203      1.0  0.9781200000000001  0.14237999999999998  0.48692999999999986  1.0000
  H   H204      1.0  0.12163  0.20825  0.60411  1.0000
  H   H205      1.0  0.28856  0.80576  0.22928  1.0000
  H   H206      1.0  0.19525999999999993  0.78016  0.08994  1.0000
  H   H207      1.0  0.14711000000000005  0.80561  0.12505  1.0000
  H   H208      1.0  0.23854  0.83278  0.25939  1.0000
  H   H209      1.0  0.9387099999999999  0.29888999999999993  0.8050399999999999  1.0000
  H   H210      1.0  0.22293  0.57678  0.06516999999999999  1.0000
  H   H211      1.0  0.03146999999999993  0.26466999999999996  0.8915499999999997  1.0000
  H   H212      1.0  0.002350000000000044  0.38732  0.85722  1.0000
  H   H213      1.0  0.09435999999999997  0.35342999999999997  0.9448499999999999  1.0000
  H   H214      1.0  0.17368  0.60347  0.94785  1.0000
  H   H215      1.0  0.15482  0.49053  0.01265  1.0000
  H   H216      1.0  0.10394000000000002  0.51733  0.89596  1.0000
  H   H217      1.0  0.42344  0.6942000000000003  0.98266  1.0000
  H   H218      1.0  0.3096599999999999  0.7196  0.9148099999999998  1.0000
  H   H219      1.0  0.31944000000000006  0.69414  0.84114  1.0000
  H   H220      1.0  0.42653  0.66713  0.9055  1.0000
  H   H221      1.0  0.50589  0.20105  0.13969  1.0000
  H   H222      1.0  0.4886  0.92343  0.14623999999999995  1.0000
  H   H223      1.0  0.62676  0.23571000000000003  0.26669  1.0000
  H   H224      1.0  0.46990000000000004  0.11274  0.1149  1.0000
  H   H225      1.0  0.59174  0.14713  0.24106  1.0000
  H   H226      1.0  0.34453  0.89648  0.07034  1.0000
  H   H227      1.0  0.5222200000000001  0.00954999999999998  0.16440999999999997  1.0000
  H   H228      1.0  0.37845  0.98241  0.08665999999999997  1.0000
  H   H229      1.0  0.21134  0.4400300000000001  0.51706  1.0000
  H   H230      1.0  0.30500000000000005  0.39464000000000005  0.58538  1.0000
  H   H231      1.0  0.35298  0.47824  0.65885  1.0000
  H   H232      1.0  0.26145000000000007  0.5205200000000002  0.59406  1.0000
  H   H233      1.0  0.5612900000000001  0.3663  0.36035  1.0000
  H   H234      1.0  0.27687  0.3419500000000001  0.35418  1.0000
  H   H235      1.0  0.4687200000000001  0.3601400000000001  0.23337  1.0000
  H   H236      1.0  0.4978299999999999  0.35483  0.3850799999999999  1.0000
  H   H237      1.0  0.40583  0.35041  0.25895  1.0000
  H   H238      1.0  0.32666999999999996  0.27399  0.4299399999999999  1.0000
  H   H239      1.0  0.34454  0.35768  0.3357  1.0000
  H   H240      1.0  0.3960000000000001  0.29191  0.41329  1.0000
  H   H241      1.0  0.93999  0.017069999999999995  0.21145  1.0000
  H   H242      1.0  0.8944100000000001  0.08514  0.30489  1.0000
  H   H243      1.0  0.9780700000000001  0.15868999999999994  0.3528699999999999  1.0000
  H   H244      1.0  0.02055  0.09413000000000002  0.26159  1.0000
  H   H245      1.0  0.86623  0.8604  0.56119  1.0000
  H   H246      1.0  0.84199  0.85417  0.27688  1.0000
  H   H247      1.0  0.86009  0.73351  0.46884  1.0000
  H   H248      1.0  0.8548700000000002  0.8851199999999999  0.4976699999999999  1.0000
  H   H249      1.0  0.8504999999999999  0.75914  0.40596  1.0000
  H   H250      1.0  0.77407  0.9299200000000001  0.3265499999999999  1.0000
  H   H251      1.0  0.85756  0.8357499999999999  0.34461999999999987  1.0000
  H   H252      1.0  0.79183  0.9132  0.39583  1.0000
  H   H253      1.0  0.19428  0.48279  0.42295  1.0000
  H   H254      1.0  0.2196799999999999  0.4148099999999999  0.3092799999999999  1.0000
  H   H255      1.0  0.19426  0.34136  0.31939  1.0000
  H   H256      1.0  0.16741000000000006  0.40585  0.42644  1.0000
  H   H257      1.0  0.70097  0.63988  0.50601  1.0000
  H   H258      1.0  0.42283  0.6459  0.48781  1.0000
  H   H259      1.0  0.7355500000000001  0.7666900000000002  0.62672  1.0000
  H   H260      1.0  0.61267  0.615  0.46992999999999996  1.0000
  H   H261      1.0  0.6469800000000001  0.74101  0.5916199999999999  1.0000
  H   H262      1.0  0.39642999999999995  0.57013  0.34407999999999994  1.0000
  H   H263      1.0  0.50896  0.66411  0.52175  1.0000
  H   H264      1.0  0.48234  0.58655  0.37833  1.0000
  H   H265      1.0  0.3058000000000002  0.7288200000000002  0.28849  1.0000
  H   H266      1.0  0.2803300000000001  0.58973  0.19516999999999998  1.0000
  H   H267      1.0  0.30583  0.6252  0.14714  1.0000
  H   H268      1.0  0.3327  0.7591299999999999  0.23841999999999994  1.0000
  H   H269      1.0  0.79927  0.3052999999999999  0.9391399999999998  1.0000
  H   H270      1.0  0.0774400000000001  0.5651900000000002  0.2232  1.0000
  H   H271      1.0  0.7649000000000001  0.39154  0.03156  1.0000
  H   H272      1.0  0.8878000000000001  0.35764  0.00274  1.0000
  H   H273      1.0  0.8537  0.44501  0.09452  1.0000
  H   H274      1.0  0.10362000000000002  0.44769000000000003  0.17363  1.0000
  H   H275      1.0  0.9911300000000001  0.51284  0.15526  1.0000
  H   H276      1.0  0.017449999999999997  0.396  0.10415  1.0000
  H   H277      1.0  0.55965  0.77119  0.07692  1.0000
  H   H278      1.0  0.60554  0.91034  0.19066  1.0000
  H   H279      1.0  0.52203  0.8748900000000002  0.18069  1.0000
  H   H280      1.0  0.47929000000000005  0.7409500000000002  0.07358  1.0000
  H   H281      1.0  0.6337599999999999  0.19463  0.99413  1.0000
  H   H282      1.0  0.65798  0.93488  0.01213  1.0000
  H   H283      1.0  0.6399399999999998  0.1083599999999999  0.8734399999999998  1.0000
  H   H284      1.0  0.64522  0.14261000000000004  0.03034  1.0000
  H   H285      1.0  0.64956  0.055149999999999984  0.90876  1.0000
  H   H286      1.0  0.7259600000000002  0.05240000000000001  0.15596  1.0000
  H   H287      1.0  0.6424500000000002  0.9870700000000001  0.9782699999999999  1.0000
  H   H288      1.0  0.70821  0.10395  0.12161999999999999  1.0000
  C   C1        1.0  0.04726999999999994  0.9463499999999999  0.74211  1.0000
  C   C2        1.0  0.08571999999999995  0.92119  0.7948  1.0000
  C   C3        1.0  0.90297  0.79678  0.75684  1.0000
  C   C4        1.0  0.89348  0.8069799999999999  0.7978899999999998  1.0000
  C   C5        1.0  0.04488000000000003  0.9104300000000001  0.75478  1.0000
  C   C6        1.0  0.77991  0.86841  0.05484  1.0000
  C   C7        1.0  0.12603  0.9667399999999999  0.82104  1.0000
  C   C8        1.0  7.999999999992825e-05  0.8621699999999999  0.7257499999999998  1.0000
  C   C9        1.0  0.08907000000000008  0.99069  0.76931  1.0000
  C   C10       1.0  0.7955199999999999  0.86369  0.018309999999999993  1.0000
  C   C11       1.0  0.87347  0.8252500000000002  0.8737699999999998  1.0000
  C   C12       1.0  0.8386700000000002  0.86262  0.02702  1.0000
  C   C13       1.0  0.8230600000000001  0.8516199999999999  0.9480799999999999  1.0000
  C   C14       1.0  0.86678  0.83063  0.80273  1.0000
  C   C15       1.0  0.76663  0.85928  0.97462  1.0000
  C   C16       1.0  0.85238  0.8563799999999999  0.9921599999999999  1.0000
  C   C17       1.0  0.7806300000000002  0.85399  0.94002  1.0000
  C   C18       1.0  0.9100500000000002  0.7925800000000001  0.8313699999999999  1.0000
  C   C19       1.0  0.8566199999999999  0.83959  0.8400399999999998  1.0000
  C   C20       1.0  0.9007099999999999  0.8022799999999999  0.8694099999999998  1.0000
  C   C21       1.0  0.45341  0.19517999999999996  0.89797  1.0000
  C   C22       1.0  0.41427  0.20884  0.83417  1.0000
  C   C23       1.0  0.5957000000000001  0.3522800000000001  0.89178  1.0000
  C   C24       1.0  0.60581  0.4030200000000001  0.91182  1.0000
  C   C25       1.0  0.45537  0.20966  0.86388  1.0000
  C   C26       1.0  0.72016  0.77479  0.08859  1.0000
  C   C27       1.0  0.37431  0.1951599999999999  0.8400499999999997  1.0000
  C   C28       1.0  0.50016  0.2257999999999999  0.8605399999999997  1.0000
  C   C29       1.0  0.41192000000000006  0.1809100000000001  0.90115  1.0000
  C   C30       1.0  0.70427  0.72255  0.06793  1.0000
  C   C31       1.0  0.62621  0.4994200000000001  0.95107  1.0000
  C   C32       1.0  0.66115  0.68794  0.023739999999999997  1.0000
  C   C33       1.0  0.67679  0.62449  0.028279999999999993  1.0000
  C   C34       1.0  0.63249  0.43446  0.96232  1.0000
  C   C35       1.0  0.7331499999999999  0.70769  0.09241  1.0000
  C   C36       1.0  0.64746  0.6393500000000002  0.0037399999999999994  1.0000
  C   C37       1.0  0.71918  0.65907  0.07311  1.0000
  C   C38       1.0  0.5894  0.42045  0.8813  1.0000
  C   C39       1.0  0.64283  0.48200999999999994  0.9818299999999999  1.0000
  C   C40       1.0  0.59895  0.4678999999999999  0.9007699999999998  1.0000
  C   C41       1.0  0.70281  0.30472999999999995  0.7582199999999999  1.0000
  C   C42       1.0  0.6254  0.29103  0.70535  1.0000
  C   C43       1.0  0.5395599999999998  0.14771999999999993  0.7433199999999998  1.0000
  C   C44       1.0  0.50865  0.09694000000000001  0.70261  1.0000
  C   C45       1.0  0.65425  0.29019999999999996  0.7456299999999999  1.0000
  C   C46       1.0  0.3137  0.72521  0.44518  1.0000
  C   C47       1.0  0.64502  0.30477  0.67912  1.0000
  C   C48       1.0  0.6347100000000001  0.2739800000000001  0.77421  1.0000
  C   C49       1.0  0.7203  0.31896  0.73101  1.0000
  C   C50       1.0  0.34548000000000006  0.77742  0.48176  1.0000
  C   C51       1.0  0.45158999999999994  0.0005000000000000328  0.62673  1.0000
  C   C52       1.0  0.3357599999999999  0.81192  0.4731199999999999  1.0000
  C   C53       1.0  0.40375999999999995  0.87549  0.55225  1.0000
  C   C54       1.0  0.5278299999999999  0.06561999999999997  0.6979999999999998  1.0000
  C   C55       1.0  0.38481000000000004  0.7923400000000003  0.52551  1.0000
  C   C56       1.0  0.36436999999999997  0.86053  0.50805  1.0000
  C   C57       1.0  0.41409  0.84099  0.56015  1.0000
  C   C58       1.0  0.46067000000000013  0.07943000000000001  0.6688  1.0000
  C   C59       1.0  0.49979000000000007  0.018000000000000013  0.6608  1.0000
  C   C60       1.0  0.43271  0.03191  0.63091  1.0000
  C   C61       1.0  0.7957999999999997  0.5536499999999999  0.6009399999999998  1.0000
  C   C62       1.0  0.87365  0.57884  0.66448  1.0000
  C   C63       1.0  0.9601699999999999  0.70324  0.60635  1.0000
  C   C64       1.0  0.9909400000000002  0.6930199999999999  0.5865999999999999  1.0000
  C   C65       1.0  0.8443800000000001  0.58963  0.6344  1.0000
  C   C66       1.0  0.18635999999999997  0.63157  0.4113099999999999  1.0000
  C   C67       1.0  0.85434  0.53329  0.6592699999999999  1.0000
  C   C68       1.0  0.86373  0.63795  0.6379499999999999  1.0000
  C   C69       1.0  0.7786499999999998  0.5092899999999999  0.5983899999999999  1.0000
  C   C70       1.0  0.1546599999999999  0.6362999999999999  0.4317299999999999  1.0000
  C   C71       1.0  0.04857000000000001  0.67475  0.54824  1.0000
  C   C72       1.0  0.16441000000000003  0.63733  0.47594  1.0000
  C   C73       1.0  0.09651999999999997  0.64835  0.47142  1.0000
  C   C74       1.0  0.9721500000000001  0.66939  0.53621  1.0000
  C   C75       1.0  0.11535999999999993  0.6406899999999999  0.4072799999999999  1.0000
  C   C76       1.0  0.13583999999999993  0.64357  0.49591999999999997  1.0000
  C   C77       1.0  0.08609  0.64597  0.4266  1.0000
  C   C78       1.0  0.03883999999999998  0.70744  0.61753  1.0000
  C   C79       1.0  0.0005000000000000093  0.66045  0.51711  1.0000
  C   C80       1.0  0.06717000000000005  0.6977500000000002  0.59849  1.0000
  C   C81       1.0  0.8984899999999999  0.9527599999999999  0.6947499999999998  1.0000
  C   C82       1.0  0.83495  0.9140700000000002  0.70884  1.0000
  C   C83       1.0  0.89297  0.09645999999999995  0.8529899999999999  1.0000
  C   C84       1.0  0.9127499999999998  0.10621  0.90361  1.0000
  C   C85       1.0  0.8648600000000001  0.9549199999999999  0.70957  1.0000
  C   C86       1.0  0.08856  0.22026  0.275  1.0000
  C   C87       1.0  0.84047  0.87385  0.69487  1.0000
  C   C88       1.0  0.8618699999999998  8.999999999987374e-05  0.7260499999999998  1.0000
  C   C89       1.0  0.9012700000000001  0.9110100000000002  0.6803  1.0000
  C   C90       1.0  0.06808999999999998  0.20441  0.22278  1.0000
  C   C91       1.0  0.9513700000000002  0.12627000000000005  0.9998  1.0000
  C   C92       1.0  0.023899999999999987  0.16128  0.18820999999999993  1.0000
  C   C93       1.0  0.028559999999999988  0.17693  0.12481999999999997  1.0000
  C   C94       1.0  0.9632  0.13292  0.93524  1.0000
  C   C95       1.0  0.09265  0.23333  0.20798  1.0000
  C   C96       1.0  0.003970000000000003  0.14759  0.13962  1.0000
  C   C97       1.0  0.07337999999999999  0.21935  0.15934  1.0000
  C   C98       1.0  0.88188  0.08969  0.92067  1.0000
  C   C99       1.0  0.9824400000000001  0.1430799999999999  0.9827599999999997  1.0000
  C   C100      1.0  0.9010700000000001  0.09903999999999998  0.9681099999999999  1.0000
  C   C101      1.0  0.74215  0.54751  0.44662  1.0000
  C   C102      1.0  0.7948900000000001  0.5859300000000002  0.42156999999999994  1.0000
  C   C103      1.0  0.75694  0.40294  0.29696  1.0000
  C   C104      1.0  0.79797  0.39345  0.30714  1.0000
  C   C105      1.0  0.7548700000000002  0.54522  0.41087  1.0000
  C   C106      1.0  0.05489999999999999  0.27987  0.3684  1.0000
  C   C107      1.0  0.8211499999999999  0.62632  0.46717999999999993  1.0000
  C   C108      1.0  0.7258900000000001  0.50023  0.3625  1.0000
  C   C109      1.0  0.7694400000000001  0.5894400000000002  0.49101  1.0000
  C   C110      1.0  0.018410000000000027  0.2955000000000001  0.36369999999999997  1.0000
  C   C111      1.0  0.8738  0.37343  0.3253  1.0000
  C   C112      1.0  0.02714000000000001  0.3387  0.36268  1.0000
  C   C113      1.0  0.94816  0.32302  0.3516499999999999  1.0000
  C   C114      1.0  0.80283  0.36667  0.33077  1.0000
  C   C115      1.0  0.9747100000000001  0.2666  0.3593  1.0000
  C   C116      1.0  0.99226  0.35235000000000005  0.3564199999999999  1.0000
  C   C117      1.0  0.9401  0.2805599999999999  0.3539999999999999  1.0000
  C   C118      1.0  0.83135  0.4100400000000001  0.29267  1.0000
  C   C119      1.0  0.8401400000000002  0.35655  0.33966  1.0000
  C   C120      1.0  0.8693900000000002  0.40072  0.30231  1.0000
  C   C121      1.0  0.60073  0.29562  0.05355  1.0000
  C   C122      1.0  0.66436  0.37349  0.0788  1.0000
  C   C123      1.0  0.60599  0.46004  0.20309  1.0000
  C   C124      1.0  0.5862100000000002  0.49081  0.19284  1.0000
  C   C125      1.0  0.6342  0.34416  0.08946  1.0000
  C   C126      1.0  0.41117  0.68651  0.13151  1.0000
  C   C127      1.0  0.65928  0.3543  0.03334  1.0000
  C   C128      1.0  0.6378700000000003  0.3635000000000001  0.13777  1.0000
  C   C129      1.0  0.59833  0.27857  0.00929  1.0000
  C   C130      1.0  0.43175000000000013  0.6548700000000002  0.13628999999999997  1.0000
  C   C131      1.0  0.54809  0.54857  0.17465999999999995  1.0000
  C   C132      1.0  0.47594  0.66463  0.13735  1.0000
  C   C133      1.0  0.4713300000000001  0.59668  0.14836  1.0000
  C   C134      1.0  0.53583  0.47208  0.16919  1.0000
  C   C135      1.0  0.4072500000000001  0.61556  0.1407  1.0000
  C   C136      1.0  0.49591  0.63604  0.1436  1.0000
  C   C137      1.0  0.42656  0.58628  0.14601  1.0000
  C   C138      1.0  0.6173100000000002  0.5387  0.20733  1.0000
  C   C139      1.0  0.51679  0.5005  0.16027  1.0000
  C   C140      1.0  0.5983400000000001  0.5671000000000003  0.19765999999999995  1.0000
  C   C141      1.0  0.75809  0.20363999999999993  0.8048899999999999  1.0000
  C   C142      1.0  0.7053100000000002  0.12597  0.79087  1.0000
  C   C143      1.0  0.74321  0.03996000000000002  0.64689  1.0000
  C   C144      1.0  0.7022900000000001  0.008930000000000014  0.59624  1.0000
  C   C145      1.0  0.74544  0.15508  0.7900299999999999  1.0000
  C   C146      1.0  0.44493999999999995  0.8135799999999999  0.22470999999999997  1.0000
  C   C147      1.0  0.6790900000000001  0.14535000000000003  0.80483  1.0000
  C   C148      1.0  0.7742799999999999  0.13581999999999994  0.7740499999999999  1.0000
  C   C149      1.0  0.7309000000000001  0.2208800000000001  0.81933  1.0000
  C   C150      1.0  0.48156000000000004  0.84533  0.27691  1.0000
  C   C151      1.0  0.62634  0.95147  0.49991999999999986  1.0000
  C   C152      1.0  0.47281000000000006  0.8355200000000003  0.31136999999999987  1.0000
  C   C153      1.0  0.5518900000000001  0.90348  0.37492  1.0000
  C   C154      1.0  0.69751  0.027839999999999997  0.56466  1.0000
  C   C155      1.0  0.5253099999999999  0.88462  0.29184999999999994  1.0000
  C   C156      1.0  0.5077099999999999  0.8641099999999999  0.3599699999999999  1.0000
  C   C157      1.0  0.55992  0.91388  0.34048  1.0000
  C   C158      1.0  0.66867  0.9609700000000002  0.5790299999999999  1.0000
  C   C159      1.0  0.66023  0.9996  0.5171  1.0000
  C   C160      1.0  0.6306900000000001  0.9327800000000002  0.53154  1.0000
  C   C161      1.0  0.05494999999999995  0.10179  0.79689  1.0000
  C   C162      1.0  0.07981000000000006  0.1654300000000001  0.87433  1.0000
  C   C163      1.0  0.20372  0.10788999999999996  0.9603399999999999  1.0000
  C   C164      1.0  0.19384999999999994  0.08801999999999995  0.9911799999999998  1.0000
  C   C165      1.0  0.0910699999999999  0.13567999999999988  0.8453999999999998  1.0000
  C   C166      1.0  0.13156  0.9115  0.18615  1.0000
  C   C167      1.0  0.03405  0.15976000000000004  0.85479  1.0000
  C   C168      1.0  0.13929  0.13906  0.86498  1.0000
  C   C169      1.0  0.010389999999999929  0.09885999999999995  0.7795399999999999  1.0000
  C   C170      1.0  0.13633000000000006  0.9319400000000002  0.15443  1.0000
  C   C171      1.0  0.17503  0.0488  0.04836  1.0000
  C   C172      1.0  0.13740999999999998  0.97612  0.16407999999999995  1.0000
  C   C173      1.0  0.14845  0.97164  0.09614  1.0000
  C   C174      1.0  0.17006999999999994  0.03752999999999999  0.97221  1.0000
  C   C175      1.0  0.14075  0.90752  0.11515999999999998  1.0000
  C   C176      1.0  0.14370000000000005  0.99614  0.13549  1.0000
  C   C177      1.0  0.1460500000000001  0.9268500000000002  0.08585  1.0000
  C   C178      1.0  0.20804  0.11858  0.03912  1.0000
  C   C179      1.0  0.16088  0.01798  0.00025  1.0000
  C   C180      1.0  0.1981  0.09908  0.06712  1.0000
  C   C181      1.0  0.80478  0.25792  0.70306  1.0000
  C   C182      1.0  0.79107  0.20539000000000007  0.62571  1.0000
  C   C183      1.0  0.64756  0.24334999999999996  0.53997  1.0000
  C   C184      1.0  0.59684  0.20266000000000006  0.50903  1.0000
  C   C185      1.0  0.79023  0.24553000000000005  0.6546  1.0000
  C   C186      1.0  0.22533000000000009  0.9454300000000002  0.31374  1.0000
  C   C187      1.0  0.80502  0.17919  0.6453  1.0000
  C   C188      1.0  0.77422  0.2744  0.63522  1.0000
  C   C189      1.0  0.8192300000000002  0.23072999999999994  0.72048  1.0000
  C   C190      1.0  0.2774900000000002  0.9818700000000005  0.34556  1.0000
  C   C191      1.0  0.5004100000000002  0.12670000000000006  0.4517  1.0000
  C   C192      1.0  0.3120100000000001  0.9732600000000002  0.33591999999999994  1.0000
  C   C193      1.0  0.37552  0.05229000000000002  0.4039  1.0000
  C   C194      1.0  0.5653  0.19786  0.52798  1.0000
  C   C195      1.0  0.29237  0.025570000000000023  0.38489  1.0000
  C   C196      1.0  0.36062000000000005  0.008149999999999989  0.36454  1.0000
  C   C197      1.0  0.3410100000000001  0.060159999999999984  0.41419  1.0000
  C   C198      1.0  0.5795  0.16896  0.46108  1.0000
  C   C199      1.0  0.51771  0.16063  0.49983  1.0000
  C   C200      1.0  0.53199  0.13105999999999995  0.4330099999999999  1.0000
  C   C201      1.0  0.6948  0.39797  0.4528599999999999  1.0000
  C   C202      1.0  0.7087699999999999  0.33452999999999994  0.4141399999999999  1.0000
  C   C203      1.0  0.8523899999999999  0.39213  0.59577  1.0000
  C   C204      1.0  0.90318  0.41209  0.60589  1.0000
  C   C205      1.0  0.7094200000000004  0.36418  0.4549699999999999  1.0000
  C   C206      1.0  0.27509  0.58871  0.72018  1.0000
  C   C207      1.0  0.6949100000000001  0.3403100000000001  0.37398  1.0000
  C   C208      1.0  0.72581  0.36098000000000013  0.50011  1.0000
  C   C209      1.0  0.68044  0.401  0.41115999999999997  1.0000
  C   C210      1.0  0.22282  0.56815  0.70442  1.0000
  C   C211      1.0  0.99955  0.45119000000000015  0.62619  1.0000
  C   C212      1.0  0.18820000000000006  0.5239800000000002  0.6613499999999999  1.0000
  C   C213      1.0  0.12474999999999997  0.52848  0.67688  1.0000
  C   C214      1.0  0.9347599999999999  0.4625699999999999  0.6325999999999998  1.0000
  C   C215      1.0  0.20800000000000007  0.5926  0.7333  1.0000
  C   C216      1.0  0.13959999999999997  0.50399  0.6476399999999999  1.0000
  C   C217      1.0  0.15933999999999993  0.57327  0.7192799999999998  1.0000
  C   C218      1.0  0.92045  0.38146999999999986  0.5894799999999998  1.0000
  C   C219      1.0  0.9823400000000001  0.48204  0.64289  1.0000
  C   C220      1.0  0.96793  0.40088  0.59896  1.0000
  C   C221      1.0  0.4451  0.24199000000000007  0.04701  1.0000
  C   C222      1.0  0.4204  0.29462  0.08589999999999999  1.0000
  C   C223      1.0  0.29655000000000004  0.2568100000000001  0.90436  1.0000
  C   C224      1.0  0.30618  0.29740999999999984  0.8941499999999998  1.0000
  C   C225      1.0  0.40917  0.25446  0.04496  1.0000
  C   C226      1.0  0.36851999999999996  0.55477  0.7798099999999998  1.0000
  C   C227      1.0  0.46628  0.32078  0.12605  1.0000
  C   C228      1.0  0.36085  0.22574000000000002  0.9998  1.0000
  C   C229      1.0  0.48977999999999994  0.26922  0.08871  1.0000
  C   C230      1.0  0.3637  0.51829  0.79557  1.0000
  C   C231      1.0  0.32494  0.3733  0.87367  1.0000
  C   C232      1.0  0.36261999999999994  0.52691  0.83871  1.0000
  C   C233      1.0  0.35151000000000004  0.4478800000000001  0.82318  1.0000
  C   C234      1.0  0.3299299999999999  0.30215  0.86741  1.0000
  C   C235      1.0  0.35929  0.47462  0.7668  1.0000
  C   C236      1.0  0.35629  0.49199  0.85239  1.0000
  C   C237      1.0  0.35393999999999987  0.4399999999999999  0.7807899999999998  1.0000
  C   C238      1.0  0.29196000000000005  0.3311  0.9105  1.0000
  C   C239      1.0  0.33909  0.3393700000000001  0.8570399999999999  1.0000
  C   C240      1.0  0.3018899999999999  0.3690199999999999  0.9009199999999998  1.0000
  C   C241      1.0  0.95241  0.8990100000000002  0.19463999999999995  1.0000
  C   C242      1.0  0.9139000000000003  0.8354400000000002  0.20883  1.0000
  C   C243      1.0  0.09694999999999998  0.8936299999999999  0.3536699999999999  1.0000
  C   C244      1.0  0.10636999999999996  0.9133599999999998  0.40411999999999987  1.0000
  C   C245      1.0  0.95459  0.86544  0.20952  1.0000
  C   C246      1.0  0.22011000000000003  0.08833  0.77442  1.0000
  C   C247      1.0  0.8735199999999999  0.8407700000000002  0.19477  1.0000
  C   C248      1.0  0.99952  0.86187  0.22554  1.0000
  C   C249      1.0  0.91045  0.90155  0.18004  1.0000
  C   C250      1.0  0.20427999999999996  0.06809  0.72244  1.0000
  C   C251      1.0  0.12628  0.95153  0.50002  1.0000
  C   C252      1.0  0.16111999999999999  0.023899999999999966  0.68792  1.0000
  C   C253      1.0  0.17694999999999997  0.02862999999999995  0.6247099999999999  1.0000
  C   C254      1.0  0.1331199999999999  0.9637599999999998  0.4357699999999999  1.0000
  C   C255      1.0  0.23331  0.09270000000000005  0.70776  1.0000
  C   C256      1.0  0.14752999999999997  0.004009999999999939  0.6394099999999999  1.0000
  C   C257      1.0  0.21937  0.07342  0.65918  1.0000
  C   C258      1.0  0.08976000000000003  0.8823200000000001  0.42098  1.0000
  C   C259      1.0  0.14319  0.98276  0.48319  1.0000
  C   C260      1.0  0.0990200000000001  0.90129  0.46832  1.0000
  C   C261      1.0  0.54789  0.74232  0.9473999999999998  1.0000
  C   C262      1.0  0.5860500000000001  0.79493  0.9220599999999998  1.0000
  C   C263      1.0  0.4025  0.75697  0.79722  1.0000
  C   C264      1.0  0.39323  0.79811  0.80754  1.0000
  C   C265      1.0  0.5455  0.75508  0.91168  1.0000
  C   C266      1.0  0.28005  0.05439000000000001  0.86804  1.0000
  C   C267      1.0  0.6266  0.82125  0.9675799999999998  1.0000
  C   C268      1.0  0.5005599999999999  0.7260799999999998  0.8631699999999999  1.0000
  C   C269      1.0  0.58999  0.76965  0.9917  1.0000
  C   C270      1.0  0.29564  0.018089999999999995  0.86373  1.0000
  C   C271      1.0  0.37344  0.87386  0.82539  1.0000
  C   C272      1.0  0.33883  0.02687000000000002  0.86272  1.0000
  C   C273      1.0  0.3230699999999999  0.9479399999999999  0.8516699999999998  1.0000
  C   C274      1.0  0.36642999999999987  0.80297  0.83107  1.0000
  C   C275      1.0  0.26665000000000005  0.9744  0.85934  1.0000
  C   C276      1.0  0.3524700000000002  0.9920200000000005  0.85646  1.0000
  C   C277      1.0  0.28062  0.93982  0.85402  1.0000
  C   C278      1.0  0.4099199999999999  0.8313699999999999  0.7929499999999999  1.0000
  C   C279      1.0  0.35641  0.8403  0.83984  1.0000
  C   C280      1.0  0.40071999999999985  0.8694499999999998  0.8024599999999998  1.0000
  C   C281      1.0  0.29482  0.60046  0.55248  1.0000
  C   C282      1.0  0.37282000000000004  0.66395  0.57799  1.0000
  C   C283      1.0  0.4597900000000001  0.60534  0.70306  1.0000
  C   C284      1.0  0.49058000000000007  0.5858  0.69258  1.0000
  C   C285      1.0  0.34324  0.63372  0.58831  1.0000
  C   C286      1.0  0.68604  0.4115599999999999  0.6318099999999999  1.0000
  C   C287      1.0  0.35368  0.65899  0.53242  1.0000
  C   C288      1.0  0.3629200000000001  0.6374500000000002  0.63691  1.0000
  C   C289      1.0  0.27792  0.59831  0.50815  1.0000
  C   C290      1.0  0.65433  0.4318000000000001  0.63629  1.0000
  C   C291      1.0  0.54855  0.5480800000000002  0.6745799999999998  1.0000
  C   C292      1.0  0.66412  0.47598  0.63725  1.0000
  C   C293      1.0  0.59624  0.47131  0.64832  1.0000
  C   C294      1.0  0.47197  0.5354699999999999  0.6689399999999999  1.0000
  C   C295      1.0  0.61503  0.4072399999999999  0.6406899999999999  1.0000
  C   C296      1.0  0.63555  0.4959  0.64354  1.0000
  C   C297      1.0  0.58577  0.42651  0.64597  1.0000
  C   C298      1.0  0.5384600000000002  0.6170300000000002  0.7071  1.0000
  C   C299      1.0  0.50052  0.51666  0.66013  1.0000
  C   C300      1.0  0.56699  0.59828  0.6974899999999998  1.0000
  C   C301      1.0  0.2044300000000001  0.7578800000000002  0.30543  1.0000
  C   C302      1.0  0.12663999999999997  0.70518  0.29111999999999993  1.0000
  C   C303      1.0  0.03995999999999995  0.7432  0.14626  1.0000
  C   C304      1.0  0.009179999999999994  0.70215  0.09579999999999997  1.0000
  C   C305      1.0  0.15598  0.74517  0.29044  1.0000
  C   C306      1.0  0.81394  0.44566  0.72567  1.0000
  C   C307      1.0  0.14601000000000008  0.6788700000000002  0.30521  1.0000
  C   C308      1.0  0.13627999999999996  0.77392  0.27419  1.0000
  C   C309      1.0  0.22154000000000015  0.7305200000000004  0.32003  1.0000
  C   C310      1.0  0.84579  0.48201  0.7776  1.0000
  C   C311      1.0  0.95152  0.62631  0.9999099999999999  1.0000
  C   C312      1.0  0.83597  0.47322  0.81202  1.0000
  C   C313      1.0  0.90389  0.55223  0.87537  1.0000
  C   C314      1.0  0.02805  0.69736  0.06425  1.0000
  C   C315      1.0  0.8850799999999999  0.52576  0.7924099999999997  1.0000
  C   C316      1.0  0.8645399999999999  0.5080899999999999  0.8605399999999997  1.0000
  C   C317      1.0  0.91433  0.56031  0.84099  1.0000
  C   C318      1.0  0.96128  0.66868  0.07889  1.0000
  C   C319      1.0  0.99961  0.6600400000000002  0.01679  1.0000
  C   C320      1.0  0.9329  0.6306600000000002  0.03152  1.0000
  C   C321      1.0  0.10061  0.05292000000000002  0.29518  1.0000
  C   C322      1.0  0.1641199999999999  0.07828999999999994  0.3730499999999999  1.0000
  C   C323      1.0  0.10574000000000001  0.20319000000000004  0.45996  1.0000
  C   C324      1.0  0.08606000000000004  0.19273  0.49068  1.0000
  C   C325      1.0  0.13395  0.08875  0.34361  1.0000
  C   C326      1.0  0.9117200000000001  0.13185000000000005  0.6864  1.0000
  C   C327      1.0  0.15913  0.03278999999999999  0.35387  1.0000
  C   C328      1.0  0.13773  0.13728  0.36325  1.0000
  C   C329      1.0  0.09838  0.00863  0.27821  1.0000
  C   C330      1.0  0.9318699999999999  0.13624999999999995  0.6545599999999998  1.0000
  C   C331      1.0  0.04815  0.17461  0.54854  1.0000
  C   C332      1.0  0.976  0.13724999999999996  0.6642499999999998  1.0000
  C   C333      1.0  0.97128  0.14830000000000004  0.59632  1.0000
  C   C334      1.0  0.03569999999999997  0.16908999999999996  0.47201999999999994  1.0000
  C   C335      1.0  0.9072400000000002  0.14062999999999995  0.61526  1.0000
  C   C336      1.0  0.9959  0.14351  0.63563  1.0000
  C   C337      1.0  0.9265299999999999  0.14593999999999993  0.58597  1.0000
  C   C338      1.0  0.11728  0.20725  0.53855  1.0000
  C   C339      1.0  0.016750000000000004  0.16019  0.5005  1.0000
  C   C340      1.0  0.09838000000000002  0.19759000000000004  0.567  1.0000
  C   C341      1.0  0.25771  0.80557  0.20539  1.0000
  C   C342      1.0  0.20525  0.79101  0.12737  1.0000
  C   C343      1.0  0.24318  0.64537  0.04041  1.0000
  C   C344      1.0  0.20192  0.59501  0.00948  1.0000
  C   C345      1.0  0.24506000000000003  0.79037  0.15697  1.0000
  C   C346      1.0  0.9453999999999999  0.2252  0.8137299999999997  1.0000
  C   C347      1.0  0.17885  0.80519  0.14639  1.0000
  C   C348      1.0  0.27418  0.77462  0.13769  1.0000
  C   C349      1.0  0.23035999999999995  0.82035  0.22222  1.0000
  C   C350      1.0  0.98182  0.27715  0.84559  1.0000
  C   C351      1.0  0.12588999999999995  0.4994  0.9514299999999998  1.0000
  C   C352      1.0  0.9729699999999999  0.31154  0.83577  1.0000
  C   C353      1.0  0.0518999999999999  0.3748499999999999  0.9036599999999998  1.0000
  C   C354      1.0  0.19684  0.56323  0.02805  1.0000
  C   C355      1.0  0.02552  0.29196  0.88488  1.0000
  C   C356      1.0  0.007820000000000061  0.3600600000000001  0.86435  1.0000
  C   C357      1.0  0.0600499999999999  0.3405299999999999  0.9141299999999998  1.0000
  C   C358      1.0  0.16867999999999997  0.57856  0.96167  1.0000
  C   C359      1.0  0.15937999999999997  0.51588  0.9993999999999998  1.0000
  C   C360      1.0  0.13046999999999984  0.5312599999999997  0.9330499999999998  1.0000
  C   C361      1.0  0.39966  0.69428  0.9519099999999998  1.0000
  C   C362      1.0  0.33621  0.70875  0.91391  1.0000
  C   C363      1.0  0.39497  0.85458  0.09779  1.0000
  C   C364      1.0  0.41465  0.90502  0.10701  1.0000
  C   C365      1.0  0.3664299999999998  0.7093899999999997  0.9543599999999998  1.0000
  C   C366      1.0  0.58848  0.27518  0.22036  1.0000
  C   C367      1.0  0.34115999999999996  0.6945499999999999  0.8733199999999998  1.0000
  C   C368      1.0  0.3629099999999999  0.7254799999999999  0.9993499999999998  1.0000
  C   C369      1.0  0.40176999999999996  0.67949  0.90974  1.0000
  C   C370      1.0  0.5682300000000001  0.22305000000000005  0.20451  1.0000
  C   C371      1.0  0.45203  0.0005899999999999897  0.12651  1.0000
  C   C372      1.0  0.5241  0.18853  0.16135  1.0000
  C   C373      1.0  0.52889  0.12536  0.17707  1.0000
  C   C374      1.0  0.4649600000000001  0.9368800000000003  0.1337  1.0000
  C   C375      1.0  0.5928799999999999  0.20839000000000002  0.23350999999999997  1.0000
  C   C376      1.0  0.50422  0.13998  0.14764  1.0000
  C   C377      1.0  0.57364  0.15978  0.21948999999999994  1.0000
  C   C378      1.0  0.3832100000000001  0.9213800000000002  0.09023  1.0000
  C   C379      1.0  0.48363  0.98425  0.1436  1.0000
  C   C380      1.0  0.40182  0.96868  0.0993  1.0000
  C   C381      1.0  0.24225  0.44716  0.54786  1.0000
  C   C382      1.0  0.29488999999999993  0.42200000000000004  0.5861199999999999  1.0000
  C   C383      1.0  0.25694  0.29704  0.4027  1.0000
  C   C384      1.0  0.29805  0.3073  0.39334  1.0000
  C   C385      1.0  0.25498  0.41147  0.54553  1.0000
  C   C386      1.0  0.5549  0.36837  0.27992999999999996  1.0000
  C   C387      1.0  0.32119  0.46759000000000006  0.62658  1.0000
  C   C388      1.0  0.22612  0.36294  0.50055  1.0000
  C   C389      1.0  0.2696  0.49152  0.58992  1.0000
  C   C390      1.0  0.51839  0.36374  0.2954699999999999  1.0000
  C   C391      1.0  0.37388000000000005  0.3254  0.37342  1.0000
  C   C392      1.0  0.52707  0.36271  0.3386499999999999  1.0000
  C   C393      1.0  0.4481299999999999  0.35163  0.32295  1.0000
  C   C394      1.0  0.30296  0.33091999999999994  0.3665799999999999  1.0000
  C   C395      1.0  0.4747  0.35932  0.26655  1.0000
  C   C396      1.0  0.49219  0.35641999999999996  0.3522899999999999  1.0000
  C   C397      1.0  0.44008  0.35398000000000013  0.28049  1.0000
  C   C398      1.0  0.33135  0.29277  0.40997  1.0000
  C   C399      1.0  0.3403  0.33981  0.3564999999999999  1.0000
  C   C400      1.0  0.3694400000000001  0.3024300000000001  0.40072  1.0000
  C   C401      1.0  0.94711  0.04781999999999998  0.24234999999999998  1.0000
  C   C402      1.0  0.92183  0.08594999999999997  0.29483999999999994  1.0000
  C   C403      1.0  0.7969400000000001  0.9026800000000003  0.25685  1.0000
  C   C404      1.0  0.8072999999999999  0.8933399999999999  0.2979799999999999  1.0000
  C   C405      1.0  0.91128  0.04537000000000002  0.25494  1.0000
  C   C406      1.0  0.8682600000000001  0.77989  0.55477  1.0000
  C   C407      1.0  0.9674500000000001  0.12641999999999998  0.32114999999999994  1.0000
  C   C408      1.0  0.86273  0.0004099999999999924  0.22594  1.0000
  C   C409      1.0  0.99151  0.08988000000000003  0.26969  1.0000
  C   C410      1.0  0.86372  0.79558  0.51837  1.0000
  C   C411      1.0  0.8253600000000002  0.8734500000000002  0.37382  1.0000
  C   C412      1.0  0.86272  0.8387099999999998  0.52704  1.0000
  C   C413      1.0  0.85167  0.82304  0.44814  1.0000
  C   C414      1.0  0.83092  0.86662  0.30290999999999996  1.0000
  C   C415      1.0  0.8593499999999998  0.7666600000000001  0.4747499999999999  1.0000
  C   C416      1.0  0.8564700000000001  0.8524000000000002  0.49216  1.0000
  C   C417      1.0  0.8540400000000001  0.78067  0.44015  1.0000
  C   C418      1.0  0.79281  0.90997  0.33127  1.0000
  C   C419      1.0  0.8397700000000001  0.8565499999999999  0.3402799999999999  1.0000
  C   C420      1.0  0.8024200000000001  0.9006900000000002  0.36934999999999996  1.0000
  C   C421      1.0  0.19446000000000005  0.4521200000000001  0.3993  1.0000
  C   C422      1.0  0.20889  0.41405  0.3359099999999999  1.0000
  C   C423      1.0  0.35415  0.59737  0.3942699999999999  1.0000
  C   C424      1.0  0.4046  0.6066600000000001  0.4139799999999999  1.0000
  C   C425      1.0  0.20954  0.45455  0.36598  1.0000
  C   C426      1.0  0.77507  0.72034  0.58859  1.0000
  C   C427      1.0  0.19475  0.37355  0.34106  1.0000
  C   C428      1.0  0.22547999999999999  0.49945  0.3623099999999999  1.0000
  C   C429      1.0  0.17977000000000004  0.4100400000000001  0.40165  1.0000
  C   C430      1.0  0.72295  0.7046000000000002  0.56827  1.0000
  C   C431      1.0  0.50033  0.62634  0.45177  1.0000
  C   C432      1.0  0.6884000000000001  0.66147  0.52413  1.0000
  C   C433      1.0  0.62515  0.6770300000000002  0.52881  1.0000
  C   C434      1.0  0.43639  0.63338  0.46431  1.0000
  C   C435      1.0  0.70823  0.7335  0.59281  1.0000
  C   C436      1.0  0.6398700000000002  0.6477500000000003  0.50426  1.0000
  C   C437      1.0  0.65963  0.71947  0.57358  1.0000
  C   C438      1.0  0.42117  0.58998  0.38278  1.0000
  C   C439      1.0  0.48377000000000003  0.64332  0.4831399999999999  1.0000
  C   C440      1.0  0.46849  0.59913  0.4015499999999999  1.0000
  C   C441      1.0  0.30563  0.70497  0.25766  1.0000
  C   C442      1.0  0.29118000000000005  0.6271500000000002  0.20521999999999999  1.0000
  C   C443      1.0  0.14581  0.54024  0.24331999999999998  1.0000
  C   C444      1.0  0.09547000000000001  0.50942  0.20205999999999993  1.0000
  C   C445      1.0  0.2905500000000001  0.6566100000000002  0.24504999999999996  1.0000
  C   C446      1.0  0.7256200000000002  0.31368  0.94574  1.0000
  C   C447      1.0  0.30541  0.64645  0.17885999999999996  1.0000
  C   C448      1.0  0.27442  0.63689  0.27389  1.0000
  C   C449      1.0  0.32041  0.7220000000000002  0.23027999999999996  1.0000
  C   C450      1.0  0.7775599999999999  0.34577999999999987  0.9820899999999998  1.0000
  C   C451      1.0  0.9997500000000001  0.45153  0.12615  1.0000
  C   C452      1.0  0.81199  0.33608  0.97335  1.0000
  C   C453      1.0  0.8752300000000001  0.4039600000000001  0.05219999999999999  1.0000
  C   C454      1.0  0.06377999999999996  0.52807  0.19708  1.0000
  C   C455      1.0  0.79227  0.3850400000000001  0.02571  1.0000
  C   C456      1.0  0.86052  0.3647  0.00815  1.0000
  C   C457      1.0  0.8408600000000002  0.4143300000000001  0.060249999999999984  1.0000
  C   C458      1.0  0.07884999999999998  0.4616100000000001  0.16875999999999994  1.0000
  C   C459      1.0  0.01638000000000005  0.4995100000000001  0.15971  1.0000
  C   C460      1.0  0.031499999999999986  0.43309  0.13067  1.0000
  C   C461      1.0  0.55273  0.79509  0.10068  1.0000
  C   C462      1.0  0.57814  0.8729  0.16407999999999995  1.0000
  C   C463      1.0  0.70313  0.95987  0.10574  1.0000
  C   C464      1.0  0.69265  0.99056  0.08607  1.0000
  C   C465      1.0  0.58855  0.84347  0.13396  1.0000
  C   C466      1.0  0.6317799999999998  0.1860499999999999  0.9117099999999998  1.0000
  C   C467      1.0  0.53252  0.85363  0.15901  1.0000
  C   C468      1.0  0.63717  0.86333  0.13769  1.0000
  C   C469      1.0  0.50836  0.77808  0.09842999999999999  1.0000
  C   C470      1.0  0.63625  0.15424000000000002  0.93187  1.0000
  C   C471      1.0  0.67466  0.04846000000000002  0.04825  1.0000
  C   C472      1.0  0.63727  0.16396000000000002  0.97603  1.0000
  C   C473      1.0  0.64831  0.09615999999999995  0.97141  1.0000
  C   C474      1.0  0.66905  0.97196  0.03572  1.0000
  C   C475      1.0  0.64067  0.11502999999999995  0.90734  1.0000
  C   C476      1.0  0.64355  0.1354099999999999  0.9959799999999998  1.0000
  C   C477      1.0  0.6459700000000003  0.08578000000000001  0.92666  1.0000
  C   C478      1.0  0.70717  0.038369999999999994  0.11725999999999999  1.0000
  C   C479      1.0  0.66023  0.0004999999999999998  0.01686  1.0000
  C   C480      1.0  0.6975900000000002  0.06687999999999998  0.09844999999999998  1.0000
  N   N1        1.0  0.12782999999999994  0.0012299999999999217  0.8087199999999998  1.0000
  N   N2        1.0  0.8323299999999998  0.8443499999999999  0.9096199999999998  1.0000
  N   N3        1.0  0.8646500000000001  0.8320000000000001  0.9125599999999998  1.0000
  N   N4        1.0  0.37286000000000014  0.18136000000000002  0.87305  1.0000
  N   N5        1.0  0.66752  0.57668  0.011659999999999997  1.0000
  N   N6        1.0  0.6351  0.54713  0.96691  1.0000
  N   N7        1.0  0.6918000000000001  0.3185  0.69147  1.0000
  N   N8        1.0  0.4349400000000001  0.9233100000000002  0.59083  1.0000
  N   N9        1.0  0.41968  0.95276  0.58785  1.0000
  N   N10       1.0  0.8075199999999999  0.49879999999999997  0.6266499999999999  1.0000
  N   N11       1.0  0.06535999999999992  0.6556799999999999  0.4879799999999999  1.0000
  N   N12       1.0  0.0806  0.66795  0.53267  1.0000
  N   N13       1.0  0.87311  0.8722199999999999  0.6808499999999997  1.0000
  N   N14       1.0  0.01191000000000001  0.16761000000000004  0.077  1.0000
  N   N15       1.0  0.9671500000000001  0.13513  0.047499999999999994  1.0000
  N   N16       1.0  0.80872  0.62812  0.50147  1.0000
  N   N17       1.0  0.90967  0.33224  0.34434  1.0000
  N   N18       1.0  0.9126100000000003  0.3646499999999999  0.33204999999999996  1.0000
  N   N19       1.0  0.62663  0.3075  0.99887  1.0000
  N   N20       1.0  0.48786  0.56545  0.15560999999999997  1.0000
  N   N21       1.0  0.53253  0.58064  0.16789  1.0000
  N   N22       1.0  0.69146  0.19213  0.8188  1.0000
  N   N23       1.0  0.59046  0.9347  0.42273  1.0000
  N   N24       1.0  0.58746  0.9194799999999999  0.45221  1.0000
  N   N25       1.0  0.9995600000000001  0.12701000000000004  0.80804  1.0000
  N   N26       1.0  0.15578999999999998  0.98826  0.065  1.0000
  N   N27       1.0  0.16812  0.033  0.08025  1.0000
  N   N28       1.0  0.8189599999999998  0.19146999999999983  0.6920099999999998  1.0000
  N   N29       1.0  0.42327999999999993  0.09082999999999994  0.43503999999999987  1.0000
  N   N30       1.0  0.45273  0.08786999999999998  0.41976999999999987  1.0000
  N   N31       1.0  0.68094  0.3729700000000001  0.37232999999999994  1.0000
  N   N32       1.0  0.07688000000000003  0.51174  0.66752  1.0000
  N   N33       1.0  0.04730999999999995  0.46704999999999997  0.6350499999999999  1.0000
  N   N34       1.0  0.5006  0.3084600000000001  0.1277  1.0000
  N   N35       1.0  0.34413  0.40931  0.83241  1.0000
  N   N36       1.0  0.3319  0.41218  0.86484  1.0000
  N   N37       1.0  0.8718  0.8733200000000002  0.18062999999999996  1.0000
  N   N38       1.0  0.16766  0.011960000000000021  0.57701  1.0000
  N   N39       1.0  0.13519000000000003  0.96718  0.54762  1.0000
  N   N40       1.0  0.62853  0.80883  0.0019  1.0000
  N   N41       1.0  0.33228000000000013  0.9095400000000002  0.84436  1.0000
  N   N42       1.0  0.3646  0.9125399999999999  0.8319599999999998  1.0000
  N   N43       1.0  0.30699  0.62668  0.49804  1.0000
  N   N44       1.0  0.5652  0.48789  0.65562  1.0000
  N   N45       1.0  0.58065  0.5326500000000002  0.66803  1.0000
  N   N46       1.0  0.19268000000000005  0.69126  0.31939  1.0000
  N   N47       1.0  0.9349199999999999  0.5907099999999997  0.9230299999999998  1.0000
  N   N48       1.0  0.91948  0.5875800000000002  0.95232  1.0000
  N   N49       1.0  0.12674000000000002  0.9984200000000001  0.30716  1.0000
  N   N50       1.0  0.9878699999999999  0.15561999999999995  0.56523  1.0000
  N   N51       1.0  0.032600000000000004  0.16793000000000005  0.58057  1.0000
  N   N52       1.0  0.19121000000000005  0.81959  0.19309  1.0000
  N   N53       1.0  0.09031000000000002  0.42255  0.93474  1.0000
  N   N54       1.0  0.08717999999999992  0.4518199999999999  0.9193099999999997  1.0000
  N   N55       1.0  0.37341999999999986  0.6802  0.8713399999999998  1.0000
  N   N56       1.0  0.51223  0.0776  0.16769  1.0000
  N   N57       1.0  0.46753  0.04819  0.13533999999999996  1.0000
  N   N58       1.0  0.3088  0.50184  0.62846  1.0000
  N   N59       1.0  0.40966  0.34435  0.33217  1.0000
  N   N60       1.0  0.41262  0.33207  0.36458999999999997  1.0000
  N   N61       1.0  0.0017800000000000318  0.12842000000000006  0.30883  1.0000
  N   N62       1.0  0.84437  0.83231  0.4096799999999999  1.0000
  N   N63       1.0  0.83207  0.8646500000000003  0.4126099999999999  1.0000
  N   N64       1.0  0.18052999999999997  0.37163999999999997  0.37345999999999996  1.0000
  N   N65       1.0  0.57736  0.66758  0.51208  1.0000
  N   N66       1.0  0.5479699999999998  0.6351999999999999  0.46739999999999987  1.0000
  N   N67       1.0  0.3198  0.69307  0.19123  1.0000
  N   N68       1.0  0.92294  0.43498000000000003  0.09057999999999998  1.0000
  N   N69       1.0  0.9521400000000001  0.41949000000000014  0.08748  1.0000
  N   N70       1.0  0.49816000000000005  0.807  0.12671  1.0000
  N   N71       1.0  0.65563  0.06511000000000004  0.98801  1.0000
  N   N72       1.0  0.66806  0.08052000000000001  0.03276  1.0000
  O   O1        1.0  0.005019999999999906  0.82742  0.7291  1.0000
  O   O2        1.0  0.89083  0.81574  0.73132  1.0000
  O   O3        1.0  0.96186  0.86097  0.70018  1.0000
  O   O4        1.0  0.73772  0.86359  0.042119999999999984  1.0000
  O   O5        1.0  0.9221099999999999  0.7700300000000001  0.7504199999999998  1.0000
  O   O6        1.0  0.8096600000000002  0.8765700000000002  0.09553999999999997  1.0000
  O   O7        1.0  0.4961899999999999  0.22711999999999982  0.8218199999999998  1.0000
  O   O8        1.0  0.60905  0.33901000000000003  0.92251  1.0000
  O   O9        1.0  0.53802  0.23643  0.89653  1.0000
  O   O10       1.0  0.76224  0.80422  0.12589  1.0000
  O   O11       1.0  0.57423  0.32578  0.84525  1.0000
  O   O12       1.0  0.69031  0.78583  0.06701  1.0000
  O   O13       1.0  0.5943799999999998  0.2721099999999999  0.7683699999999998  1.0000
  O   O14       1.0  0.5835600000000001  0.16086000000000006  0.76978  1.0000
  O   O15       1.0  0.6602599999999997  0.2637699999999998  0.8017699999999998  1.0000
  O   O16       1.0  0.32157  0.69572  0.45776  1.0000
  O   O17       1.0  0.5196600000000001  0.17425999999999983  0.7485099999999998  1.0000
  O   O18       1.0  0.28107999999999994  0.71432  0.40445999999999993  1.0000
  O   O19       1.0  0.90202  0.67257  0.67757  1.0000
  O   O20       1.0  0.91569  0.68438  0.57528  1.0000
  O   O21       1.0  0.8391900000000001  0.6392600000000003  0.60104  1.0000
  O   O22       1.0  0.17855999999999994  0.63648  0.37403  1.0000
  O   O23       1.0  0.9806800000000001  0.7299799999999999  0.6523199999999999  1.0000
  O   O24       1.0  0.21880999999999998  0.62325  0.4328499999999999  1.0000
  O   O25       1.0  0.82292  0.9958500000000001  0.72617  1.0000
  O   O26       1.0  0.92395  0.10883999999999996  0.8395999999999999  1.0000
  O   O27       1.0  0.8986899999999999  0.038009999999999884  0.7379999999999998  1.0000
  O   O28       1.0  0.12594999999999998  0.26228999999999997  0.30442999999999987  1.0000
  O   O29       1.0  0.8467300000000001  0.07655  0.82707  1.0000
  O   O30       1.0  0.06665  0.19044  0.2859  1.0000
  O   O31       1.0  0.7294400000000002  0.50524  0.32792999999999994  1.0000
  O   O32       1.0  0.7315  0.39092  0.31601  1.0000
  O   O33       1.0  0.70049  0.46203999999999995  0.36139  1.0000
  O   O34       1.0  0.04212000000000003  0.23767000000000005  0.36357  1.0000
  O   O35       1.0  0.7505100000000002  0.4220000000000001  0.27011  1.0000
  O   O36       1.0  0.09561  0.30963  0.37655  1.0000
  O   O37       1.0  0.67772  0.40134  0.17238999999999993  1.0000
  O   O38       1.0  0.57481  0.41551  0.18406999999999998  1.0000
  O   O39       1.0  0.6007  0.33926999999999996  0.139  1.0000
  O   O40       1.0  0.37398  0.67871  0.13639  1.0000
  O   O41       1.0  0.65188  0.4804900000000001  0.22984  1.0000
  O   O42       1.0  0.43279000000000006  0.71902  0.12318  1.0000
  O   O43       1.0  0.77016  0.09685000000000002  0.77441  1.0000
  O   O44       1.0  0.76894  0.08426999999999998  0.6602199999999999  1.0000
  O   O45       1.0  0.8004800000000001  0.16053  0.76216  1.0000
  O   O46       1.0  0.45766000000000007  0.8213800000000001  0.19519  1.0000
  O   O47       1.0  0.7492399999999999  0.01964999999999999  0.67287  1.0000
  O   O48       1.0  0.40421  0.78122  0.21386  1.0000
  O   O49       1.0  0.17405999999999996  0.17797000000000002  0.90473  1.0000
  O   O50       1.0  0.18617  0.07707  0.91631  1.0000
  O   O51       1.0  0.14111000000000007  0.10293000000000001  0.83995  1.0000
  O   O52       1.0  0.13654  0.87432  0.17847  1.0000
  O   O53       1.0  0.22898999999999994  0.1544  0.98029  1.0000
  O   O54       1.0  0.12312000000000002  0.93287  0.21855  1.0000
  O   O55       1.0  0.77341  0.26950999999999997  0.59551  1.0000
  O   O56       1.0  0.66082  0.26956  0.58405  1.0000
  O   O57       1.0  0.76331  0.30133  0.66033  1.0000
  O   O58       1.0  0.19584  0.95803  0.3215399999999999  1.0000
  O   O59       1.0  0.674  0.24886000000000005  0.51993  1.0000
  O   O60       1.0  0.21434  0.90472  0.28109  1.0000
  O   O61       1.0  0.72682  0.3222600000000001  0.49609  1.0000
  O   O62       1.0  0.8390900000000001  0.42286  0.6088499999999998  1.0000
  O   O63       1.0  0.73694  0.39718  0.5379  1.0000
  O   O64       1.0  0.30451  0.62602  0.7622  1.0000
  O   O65       1.0  0.8258700000000003  0.34563  0.57453  1.0000
  O   O66       1.0  0.2860500000000001  0.5670600000000002  0.6903999999999998  1.0000
  O   O67       1.0  0.32621  0.23092  0.00378  1.0000
  O   O68       1.0  0.3143499999999999  0.2305799999999999  0.8913899999999998  1.0000
  O   O69       1.0  0.3592599999999999  0.1989699999999999  0.9620699999999998  1.0000
  O   O70       1.0  0.36359  0.54197  0.73758  1.0000
  O   O71       1.0  0.2713399999999999  0.25145999999999996  0.9256299999999998  1.0000
  O   O72       1.0  0.37687999999999994  0.59552  0.8095299999999997  1.0000
  O   O73       1.0  0.9944099999999999  0.82237  0.22444  1.0000
  O   O74       1.0  0.10897999999999997  0.92468  0.34019999999999995  1.0000
  O   O75       1.0  0.03776999999999996  0.89868  0.23802999999999996  1.0000
  O   O76       1.0  0.26210999999999984  0.12593999999999986  0.8038499999999997  1.0000
  O   O77       1.0  0.0780300000000001  0.8476700000000003  0.32823999999999987  1.0000
  O   O78       1.0  0.19035  0.06608999999999997  0.78521  1.0000
  O   O79       1.0  0.5060299999999999  0.7300699999999999  0.8290699999999998  1.0000
  O   O80       1.0  0.39095000000000013  0.73177  0.81672  1.0000
  O   O81       1.0  0.46229000000000003  0.70041  0.86175  1.0000
  O   O82       1.0  0.23793  0.04179999999999998  0.86341  1.0000
  O   O83       1.0  0.42063  0.75007  0.76973  1.0000
  O   O84       1.0  0.3098  0.09487999999999998  0.8755899999999999  1.0000
  O   O85       1.0  0.40088  0.67697  0.67097  1.0000
  O   O86       1.0  0.41499  0.57406  0.68324  1.0000
  O   O87       1.0  0.3386799999999999  0.60039  0.6382699999999999  1.0000
  O   O88       1.0  0.67846  0.37449  0.63707  1.0000
  O   O89       1.0  0.48045000000000004  0.6509  0.73081  1.0000
  O   O90       1.0  0.71846  0.4331500000000001  0.62336  1.0000
  O   O91       1.0  0.09760000000000009  0.76954  0.27469  1.0000
  O   O92       1.0  0.08447999999999993  0.76871  0.15979  1.0000
  O   O93       1.0  0.16083000000000003  0.79991  0.26203  1.0000
  O   O94       1.0  0.8216  0.45846  0.69614  1.0000
  O   O95       1.0  0.019399999999999997  0.74972  0.17162999999999995  1.0000
  O   O96       1.0  0.78146  0.4049000000000001  0.71491  1.0000
  O   O97       1.0  0.17738000000000004  0.17147000000000007  0.40124  1.0000
  O   O98       1.0  0.07457999999999998  0.18372  0.41529  1.0000
  O   O99       1.0  0.10076999999999998  0.13873000000000002  0.3390699999999999  1.0000
  O   O100      1.0  0.8745100000000001  0.13676999999999995  0.6785999999999998  1.0000
  O   O101      1.0  0.15146  0.23068  0.4806  1.0000
  O   O102      1.0  0.9336699999999999  0.12384999999999985  0.7191199999999998  1.0000
  O   O103      1.0  0.27097  0.77675  0.10007999999999997  1.0000
  O   O104      1.0  0.26784  0.65902  0.08522999999999997  1.0000
  O   O105      1.0  0.29933000000000004  0.7614900000000001  0.16177999999999995  1.0000
  O   O106      1.0  0.95816  0.19568  0.82143  1.0000
  O   O107      1.0  0.25049000000000005  0.6701900000000002  0.01968  1.0000
  O   O108      1.0  0.90469  0.21443999999999994  0.7812899999999998  1.0000
  O   O109      1.0  0.32362999999999986  0.7242  0.99417  1.0000
  O   O110      1.0  0.42617  0.84096  0.10899  1.0000
  O   O111      1.0  0.40008  0.73822  0.03761999999999999  1.0000
  O   O112      1.0  0.62581  0.30459  0.26239  1.0000
  O   O113      1.0  0.34945999999999994  0.82968  0.08006  1.0000
  O   O114      1.0  0.5664100000000001  0.28593  0.19047999999999995  1.0000
  O   O115      1.0  0.23021999999999995  0.32878999999999997  0.5058399999999998  1.0000
  O   O116      1.0  0.23163999999999996  0.31628999999999996  0.39089999999999997  1.0000
  O   O117      1.0  0.20042  0.36151  0.4623  1.0000
  O   O118      1.0  0.54209  0.3634900000000001  0.23768  1.0000
  O   O119      1.0  0.25022  0.26979999999999993  0.42124999999999996  1.0000
  O   O120      1.0  0.59556  0.37646000000000013  0.3097  1.0000
  O   O121      1.0  0.82841  0.00564000000000001  0.22974  1.0000
  O   O122      1.0  0.81618  0.8909199999999999  0.23156999999999997  1.0000
  O   O123      1.0  0.86134  0.96219  0.20038  1.0000
  O   O124      1.0  0.86355  0.73783  0.54212  1.0000
  O   O125      1.0  0.76971  0.92122  0.2501  1.0000
  O   O126      1.0  0.8761500000000002  0.8096300000000003  0.59536  1.0000
  O   O127      1.0  0.22412  0.49417  0.3228  1.0000
  O   O128      1.0  0.3405900000000001  0.60914  0.42526  1.0000
  O   O129      1.0  0.2380600000000001  0.5377200000000002  0.39908  1.0000
  O   O130      1.0  0.80448  0.7624  0.62601  1.0000
  O   O131      1.0  0.3289599999999999  0.57889  0.34849999999999987  1.0000
  O   O132      1.0  0.78595  0.69061  0.5668  1.0000
  O   O133      1.0  0.27556  0.59866  0.26983  1.0000
  O   O134      1.0  0.15938  0.58489  0.26837  1.0000
  O   O135      1.0  0.26185  0.66111  0.29957  1.0000
  O   O136      1.0  0.69601  0.32141  0.9581899999999998  1.0000
  O   O137      1.0  0.17084  0.5196  0.25039  1.0000
  O   O138      1.0  0.7150100000000001  0.2808700000000001  0.90531  1.0000
  O   O139      1.0  0.67129  0.90157  0.17705  1.0000
  O   O140      1.0  0.6837800000000003  0.91525  0.07466  1.0000
  O   O141      1.0  0.63865  0.8390200000000002  0.10084999999999997  1.0000
  O   O142      1.0  0.63674  0.17838999999999997  0.87451  1.0000
  O   O143      1.0  0.73059  0.98049  0.15148  1.0000
  O   O144      1.0  0.62363  0.21857999999999994  0.93346  1.0000
  O   O145      1.0  0.8950099999999999  0.7502199999999999  0.6450099999999998  1.0000
  O   O146      1.0  0.6073200000000002  0.2500500000000001  0.85707  1.0000
  O   O147      1.0  0.85612  0.10580999999999985  0.7496399999999998  1.0000
  O   O148      1.0  0.64507  0.3951  0.25007  1.0000
  O   O149      1.0  0.25048999999999993  0.14321999999999993  0.8931899999999999  1.0000
  O   O150      1.0  0.7497100000000001  0.35673999999999995  0.6069499999999999  1.0000
  O   O151      1.0  0.10497999999999995  0.85499  0.25005999999999995  1.0000
  O   O152      1.0  0.39633  0.64631  0.75004  1.0000
  O   O153      1.0  0.1458999999999999  0.2500999999999999  0.39595999999999987  1.0000
  O   O154      1.0  0.35344  0.74994  0.10338999999999997  1.0000
  O   O155      1.0  0.7501100000000002  0.8956800000000003  0.14571  1.0000
  O   O156      1.0  0.25005999999999995  0.60437  0.35416999999999993  1.0000
