data_image0
_chemical_formula_structural       Cu12H288C384N96O48
_chemical_formula_sum              "Cu12 H288 C384 N96 O48"
_cell_length_a       15.09647
_cell_length_b       28.505159999999997
_cell_length_c       57.69486
_cell_angle_alpha    89.98046
_cell_angle_beta     90.10398000000002
_cell_angle_gamma    90.01149

_space_group_name_H-M_alt    "P 1"
_space_group_IT_number       1

loop_
  _space_group_symop_operation_xyz
  'x, y, z'

loop_
  _atom_site_type_symbol
  _atom_site_label
  _atom_site_symmetry_multiplicity
  _atom_site_fract_x
  _atom_site_fract_y
  _atom_site_fract_z
  _atom_site_occupancy
  Cu  Cu1       1.0  0.8807700000000003  0.48394  0.40783  1.0000
  Cu  Cu2       1.0  0.61887  0.01427  0.40832  1.0000
  Cu  Cu3       1.0  0.88109  0.51593  0.90785  1.0000
  Cu  Cu4       1.0  0.61856  0.98486  0.90803  1.0000
  Cu  Cu5       1.0  0.25225  0.75012  0.16015999999999997  1.0000
  Cu  Cu6       1.0  0.25183  0.24989000000000003  0.66004  1.0000
  Cu  Cu7       1.0  0.11937000000000003  0.48378  0.09211  1.0000
  Cu  Cu8       1.0  0.3816700000000001  0.01481  0.0918  1.0000
  Cu  Cu9       1.0  0.11909  0.5163  0.5922299999999999  1.0000
  Cu  Cu10      1.0  0.38136  0.98482  0.59192  1.0000
  Cu  Cu11      1.0  0.7480300000000002  0.75027  0.33987  1.0000
  Cu  Cu12      1.0  0.7481600000000003  0.24998  0.83973  1.0000
  H   H1        1.0  0.50949  0.50894  0.34306  1.0000
  H   H2        1.0  0.29357  0.61131  0.25178  1.0000
  H   H3        1.0  0.25618  0.55894  0.35599999999999987  1.0000
  H   H4        1.0  0.8384200000000003  0.5532  0.37418  1.0000
  H   H5        1.0  0.70786  0.58386  0.35319  1.0000
  H   H6        1.0  0.58526  0.4482499999999999  0.36295  1.0000
  H   H7        1.0  0.72173  0.42278  0.38299  1.0000
  H   H8        1.0  0.21642  0.6564  0.17734  1.0000
  H   H9        1.0  0.22431000000000004  0.61644  0.21547  1.0000
  H   H10       1.0  0.4159  0.72069  0.23664  1.0000
  H   H11       1.0  0.4003  0.7561100000000001  0.19746  1.0000
  H   H12       1.0  0.05162  0.54411  0.41456  1.0000
  H   H13       1.0  0.1867  0.56004  0.39176  1.0000
  H   H14       1.0  0.05521  0.49895  0.33234  1.0000
  H   H15       1.0  0.92565  0.48455  0.35791  1.0000
  H   H16       1.0  0.51332  0.63268  0.2970999999999999  1.0000
  H   H17       1.0  0.23669  0.5985200000000002  0.28629  1.0000
  H   H18       1.0  0.3809  0.53375  0.34197  1.0000
  H   H19       1.0  0.25534  0.63869  0.05904  1.0000
  H   H20       1.0  0.50339  0.52306  0.97021  1.0000
  H   H21       1.0  0.25853  0.56647  0.96514  1.0000
  H   H22       1.0  0.35719  0.67018  0.14801  1.0000
  H   H23       1.0  0.40101  0.63156  0.11109  1.0000
  H   H24       1.0  0.15852  0.6851  0.08106  1.0000
  H   H25       1.0  0.12584  0.72236  0.11883999999999999  1.0000
  H   H26       1.0  0.69393  0.47258999999999995  0.91352  1.0000
  H   H27       1.0  0.56279  0.48731  0.9375  1.0000
  H   H28       1.0  0.71853  0.58657  0.97702  1.0000
  H   H29       1.0  0.84334  0.56894  0.95061  1.0000
  H   H30       1.0  0.04913  0.58023  0.9073299999999999  1.0000
  H   H31       1.0  0.18503  0.58632  0.93115  1.0000
  H   H32       1.0  0.05432000000000001  0.50182  0.98318  1.0000
  H   H33       1.0  0.92452  0.49844  0.9572399999999998  1.0000
  H   H34       1.0  0.52067  0.6016  0.03636  1.0000
  H   H35       1.0  0.3816700000000001  0.54326  0.97755  1.0000
  H   H36       1.0  0.23611  0.58191  0.03841  1.0000
  H   H37       1.0  0.99268  0.99052  0.34278999999999993  1.0000
  H   H38       1.0  0.21071  0.88828  0.25194  1.0000
  H   H39       1.0  0.24652  0.94188  0.35598  1.0000
  H   H40       1.0  0.66392  0.94616  0.37377  1.0000
  H   H41       1.0  0.79544  0.91509  0.35338  1.0000
  H   H42       1.0  0.91737  0.05096  0.36293  1.0000
  H   H43       1.0  0.77991  0.07663  0.38235  1.0000
  H   H44       1.0  0.28627  0.84436  0.17747  1.0000
  H   H45       1.0  0.2774  0.8841  0.21560999999999994  1.0000
  H   H46       1.0  0.08421  0.78017  0.23603  1.0000
  H   H47       1.0  0.10117  0.74485  0.19693  1.0000
  H   H48       1.0  0.4504500000000001  0.95568  0.41474999999999995  1.0000
  H   H49       1.0  0.3158100000000001  0.9398800000000002  0.39159  1.0000
  H   H50       1.0  0.4475700000000001  0.00229  0.33266  1.0000
  H   H51       1.0  0.57678  0.01653  0.35855  1.0000
  H   H52       1.0  0.98948  0.86671  0.29726  1.0000
  H   H53       1.0  0.26562  0.9015  0.28633  1.0000
  H   H54       1.0  0.12158  0.96574  0.34214  1.0000
  H   H55       1.0  0.24567000000000005  0.85952  0.05881  1.0000
  H   H56       1.0  0.99559  0.97674  0.97054  1.0000
  H   H57       1.0  0.24051  0.93288  0.96499  1.0000
  H   H58       1.0  0.14717  0.8296  0.14806  1.0000
  H   H59       1.0  0.10186  0.8676  0.11113  1.0000
  H   H60       1.0  0.34373  0.81429  0.08098999999999999  1.0000
  H   H61       1.0  0.37795  0.77756  0.11883999999999999  1.0000
  H   H62       1.0  0.8057  0.02704  0.91346  1.0000
  H   H63       1.0  0.9363400000000001  0.01281  0.93782  1.0000
  H   H64       1.0  0.78048  0.91355  0.97722  1.0000
  H   H65       1.0  0.65585  0.9308  0.95044  1.0000
  H   H66       1.0  0.45015  0.91982  0.90747  1.0000
  H   H67       1.0  0.31346  0.91416  0.9309199999999999  1.0000
  H   H68       1.0  0.44339  0.99882  0.98316  1.0000
  H   H69       1.0  0.5743  0.00133  0.95771  1.0000
  H   H70       1.0  0.98036  0.89718  0.03646  1.0000
  H   H71       1.0  0.11694000000000003  0.95669  0.97766  1.0000
  H   H72       1.0  0.26472  0.91775  0.03823  1.0000
  H   H73       1.0  0.50944  0.49091000000000007  0.84302  1.0000
  H   H74       1.0  0.29105  0.38791  0.752  1.0000
  H   H75       1.0  0.2564  0.44099  0.85608  1.0000
  H   H76       1.0  0.83811  0.44704  0.87444  1.0000
  H   H77       1.0  0.7077100000000002  0.41605  0.85355  1.0000
  H   H78       1.0  0.58474  0.55166  0.86297  1.0000
  H   H79       1.0  0.72111  0.57737  0.88296  1.0000
  H   H80       1.0  0.21488  0.34394  0.67741  1.0000
  H   H81       1.0  0.22298  0.38355  0.71564  1.0000
  H   H82       1.0  0.41399000000000014  0.27889  0.7366  1.0000
  H   H83       1.0  0.39818  0.2438  0.69741  1.0000
  H   H84       1.0  0.05102  0.45582  0.91454  1.0000
  H   H85       1.0  0.18642  0.4399100000000001  0.89187  1.0000
  H   H86       1.0  0.05536  0.50084  0.83227  1.0000
  H   H87       1.0  0.92552  0.51518  0.8577399999999998  1.0000
  H   H88       1.0  0.51351  0.36708  0.79704  1.0000
  H   H89       1.0  0.23664000000000004  0.40111  0.78639  1.0000
  H   H90       1.0  0.38119  0.46577  0.8419999999999997  1.0000
  H   H91       1.0  0.25333  0.3609  0.5589  1.0000
  H   H92       1.0  0.50285  0.47723  0.47036  1.0000
  H   H93       1.0  0.25694  0.43321  0.46543  1.0000
  H   H94       1.0  0.355  0.3299  0.6479  1.0000
  H   H95       1.0  0.39922000000000013  0.36805  0.61098  1.0000
  H   H96       1.0  0.15691  0.31459  0.5809399999999999  1.0000
  H   H97       1.0  0.12382  0.27756  0.61876  1.0000
  H   H98       1.0  0.69425  0.52769  0.41361  1.0000
  H   H99       1.0  0.56263  0.51319  0.43751  1.0000
  H   H100      1.0  0.71662  0.41258999999999996  0.47676  1.0000
  H   H101      1.0  0.84231  0.43024  0.45052  1.0000
  H   H102      1.0  0.04852  0.41947  0.40748  1.0000
  H   H103      1.0  0.18464  0.41411  0.4313  1.0000
  H   H104      1.0  0.05347  0.49904  0.48304  1.0000
  H   H105      1.0  0.92311  0.50151  0.45718  1.0000
  H   H106      1.0  0.51864  0.39689  0.53578  1.0000
  H   H107      1.0  0.37957000000000013  0.45743  0.47751  1.0000
  H   H108      1.0  0.23476000000000005  0.41938  0.5385  1.0000
  H   H109      1.0  0.99037  0.00876  0.84297  1.0000
  H   H110      1.0  0.21023  0.11123  0.7518  1.0000
  H   H111      1.0  0.24361  0.05843  0.85613  1.0000
  H   H112      1.0  0.6622400000000003  0.05362  0.87413  1.0000
  H   H113      1.0  0.79334  0.08432  0.85342  1.0000
  H   H114      1.0  0.9147800000000003  0.94828  0.86305  1.0000
  H   H115      1.0  0.77785  0.923  0.8828299999999999  1.0000
  H   H116      1.0  0.28874000000000005  0.1558  0.6776099999999999  1.0000
  H   H117      1.0  0.27981  0.11618  0.71583  1.0000
  H   H118      1.0  0.08396  0.21906  0.73579  1.0000
  H   H119      1.0  0.10122000000000002  0.25431  0.69664  1.0000
  H   H120      1.0  0.44969  0.04473  0.91457  1.0000
  H   H121      1.0  0.3142  0.06043  0.89177  1.0000
  H   H122      1.0  0.44444  0.99843  0.83249  1.0000
  H   H123      1.0  0.57441  0.98433  0.85808  1.0000
  H   H124      1.0  0.9857300000000002  0.13134  0.79646  1.0000
  H   H125      1.0  0.26263  0.0974  0.78613  1.0000
  H   H126      1.0  0.11854000000000003  0.03437  0.84225  1.0000
  H   H127      1.0  0.24523000000000006  0.14042  0.5587299999999998  1.0000
  H   H128      1.0  0.9955  0.02319  0.47056  1.0000
  H   H129      1.0  0.24054  0.06602  0.46537  1.0000
  H   H130      1.0  0.14764000000000002  0.17024  0.64806  1.0000
  H   H131      1.0  0.10215  0.13234  0.61114  1.0000
  H   H132      1.0  0.34355  0.18595  0.58083  1.0000
  H   H133      1.0  0.378  0.22265  0.61868  1.0000
  H   H134      1.0  0.80638  0.97285  0.4133499999999999  1.0000
  H   H135      1.0  0.93657  0.98696  0.43789  1.0000
  H   H136      1.0  0.78046  0.0866  0.47694  1.0000
  H   H137      1.0  0.65634  0.06946  0.44998  1.0000
  H   H138      1.0  0.45059  0.08036  0.4080599999999999  1.0000
  H   H139      1.0  0.3137  0.08539  0.43145  1.0000
  H   H140      1.0  0.44399  0.00074  0.48362  1.0000
  H   H141      1.0  0.57533  0.99876  0.4582  1.0000
  H   H142      1.0  0.97948  0.10287  0.53639  1.0000
  H   H143      1.0  0.11717  0.04306  0.4778199999999999  1.0000
  H   H144      1.0  0.26384  0.08214  0.53846  1.0000
  H   H145      1.0  0.4905600000000001  0.50859  0.15704  1.0000
  H   H146      1.0  0.7101  0.6110100000000002  0.2482  1.0000
  H   H147      1.0  0.74343  0.55797  0.14419  1.0000
  H   H148      1.0  0.1625  0.5528  0.12528  1.0000
  H   H149      1.0  0.29283  0.5836400000000002  0.14637  1.0000
  H   H150      1.0  0.41558  0.44802  0.13698  1.0000
  H   H151      1.0  0.27942  0.42242  0.11679  1.0000
  H   H152      1.0  0.78718  0.65656  0.32263  1.0000
  H   H153      1.0  0.77936  0.6165  0.28454  1.0000
  H   H154      1.0  0.584  0.7193000000000002  0.26374  1.0000
  H   H155      1.0  0.59996  0.75488  0.3028  1.0000
  H   H156      1.0  0.95046  0.54491  0.08579  1.0000
  H   H157      1.0  0.81483  0.56013  0.10836  1.0000
  H   H158      1.0  0.94498  0.49814  0.16777  1.0000
  H   H159      1.0  0.07566  0.48445  0.14231  1.0000
  H   H160      1.0  0.48682  0.63232  0.20307  1.0000
  H   H161      1.0  0.76295  0.59657  0.21393  1.0000
  H   H162      1.0  0.61788  0.53401  0.15776  1.0000
  H   H163      1.0  0.74676  0.63931  0.44105  1.0000
  H   H164      1.0  0.49709  0.52268  0.52952  1.0000
  H   H165      1.0  0.7426700000000003  0.56696  0.53487  1.0000
  H   H166      1.0  0.6453800000000001  0.66982  0.352  1.0000
  H   H167      1.0  0.60115  0.6316600000000001  0.38889  1.0000
  H   H168      1.0  0.84294  0.68562  0.41904  1.0000
  H   H169      1.0  0.87614  0.72254  0.38119  1.0000
  H   H170      1.0  0.30552  0.4724  0.58637  1.0000
  H   H171      1.0  0.43725  0.48671  0.5625  1.0000
  H   H172      1.0  0.2836900000000001  0.58744  0.52319  1.0000
  H   H173      1.0  0.15788  0.56988  0.54942  1.0000
  H   H174      1.0  0.9517200000000001  0.58081  0.59261  1.0000
  H   H175      1.0  0.81554  0.5862699999999998  0.56882  1.0000
  H   H176      1.0  0.94626  0.50101  0.51713  1.0000
  H   H177      1.0  0.07654  0.49859  0.54293  1.0000
  H   H178      1.0  0.48165000000000013  0.6031800000000002  0.46416  1.0000
  H   H179      1.0  0.62015  0.54234  0.52243  1.0000
  H   H180      1.0  0.76555  0.58076  0.46155  1.0000
  H   H181      1.0  0.0091  0.99106  0.15694999999999995  1.0000
  H   H182      1.0  0.79103  0.88879  0.24797999999999998  1.0000
  H   H183      1.0  0.75566  0.9417  0.14406  1.0000
  H   H184      1.0  0.33759  0.94643  0.12592  1.0000
  H   H185      1.0  0.20669000000000007  0.91588  0.14673  1.0000
  H   H186      1.0  0.08507  0.05179  0.13701  1.0000
  H   H187      1.0  0.22179  0.07702  0.11713  1.0000
  H   H188      1.0  0.71352  0.84515  0.3224  1.0000
  H   H189      1.0  0.72332  0.88481  0.28422  1.0000
  H   H190      1.0  0.9158000000000002  0.7803  0.26407  1.0000
  H   H191      1.0  0.89793  0.74508  0.30315  1.0000
  H   H192      1.0  0.55079  0.9550900000000001  0.08544  1.0000
  H   H193      1.0  0.6859600000000002  0.93953  0.10842  1.0000
  H   H194      1.0  0.55537  0.00247  0.16737  1.0000
  H   H195      1.0  0.4255800000000001  0.01631  0.14167  1.0000
  H   H196      1.0  0.01261  0.86685  0.20291  1.0000
  H   H197      1.0  0.73663  0.90215  0.21367  1.0000
  H   H198      1.0  0.88103  0.96631  0.15801  1.0000
  H   H199      1.0  0.7547400000000002  0.8594300000000001  0.44122  1.0000
  H   H200      1.0  0.00464  0.97686  0.52937  1.0000
  H   H201      1.0  0.7592100000000002  0.93382  0.53468  1.0000
  H   H202      1.0  0.8537300000000002  0.82898  0.35207  1.0000
  H   H203      1.0  0.89896  0.86695  0.38898  1.0000
  H   H204      1.0  0.65629  0.81441  0.41905  1.0000
  H   H205      1.0  0.6219300000000002  0.7777  0.38118  1.0000
  H   H206      1.0  0.19406  0.02693  0.58663  1.0000
  H   H207      1.0  0.06358  0.01289  0.56215  1.0000
  H   H208      1.0  0.21945  0.91343  0.52292  1.0000
  H   H209      1.0  0.34384  0.93052  0.54981  1.0000
  H   H210      1.0  0.54964  0.91948  0.59209  1.0000
  H   H211      1.0  0.6861700000000001  0.91422  0.56857  1.0000
  H   H212      1.0  0.55577  0.99929  0.51657  1.0000
  H   H213      1.0  0.4249000000000001  0.0015  0.54214  1.0000
  H   H214      1.0  0.02032  0.89725  0.46362  1.0000
  H   H215      1.0  0.88275  0.95693  0.52222  1.0000
  H   H216      1.0  0.7359700000000001  0.9178800000000001  0.46154  1.0000
  H   H217      1.0  0.49015  0.49117000000000005  0.65694  1.0000
  H   H218      1.0  0.70898  0.38736  0.74794  1.0000
  H   H219      1.0  0.7432200000000002  0.44131  0.64416  1.0000
  H   H220      1.0  0.1612  0.44672  0.62574  1.0000
  H   H221      1.0  0.29196000000000005  0.41608  0.64662  1.0000
  H   H222      1.0  0.4141  0.55183  0.6369499999999999  1.0000
  H   H223      1.0  0.27747  0.57726  0.61701  1.0000
  H   H224      1.0  0.78365  0.34381  0.82255  1.0000
  H   H225      1.0  0.77612  0.38301  0.7841899999999999  1.0000
  H   H226      1.0  0.58377  0.27872  0.7635  1.0000
  H   H227      1.0  0.59892  0.24402  0.80281  1.0000
  H   H228      1.0  0.94775  0.45589  0.58558  1.0000
  H   H229      1.0  0.8126700000000002  0.44015  0.6084399999999999  1.0000
  H   H230      1.0  0.94458  0.50108  0.66781  1.0000
  H   H231      1.0  0.07415000000000002  0.51545  0.6422  1.0000
  H   H232      1.0  0.48577  0.3670300000000001  0.70276  1.0000
  H   H233      1.0  0.7627  0.40049000000000007  0.71368  1.0000
  H   H234      1.0  0.61916  0.46612000000000003  0.65815  1.0000
  H   H235      1.0  0.7461300000000002  0.36067  0.94102  1.0000
  H   H236      1.0  0.49723  0.47621  0.029789999999999994  1.0000
  H   H237      1.0  0.74292  0.43303  0.03445  1.0000
  H   H238      1.0  0.64392  0.32971  0.8520099999999998  1.0000
  H   H239      1.0  0.5999  0.36776  0.88901  1.0000
  H   H240      1.0  0.84305  0.31466000000000005  0.91885  1.0000
  H   H241      1.0  0.87604  0.27786  0.88097  1.0000
  H   H242      1.0  0.30675  0.52674  0.08649  1.0000
  H   H243      1.0  0.4379  0.51191  0.06257  1.0000
  H   H244      1.0  0.28167  0.41346  0.02269  1.0000
  H   H245      1.0  0.15669  0.43113  0.0491  1.0000
  H   H246      1.0  0.95084  0.42019  0.09259  1.0000
  H   H247      1.0  0.81505  0.41442  0.06877  1.0000
  H   H248      1.0  0.9462900000000002  0.49898  0.01684  1.0000
  H   H249      1.0  0.07606  0.50201  0.04282  1.0000
  H   H250      1.0  0.48055  0.39713  0.96389  1.0000
  H   H251      1.0  0.61916  0.45744  0.022249999999999992  1.0000
  H   H252      1.0  0.7644900000000002  0.41885  0.96139  1.0000
  H   H253      1.0  0.00906  0.009  0.657  1.0000
  H   H254      1.0  0.7922899999999999  0.11114  0.7480599999999998  1.0000
  H   H255      1.0  0.7551  0.05879  0.64384  1.0000
  H   H256      1.0  0.33796  0.0531  0.62612  1.0000
  H   H257      1.0  0.20724  0.08397  0.64688  1.0000
  H   H258      1.0  0.08427  0.94847  0.63699  1.0000
  H   H259      1.0  0.22106  0.92284  0.61724  1.0000
  H   H260      1.0  0.71527  0.15545  0.82253  1.0000
  H   H261      1.0  0.72385  0.11553  0.78442  1.0000
  H   H262      1.0  0.91298  0.22101  0.7633099999999998  1.0000
  H   H263      1.0  0.89674  0.25635  0.80245  1.0000
  H   H264      1.0  0.55019  0.04397  0.58521  1.0000
  H   H265      1.0  0.68534  0.06005  0.60805  1.0000
  H   H266      1.0  0.55516  0.99835  0.6674  1.0000
  H   H267      1.0  0.4254100000000001  0.98367  0.64178  1.0000
  H   H268      1.0  0.01343  0.13264  0.703  1.0000
  H   H269      1.0  0.73679  0.09838  0.71356  1.0000
  H   H270      1.0  0.88071  0.034  0.65793  1.0000
  H   H271      1.0  0.75479  0.14053  0.94114  1.0000
  H   H272      1.0  0.00418  0.02337  0.02949  1.0000
  H   H273      1.0  0.75933  0.06645  0.03457  1.0000
  H   H274      1.0  0.85442  0.17116  0.85197  1.0000
  H   H275      1.0  0.89909  0.13307  0.8889799999999999  1.0000
  H   H276      1.0  0.65576  0.18542  0.91871  1.0000
  H   H277      1.0  0.62226  0.22224  0.8808399999999997  1.0000
  H   H278      1.0  0.19433  0.9726  0.08645  1.0000
  H   H279      1.0  0.06359  0.9871  0.06215  1.0000
  H   H280      1.0  0.21945  0.08653  0.02288  1.0000
  H   H281      1.0  0.34411  0.06906  0.04958  1.0000
  H   H282      1.0  0.54998  0.08014  0.0921  1.0000
  H   H283      1.0  0.68632  0.08577  0.06851  1.0000
  H   H284      1.0  0.5559  0.00112  0.01639  1.0000
  H   H285      1.0  0.42516  0.99848  0.04201  1.0000
  H   H286      1.0  0.02032  0.10274  0.9635099999999999  1.0000
  H   H287      1.0  0.88266  0.04315  0.022139999999999996  1.0000
  H   H288      1.0  0.7358599999999998  0.08231  0.9615199999999998  1.0000
  C   C1        1.0  0.78153  0.53057  0.37108  1.0000
  C   C2        1.0  0.7084  0.54818  0.35956  1.0000
  C   C3        1.0  0.63435  0.51884  0.35598  1.0000
  C   C4        1.0  0.6400900000000002  0.4727799999999999  0.36492  1.0000
  C   C5        1.0  0.71688  0.45824  0.37609  1.0000
  C   C6        1.0  0.5465  0.57439  0.33129  1.0000
  C   C7        1.0  0.25939  0.66974  0.191  1.0000
  C   C8        1.0  0.26384  0.64773  0.21236  1.0000
  C   C9        1.0  0.32039  0.6658900000000001  0.22958  1.0000
  C   C10       1.0  0.37012000000000006  0.70608  0.22411  1.0000
  C   C11       1.0  0.3615800000000001  0.72537  0.20215  1.0000
  C   C12       1.0  0.37866  0.654  0.26984  1.0000
  C   C13       1.0  0.05401  0.53476  0.3962899999999999  1.0000
  C   C14       1.0  0.12988  0.54337  0.38352  1.0000
  C   C15       1.0  0.13239  0.53124  0.35983  1.0000
  C   C16       1.0  0.05701  0.50916  0.3504399999999999  1.0000
  C   C17       1.0  0.98457  0.50171  0.36466999999999994  1.0000
  C   C18       1.0  0.216  0.54394  0.3227799999999999  1.0000
  C   C19       1.0  0.45933  0.58012  0.32012  1.0000
  C   C20       1.0  0.45461  0.61263  0.30163  1.0000
  C   C21       1.0  0.37648  0.6186  0.28902  1.0000
  C   C22       1.0  0.29971  0.5934599999999999  0.29513  1.0000
  C   C23       1.0  0.30142  0.56425  0.31494  1.0000
  C   C24       1.0  0.3808600000000001  0.55712  0.32700999999999997  1.0000
  C   C25       1.0  0.31521  0.67309  0.13271  1.0000
  C   C26       1.0  0.33974  0.65124  0.11228  1.0000
  C   C27       1.0  0.28347  0.65488  0.09285  1.0000
  C   C28       1.0  0.20455  0.68089  0.09547  1.0000
  C   C29       1.0  0.18572000000000005  0.70159  0.11663  1.0000
  C   C30       1.0  0.38061  0.61286  0.06432  1.0000
  C   C31       1.0  0.69754  0.49787  0.92761  1.0000
  C   C32       1.0  0.6235500000000003  0.50656  0.94106  1.0000
  C   C33       1.0  0.6292500000000001  0.5381  0.9598  1.0000
  C   C34       1.0  0.71057  0.56153  0.96304  1.0000
  C   C35       1.0  0.78036  0.55106  0.9484099999999998  1.0000
  C   C36       1.0  0.55034  0.56998  0.99451  1.0000
  C   C37       1.0  0.05229  0.5634  0.92424  1.0000
  C   C38       1.0  0.12856  0.56643  0.93753  1.0000
  C   C39       1.0  0.13143  0.54497  0.95957  1.0000
  C   C40       1.0  0.05608  0.51951  0.9665599999999999  1.0000
  C   C41       1.0  0.98306  0.51802  0.9519499999999999  1.0000
  C   C42       1.0  0.21261  0.54874  0.9973799999999999  1.0000
  C   C43       1.0  0.37832000000000005  0.5957  0.04007999999999999  1.0000
  C   C44       1.0  0.45907  0.5909  0.02817  1.0000
  C   C45       1.0  0.46115  0.57241  0.005529999999999999  1.0000
  C   C46       1.0  0.3813000000000001  0.55843  0.99488  1.0000
  C   C47       1.0  0.2999200000000001  0.56249  0.006879999999999999  1.0000
  C   C48       1.0  0.2995  0.58126  0.02945  1.0000
  C   C49       1.0  0.7209900000000002  0.96871  0.37075  1.0000
  C   C50       1.0  0.7946  0.95088  0.35958  1.0000
  C   C51       1.0  0.86853  0.98027  0.35604  1.0000
  C   C52       1.0  0.86256  0.02642  0.36481  1.0000
  C   C53       1.0  0.7852300000000002  0.04107  0.37563  1.0000
  C   C54       1.0  0.95715  0.92424  0.33187  1.0000
  C   C55       1.0  0.243  0.83087  0.19098  1.0000
  C   C56       1.0  0.23807  0.85279  0.21234  1.0000
  C   C57       1.0  0.1812  0.8345700000000001  0.22942  1.0000
  C   C58       1.0  0.13094  0.79463  0.22373  1.0000
  C   C59       1.0  0.14014  0.77542  0.20177  1.0000
  C   C60       1.0  0.12234  0.84678  0.26953  1.0000
  C   C61       1.0  0.44806  0.96544  0.39652  1.0000
  C   C62       1.0  0.37255  0.95692  0.38355  1.0000
  C   C63       1.0  0.37012000000000006  0.96946  0.35989  1.0000
  C   C64       1.0  0.44549  0.99183  0.35072  1.0000
  C   C65       1.0  0.51771  0.99925  0.3650999999999999  1.0000
  C   C66       1.0  0.28707  0.95605  0.32274  1.0000
  C   C67       1.0  0.04396  0.91891  0.32042999999999994  1.0000
  C   C68       1.0  0.048200000000000014  0.88677  0.30184  1.0000
  C   C69       1.0  0.12599  0.88125  0.28904  1.0000
  C   C70       1.0  0.20275  0.90635  0.29521  1.0000
  C   C71       1.0  0.20145  0.93563  0.3149699999999999  1.0000
  C   C72       1.0  0.12213  0.94241  0.32716999999999996  1.0000
  C   C73       1.0  0.18871  0.82662  0.13274  1.0000
  C   C74       1.0  0.16332  0.84809  0.11225  1.0000
  C   C75       1.0  0.21876  0.84414  0.09274  1.0000
  C   C76       1.0  0.29806  0.81848  0.09542  1.0000
  C   C77       1.0  0.31782  0.79813  0.11663  1.0000
  C   C78       1.0  0.12057  0.88541  0.06401  1.0000
  C   C79       1.0  0.8019700000000001  0.0018700000000000001  0.9275999999999998  1.0000
  C   C80       1.0  0.87567  0.9934  0.94126  1.0000
  C   C81       1.0  0.86974  0.96185  0.96001  1.0000
  C   C82       1.0  0.78839  0.93844  0.96316  1.0000
  C   C83       1.0  0.71885  0.9487  0.94835  1.0000
  C   C84       1.0  0.94916  0.92943  0.9946499999999999  1.0000
  C   C85       1.0  0.4466200000000001  0.93673  0.92436  1.0000
  C   C86       1.0  0.36992  0.9339900000000001  0.93743  1.0000
  C   C87       1.0  0.36677  0.95558  0.9594299999999998  1.0000
  C   C88       1.0  0.4420800000000001  0.98103  0.96655  1.0000
  C   C89       1.0  0.51564  0.98203  0.95218  1.0000
  C   C90       1.0  0.28547  0.95215  0.99712  1.0000
  C   C91       1.0  0.12276  0.90326  0.03991  1.0000
  C   C92       1.0  0.0415  0.90817  0.02818  1.0000
  C   C93       1.0  0.03839  0.927  0.00562  1.0000
  C   C94       1.0  0.11767  0.9412299999999999  0.9949199999999999  1.0000
  C   C95       1.0  0.19932  0.93739  0.00679  1.0000
  C   C96       1.0  0.20113  0.91823  0.02929  1.0000
  C   C97       1.0  0.78119  0.46959  0.87125  1.0000
  C   C98       1.0  0.7081  0.45183  0.85977  1.0000
  C   C99       1.0  0.63405  0.4811  0.85605  1.0000
  C   C100      1.0  0.63969  0.52721  0.86495  1.0000
  C   C101      1.0  0.71646  0.54187  0.87611  1.0000
  C   C102      1.0  0.5466500000000001  0.4254  0.83129  1.0000
  C   C103      1.0  0.2577  0.33033000000000007  0.6910399999999999  1.0000
  C   C104      1.0  0.26221  0.35219  0.71245  1.0000
  C   C105      1.0  0.3186900000000001  0.33386  0.72965  1.0000
  C   C106      1.0  0.3681200000000001  0.29363000000000006  0.72414  1.0000
  C   C107      1.0  0.3596  0.27453  0.7021599999999998  1.0000
  C   C108      1.0  0.3794000000000001  0.34635  0.76969  1.0000
  C   C109      1.0  0.05385000000000001  0.46519  0.8962599999999998  1.0000
  C   C110      1.0  0.12982  0.45658  0.8835199999999999  1.0000
  C   C111      1.0  0.13249  0.46863  0.85981  1.0000
  C   C112      1.0  0.05709  0.49068  0.85038  1.0000
  C   C113      1.0  0.9845100000000002  0.49815  0.86459  1.0000
  C   C114      1.0  0.21609  0.45578  0.8228  1.0000
  C   C115      1.0  0.45941  0.41942  0.82016  1.0000
  C   C116      1.0  0.4547500000000001  0.38704  0.80165  1.0000
  C   C117      1.0  0.37655  0.38118  0.78903  1.0000
  C   C118      1.0  0.2996500000000001  0.40609  0.79523  1.0000
  C   C119      1.0  0.30139  0.43527  0.815  1.0000
  C   C120      1.0  0.38092  0.44243000000000005  0.82704  1.0000
  C   C121      1.0  0.31310000000000004  0.32686  0.6326  1.0000
  C   C122      1.0  0.33784  0.3485  0.61211  1.0000
  C   C123      1.0  0.28188  0.34477  0.59264  1.0000
  C   C124      1.0  0.20288000000000006  0.31884  0.59535  1.0000
  C   C125      1.0  0.18379  0.29827  0.61654  1.0000
  C   C126      1.0  0.3796400000000001  0.38591999999999993  0.56383  1.0000
  C   C127      1.0  0.69732  0.50215  0.42762  1.0000
  C   C128      1.0  0.62303  0.49352  0.441  1.0000
  C   C129      1.0  0.62814  0.46152000000000004  0.45957999999999993  1.0000
  C   C130      1.0  0.70925  0.43785  0.4628399999999999  1.0000
  C   C131      1.0  0.77943  0.44832000000000005  0.44832  1.0000
  C   C132      1.0  0.54786  0.42814  0.4938  1.0000
  C   C133      1.0  0.05158000000000001  0.43653  0.42433  1.0000
  C   C134      1.0  0.12787  0.43384  0.43762  1.0000
  C   C135      1.0  0.13042  0.45548  0.4596  1.0000
  C   C136      1.0  0.05507  0.48106  0.46649  1.0000
  C   C137      1.0  0.9819400000000001  0.48212  0.4519  1.0000
  C   C138      1.0  0.21154  0.45245  0.49741  1.0000
  C   C139      1.0  0.37665  0.40394  0.53977  1.0000
  C   C140      1.0  0.45726000000000006  0.40837  0.52774  1.0000
  C   C141      1.0  0.45928  0.42716  0.50518  1.0000
  C   C142      1.0  0.37957000000000013  0.44191  0.49474  1.0000
  C   C143      1.0  0.29847  0.43826  0.50689  1.0000
  C   C144      1.0  0.29793  0.41936  0.5294  1.0000
  C   C145      1.0  0.71907  0.03097  0.87104  1.0000
  C   C146      1.0  0.79244  0.04855  0.85969  1.0000
  C   C147      1.0  0.8660600000000003  0.01899  0.85608  1.0000
  C   C148      1.0  0.86012  0.97291  0.8649699999999999  1.0000
  C   C149      1.0  0.78308  0.9585  0.876  1.0000
  C   C150      1.0  0.95326  0.07435999999999998  0.83129  1.0000
  C   C151      1.0  0.24469  0.16905  0.69103  1.0000
  C   C152      1.0  0.2397  0.14717000000000002  0.71243  1.0000
  C   C153      1.0  0.18156  0.16495  0.72935  1.0000
  C   C154      1.0  0.13108  0.20472  0.72358  1.0000
  C   C155      1.0  0.1404  0.22391  0.70161  1.0000
  C   C156      1.0  0.11985  0.15185  0.76922  1.0000
  C   C157      1.0  0.44664  0.03497  0.8963599999999998  1.0000
  C   C158      1.0  0.37064  0.04346  0.88356  1.0000
  C   C159      1.0  0.36769  0.03109  0.85989  1.0000
  C   C160      1.0  0.44285  0.00878  0.85058  1.0000
  C   C161      1.0  0.5155  0.0014300000000000003  0.86483  1.0000
  C   C162      1.0  0.28391  0.04392000000000001  0.8228599999999999  1.0000
  C   C163      1.0  0.04029  0.08001  0.82007  1.0000
  C   C164      1.0  0.04457  0.11158  0.80125  1.0000
  C   C165      1.0  0.12268  0.11707  0.78859  1.0000
  C   C166      1.0  0.19973000000000005  0.09254  0.79501  1.0000
  C   C167      1.0  0.19828  0.06396  0.815  1.0000
  C   C168      1.0  0.11884  0.05723000000000001  0.82712  1.0000
  C   C169      1.0  0.18904000000000007  0.17333  0.63271  1.0000
  C   C170      1.0  0.16357  0.1519  0.61222  1.0000
  C   C171      1.0  0.2188  0.15592  0.59267  1.0000
  C   C172      1.0  0.29803  0.18168  0.5953  1.0000
  C   C173      1.0  0.31788  0.20203  0.6165099999999998  1.0000
  C   C174      1.0  0.11995  0.11459  0.56415  1.0000
  C   C175      1.0  0.8025  0.99808  0.42746  1.0000
  C   C176      1.0  0.87597  0.0065  0.44121  1.0000
  C   C177      1.0  0.8699300000000002  0.03813  0.45991  1.0000
  C   C178      1.0  0.78864  0.06166  0.46293  1.0000
  C   C179      1.0  0.71932  0.05149  0.44804  1.0000
  C   C180      1.0  0.94895  0.07057  0.49461999999999995  1.0000
  C   C181      1.0  0.44718  0.06329  0.42492  1.0000
  C   C182      1.0  0.37041  0.06578  0.43798  1.0000
  C   C183      1.0  0.36741000000000007  0.04418  0.45997  1.0000
  C   C184      1.0  0.44281  0.01879  0.46708  1.0000
  C   C185      1.0  0.51646  0.01798  0.45271  1.0000
  C   C186      1.0  0.28647000000000006  0.04867  0.49768  1.0000
  C   C187      1.0  0.12179  0.09673  0.54006  1.0000
  C   C188      1.0  0.04077  0.09181999999999998  0.52822  1.0000
  C   C189      1.0  0.03816  0.07281  0.50569  1.0000
  C   C190      1.0  0.11774  0.05852  0.49508  1.0000
  C   C191      1.0  0.19929000000000002  0.06269  0.50706  1.0000
  C   C192      1.0  0.20024  0.08176  0.52954  1.0000
  C   C193      1.0  0.21941  0.53026  0.12852  1.0000
  C   C194      1.0  0.29238  0.5479  0.14009  1.0000
  C   C195      1.0  0.36624  0.51855  0.14386999999999997  1.0000
  C   C196      1.0  0.36071  0.47249  0.13492  1.0000
  C   C197      1.0  0.2841  0.4579  0.12367  1.0000
  C   C198      1.0  0.45328  0.5741800000000001  0.16876  1.0000
  C   C199      1.0  0.74354  0.6696500000000001  0.30904  1.0000
  C   C200      1.0  0.73913  0.64753  0.2877  1.0000
  C   C201      1.0  0.68171  0.6652  0.27054  1.0000
  C   C202      1.0  0.6308100000000001  0.705  0.27609  1.0000
  C   C203      1.0  0.63945  0.72445  0.29800999999999994  1.0000
  C   C204      1.0  0.62191  0.65259  0.23046  1.0000
  C   C205      1.0  0.94752  0.53497  0.10397999999999998  1.0000
  C   C206      1.0  0.87126  0.54325  0.11665999999999999  1.0000
  C   C207      1.0  0.8681000000000002  0.53066  0.14029  1.0000
  C   C208      1.0  0.94355  0.50854  0.14969  1.0000
  C   C209      1.0  0.01647  0.50142  0.13554  1.0000
  C   C210      1.0  0.7839  0.54263  0.17726  1.0000
  C   C211      1.0  0.5405500000000002  0.58006  0.17988  1.0000
  C   C212      1.0  0.54552  0.6123100000000001  0.19843999999999998  1.0000
  C   C213      1.0  0.62381  0.6177  0.2111  1.0000
  C   C214      1.0  0.70016  0.5922500000000002  0.2049  1.0000
  C   C215      1.0  0.69844  0.56328  0.18505  1.0000
  C   C216      1.0  0.6188100000000002  0.55683  0.17291  1.0000
  C   C217      1.0  0.68719  0.6729399999999999  0.36732  1.0000
  C   C218      1.0  0.66242  0.65132  0.38781  1.0000
  C   C219      1.0  0.7182200000000001  0.65523  0.4073  1.0000
  C   C220      1.0  0.79711  0.68126  0.4046  1.0000
  C   C221      1.0  0.81625  0.70176  0.38339999999999996  1.0000
  C   C222      1.0  0.62056  0.6141  0.43615  1.0000
  C   C223      1.0  0.30265  0.49791  0.57235  1.0000
  C   C224      1.0  0.37699  0.50646  0.55896  1.0000
  C   C225      1.0  0.37193  0.53843  0.54035  1.0000
  C   C226      1.0  0.2909  0.56218  0.53712  1.0000
  C   C227      1.0  0.22069  0.55176  0.55164  1.0000
  C   C228      1.0  0.45208  0.57173  0.50606  1.0000
  C   C229      1.0  0.9485  0.5637  0.57578  1.0000
  C   C230      1.0  0.87215  0.56641  0.56252  1.0000
  C   C231      1.0  0.86921  0.5446  0.54058  1.0000
  C   C232      1.0  0.94454  0.51904  0.53367  1.0000
  C   C233      1.0  0.01778  0.518  0.54821  1.0000
  C   C234      1.0  0.78824  0.54764  0.50281  1.0000
  C   C235      1.0  0.62368  0.59609  0.46023  1.0000
  C   C236      1.0  0.5429900000000002  0.59165  0.47221  1.0000
  C   C237      1.0  0.54074  0.57274  0.49474  1.0000
  C   C238      1.0  0.62033  0.55798  0.50522  1.0000
  C   C239      1.0  0.70158  0.56181  0.4931699999999999  1.0000
  C   C240      1.0  0.70237  0.5807100000000001  0.4706499999999999  1.0000
  C   C241      1.0  0.2808100000000001  0.96914  0.129  1.0000
  C   C242      1.0  0.2075  0.9516  0.14041  1.0000
  C   C243      1.0  0.1337  0.98106  0.14401  1.0000
  C   C244      1.0  0.13967  0.027129999999999998  0.13508  1.0000
  C   C245      1.0  0.21666  0.04154  0.124  1.0000
  C   C246      1.0  0.04615  0.92544  0.1687  1.0000
  C   C247      1.0  0.75696  0.83152  0.30895  1.0000
  C   C248      1.0  0.7624000000000001  0.85344  0.28757999999999995  1.0000
  C   C249      1.0  0.81941  0.83507  0.27057  1.0000
  C   C250      1.0  0.8691200000000001  0.79497  0.27631  1.0000
  C   C251      1.0  0.85942  0.7757899999999999  0.29826  1.0000
  C   C252      1.0  0.87927  0.8471  0.2305  1.0000
  C   C253      1.0  0.55355  0.96509  0.10363  1.0000
  C   C254      1.0  0.62943  0.9567000000000001  0.11649999999999999  1.0000
  C   C255      1.0  0.63225  0.96947  0.14013  1.0000
  C   C256      1.0  0.55706  0.99188  0.14933  1.0000
  C   C257      1.0  0.48452  0.99908  0.13503  1.0000
  C   C258      1.0  0.71626  0.95707  0.17725  1.0000
  C   C259      1.0  0.95901  0.91953  0.17979  1.0000
  C   C260      1.0  0.95417  0.88713  0.1983  1.0000
  C   C261      1.0  0.87618  0.88161  0.21098  1.0000
  C   C262      1.0  0.79954  0.90685  0.2048  1.0000
  C   C263      1.0  0.80137  0.93606  0.18503  1.0000
  C   C264      1.0  0.88074  0.94287  0.17294  1.0000
  C   C265      1.0  0.81198  0.82614  0.36737  1.0000
  C   C266      1.0  0.83735  0.84757  0.38786  1.0000
  C   C267      1.0  0.78165  0.84388  0.40733  1.0000
  C   C268      1.0  0.70211  0.81841  0.40462  1.0000
  C   C269      1.0  0.68233  0.79807  0.38342  1.0000
  C   C270      1.0  0.88005  0.8854  0.43592999999999993  1.0000
  C   C271      1.0  0.1978  0.00176  0.57249  1.0000
  C   C272      1.0  0.12421  0.9934  0.55877  1.0000
  C   C273      1.0  0.1302  0.96184  0.54004  1.0000
  C   C274      1.0  0.21144  0.93833  0.53695  1.0000
  C   C275      1.0  0.28086  0.94846  0.55182  1.0000
  C   C276      1.0  0.050910000000000004  0.92925  0.50541  1.0000
  C   C277      1.0  0.55297  0.9365699999999999  0.57523  1.0000
  C   C278      1.0  0.62954  0.93397  0.5621  1.0000
  C   C279      1.0  0.63246  0.95568  0.54013  1.0000
  C   C280      1.0  0.5571  0.9811800000000002  0.5331  1.0000
  C   C281      1.0  0.48366  0.9821  0.54754  1.0000
  C   C282      1.0  0.71332  0.95129  0.50237  1.0000
  C   C283      1.0  0.87794  0.90332  0.45998  1.0000
  C   C284      1.0  0.95902  0.90826  0.47181  1.0000
  C   C285      1.0  0.96163  0.92721  0.49433  1.0000
  C   C286      1.0  0.88208  0.94148  0.50496  1.0000
  C   C287      1.0  0.8004700000000002  0.9373500000000001  0.49298  1.0000
  C   C288      1.0  0.79951  0.91829  0.4704899999999999  1.0000
  C   C289      1.0  0.2181  0.46938  0.6288  1.0000
  C   C290      1.0  0.29133  0.4518  0.64029  1.0000
  C   C291      1.0  0.36539  0.48113  0.64393  1.0000
  C   C292      1.0  0.3594100000000001  0.52722  0.635  1.0000
  C   C293      1.0  0.28255  0.54176  0.62385  1.0000
  C   C294      1.0  0.45338  0.42552  0.66863  1.0000
  C   C295      1.0  0.74076  0.3302  0.8089399999999998  1.0000
  C   C296      1.0  0.73655  0.35179  0.7874899999999998  1.0000
  C   C297      1.0  0.67988  0.33347  0.77035  1.0000
  C   C298      1.0  0.6298  0.29341  0.77594  1.0000
  C   C299      1.0  0.6381  0.27454  0.798  1.0000
  C   C300      1.0  0.61953  0.34636  0.73041  1.0000
  C   C301      1.0  0.94542  0.46531  0.60385  1.0000
  C   C302      1.0  0.86956  0.45680000000000004  0.61666  1.0000
  C   C303      1.0  0.86721  0.46885  0.64035  1.0000
  C   C304      1.0  0.94272  0.4909  0.64971  1.0000
  C   C305      1.0  0.01513  0.49832  0.63544  1.0000
  C   C306      1.0  0.78382  0.45572  0.67738  1.0000
  C   C307      1.0  0.54046  0.41956  0.67981  1.0000
  C   C308      1.0  0.5447  0.387  0.69828  1.0000
  C   C309      1.0  0.62272  0.38095  0.71096  1.0000
  C   C310      1.0  0.6998  0.40581  0.7048399999999999  1.0000
  C   C311      1.0  0.69841  0.43518000000000007  0.68513  1.0000
  C   C312      1.0  0.61907  0.44256000000000006  0.67304  1.0000
  C   C313      1.0  0.68601  0.32674  0.86729  1.0000
  C   C314      1.0  0.66136  0.34827  0.88781  1.0000
  C   C315      1.0  0.71762  0.34453  0.9072299999999999  1.0000
  C   C316      1.0  0.79685  0.31883  0.90447  1.0000
  C   C317      1.0  0.8158600000000001  0.29839  0.8832499999999998  1.0000
  C   C318      1.0  0.62013  0.38582  0.93604  1.0000
  C   C319      1.0  0.303  0.50164  0.07232  1.0000
  C   C320      1.0  0.37704  0.49283  0.0589  1.0000
  C   C321      1.0  0.37122  0.46143  0.04009999999999999  1.0000
  C   C322      1.0  0.28964  0.43835  0.03672999999999999  1.0000
  C   C323      1.0  0.2198  0.44887  0.05134  1.0000
  C   C324      1.0  0.45108  0.42895  0.00561  1.0000
  C   C325      1.0  0.94784  0.43706000000000006  0.07569  1.0000
  C   C326      1.0  0.87168  0.43416  0.06237  1.0000
  C   C327      1.0  0.86914  0.45556  0.04031  1.0000
  C   C328      1.0  0.94448  0.48115  0.03343  1.0000
  C   C329      1.0  0.0174  0.48249000000000003  0.04807  1.0000
  C   C330      1.0  0.78809  0.45229  0.0024  1.0000
  C   C331      1.0  0.6228800000000001  0.40374  0.9601  1.0000
  C   C332      1.0  0.54203  0.40841  0.97196  1.0000
  C   C333      1.0  0.54  0.42738  0.99447  1.0000
  C   C334      1.0  0.61962  0.44191  0.00502  1.0000
  C   C335      1.0  0.70095  0.43813  0.99299  1.0000
  C   C336      1.0  0.70145  0.41901  0.9705199999999999  1.0000
  C   C337      1.0  0.28103  0.03048  0.62917  1.0000
  C   C338      1.0  0.20783  0.04827  0.64053  1.0000
  C   C339      1.0  0.13374  0.018980000000000004  0.64407  1.0000
  C   C340      1.0  0.13923  0.97294  0.6351299999999999  1.0000
  C   C341      1.0  0.21616000000000005  0.95829  0.62413  1.0000
  C   C342      1.0  0.046239999999999996  0.07448  0.6687299999999999  1.0000
  C   C343      1.0  0.75783  0.16913  0.8089  1.0000
  C   C344      1.0  0.76262  0.14712  0.78754  1.0000
  C   C345      1.0  0.81872  0.1656  0.77034  1.0000
  C   C346      1.0  0.86751  0.20613  0.7758  1.0000
  C   C347      1.0  0.85866  0.22536  0.79776  1.0000
  C   C348      1.0  0.87841  0.15348000000000003  0.73017  1.0000
  C   C349      1.0  0.5529999999999999  0.03448  0.60347  1.0000
  C   C350      1.0  0.62886  0.04317  0.6163  1.0000
  C   C351      1.0  0.6317  0.03095  0.6399999999999999  1.0000
  C   C352      1.0  0.55659  0.008620000000000001  0.64931  1.0000
  C   C353      1.0  0.4841  0.00101  0.63504  1.0000
  C   C354      1.0  0.71586  0.04406  0.6771  1.0000
  C   C355      1.0  0.95915  0.08035  0.6798499999999998  1.0000
  C   C356      1.0  0.95466  0.11263000000000001  0.6984  1.0000
  C   C357      1.0  0.87648  0.11832  0.71098  1.0000
  C   C358      1.0  0.79972  0.09347  0.70473  1.0000
  C   C359      1.0  0.80133  0.06448  0.68488  1.0000
  C   C360      1.0  0.88075  0.05739  0.67287  1.0000
  C   C361      1.0  0.81242  0.17384  0.86722  1.0000
  C   C362      1.0  0.83745  0.15237  0.88773  1.0000
  C   C363      1.0  0.78146  0.15603  0.9071599999999997  1.0000
  C   C364      1.0  0.70193  0.18145  0.90437  1.0000
  C   C365      1.0  0.68253  0.20182  0.88314  1.0000
  C   C366      1.0  0.87992  0.11458  0.93571  1.0000
  C   C367      1.0  0.19804  0.9978599999999999  0.07234  1.0000
  C   C368      1.0  0.12429  0.006470000000000001  0.05872  1.0000
  C   C369      1.0  0.13014  0.03811  0.039999999999999994  1.0000
  C   C370      1.0  0.2115  0.06152  0.03688  1.0000
  C   C371      1.0  0.28111  0.05115  0.05166  1.0000
  C   C372      1.0  0.050830000000000014  0.07059  0.00533  1.0000
  C   C373      1.0  0.5533  0.06314  0.07523  1.0000
  C   C374      1.0  0.62973  0.06596  0.06206  1.0000
  C   C375      1.0  0.63256  0.04446  0.04005  1.0000
  C   C376      1.0  0.55724  0.01895  0.03299  1.0000
  C   C377      1.0  0.48394  0.01778  0.04746999999999999  1.0000
  C   C378      1.0  0.71329  0.04887  0.0023  1.0000
  C   C379      1.0  0.87801  0.09669  0.9598199999999999  1.0000
  C   C380      1.0  0.95901  0.09172  0.97169  1.0000
  C   C381      1.0  0.96157  0.07286  0.9942599999999998  1.0000
  C   C382      1.0  0.88201  0.05865  0.00489  1.0000
  C   C383      1.0  0.80046  0.06278  0.9929  1.0000
  C   C384      1.0  0.79954  0.08184  0.9703999999999998  1.0000
  N   N1        1.0  0.78901  0.48599000000000003  0.37929  1.0000
  N   N2        1.0  0.30704  0.70836  0.18551  1.0000
  N   N3        1.0  0.98009  0.51449  0.38733  1.0000
  N   N4        1.0  0.55804  0.53342  0.34455  1.0000
  N   N5        1.0  0.32607  0.6425  0.25079  1.0000
  N   N6        1.0  0.20794  0.54176  0.34706  1.0000
  N   N7        1.0  0.23957000000000006  0.69834  0.13545  1.0000
  N   N8        1.0  0.77701  0.51906  0.93099  1.0000
  N   N9        1.0  0.97846  0.54009  0.93106  1.0000
  N   N10       1.0  0.3020200000000001  0.6343800000000002  0.07158  1.0000
  N   N11       1.0  0.55516  0.54474  0.97373  1.0000
  N   N12       1.0  0.20726  0.54991  0.97306  1.0000
  N   N13       1.0  0.71316  0.0134  0.37864  1.0000
  N   N14       1.0  0.19559  0.7922299999999999  0.18534  1.0000
  N   N15       1.0  0.52194  0.98612  0.38775  1.0000
  N   N16       1.0  0.94493  0.96571  0.34467  1.0000
  N   N17       1.0  0.17623  0.85773  0.2507  1.0000
  N   N18       1.0  0.29469  0.95896  0.34702  1.0000
  N   N19       1.0  0.26449  0.80147  0.13549  1.0000
  N   N20       1.0  0.72257  0.98051  0.93083  1.0000
  N   N21       1.0  0.52059  0.95976  0.93136  1.0000
  N   N22       1.0  0.19936  0.8641  0.07135999999999998  1.0000
  N   N23       1.0  0.94363  0.95526  0.97406  1.0000
  N   N24       1.0  0.29079  0.95054  0.9728099999999998  1.0000
  N   N25       1.0  0.78871  0.51423  0.87934  1.0000
  N   N26       1.0  0.3052  0.29169  0.68552  1.0000
  N   N27       1.0  0.9799100000000001  0.48536  0.88725  1.0000
  N   N28       1.0  0.55794  0.46641  0.84455  1.0000
  N   N29       1.0  0.32469  0.35708  0.7509  1.0000
  N   N30       1.0  0.20816999999999997  0.45808999999999994  0.84707  1.0000
  N   N31       1.0  0.23749  0.3016  0.63539  1.0000
  N   N32       1.0  0.77646  0.48056  0.43099  1.0000
  N   N33       1.0  0.9775  0.45963  0.43111999999999995  1.0000
  N   N34       1.0  0.3004  0.36524  0.57133  1.0000
  N   N35       1.0  0.5539700000000001  0.45489  0.47352  1.0000
  N   N36       1.0  0.20618  0.45066  0.47312  1.0000
  N   N37       1.0  0.7111700000000002  0.98632  0.87908  1.0000
  N   N38       1.0  0.19631  0.20728  0.6852599999999999  1.0000
  N   N39       1.0  0.52042  0.01453  0.88745  1.0000
  N   N40       1.0  0.9421600000000002  0.0334  0.84457  1.0000
  N   N41       1.0  0.17522  0.14157000000000003  0.7505699999999997  1.0000
  N   N42       1.0  0.29198  0.04156  0.84712  1.0000
  N   N43       1.0  0.26475  0.19859  0.63541  1.0000
  N   N44       1.0  0.72315  0.01959  0.43057  1.0000
  N   N45       1.0  0.52129  0.04044  0.43193  1.0000
  N   N46       1.0  0.19901  0.13595  0.57133  1.0000
  N   N47       1.0  0.94359  0.04472  0.47404  1.0000
  N   N48       1.0  0.29131  0.04895  0.47334  1.0000
  N   N49       1.0  0.21197  0.48561  0.12042  1.0000
  N   N50       1.0  0.6950400000000002  0.70798  0.31455  1.0000
  N   N51       1.0  0.02133  0.51459  0.11294  1.0000
  N   N52       1.0  0.4421  0.53313  0.1555  1.0000
  N   N53       1.0  0.67622  0.64176  0.2493  1.0000
  N   N54       1.0  0.79209  0.54079  0.15301  1.0000
  N   N55       1.0  0.76269  0.69829  0.36454  1.0000
  N   N56       1.0  0.22355  0.51951  0.56897  1.0000
  N   N57       1.0  0.02242  0.54044  0.569  1.0000
  N   N58       1.0  0.69971  0.6348300000000001  0.42863  1.0000
  N   N59       1.0  0.44597  0.54502  0.52636  1.0000
  N   N60       1.0  0.79327  0.54945  0.52713  1.0000
  N   N61       1.0  0.28861  0.01374  0.12089999999999998  1.0000
  N   N62       1.0  0.8040000000000002  0.79277  0.31464  1.0000
  N   N63       1.0  0.47978  0.98575  0.11243  1.0000
  N   N64       1.0  0.05756  0.96652  0.15547999999999998  1.0000
  N   N65       1.0  0.8252  0.85818  0.24928  1.0000
  N   N66       1.0  0.7077800000000002  0.9590400000000001  0.15298999999999996  1.0000
  N   N67       1.0  0.73588  0.80126  0.36459  1.0000
  N   N68       1.0  0.27712000000000003  0.98028  0.56932  1.0000
  N   N69       1.0  0.47893  0.95962  0.56831  1.0000
  N   N70       1.0  0.80117  0.86393  0.42867  1.0000
  N   N71       1.0  0.05652  0.95531  0.5259  1.0000
  N   N72       1.0  0.70841  0.95087  0.52672  1.0000
  N   N73       1.0  0.21047000000000002  0.51399  0.62061  1.0000
  N   N74       1.0  0.6928  0.29172  0.81456  1.0000
  N   N75       1.0  0.01948  0.48551  0.61278  1.0000
  N   N76       1.0  0.44172  0.4666  0.65542  1.0000
  N   N77       1.0  0.67469  0.35674  0.7490899999999999  1.0000
  N   N78       1.0  0.79165  0.45827  0.65313  1.0000
  N   N79       1.0  0.76183  0.30167  0.86447  1.0000
  N   N80       1.0  0.22336000000000006  0.48068000000000005  0.06884  1.0000
  N   N81       1.0  0.02188  0.46025  0.06892  1.0000
  N   N82       1.0  0.69901  0.3648  0.92858  1.0000
  N   N83       1.0  0.44532  0.45471  0.02618  1.0000
  N   N84       1.0  0.7937000000000002  0.4504  0.02671  1.0000
  N   N85       1.0  0.28847000000000006  0.98586  0.6211  1.0000
  N   N86       1.0  0.8046100000000002  0.20807  0.81439  1.0000
  N   N87       1.0  0.4793100000000001  0.01389  0.61238  1.0000
  N   N88       1.0  0.05748  0.03354  0.65547  1.0000
  N   N89       1.0  0.82509  0.14226  0.74911  1.0000
  N   N90       1.0  0.7071000000000002  0.04172  0.65285  1.0000
  N   N91       1.0  0.73635  0.1987  0.86437  1.0000
  N   N92       1.0  0.27748  0.0192  0.06912  1.0000
  N   N93       1.0  0.4793  0.04004  0.0683  1.0000
  N   N94       1.0  0.80097  0.13607  0.92853  1.0000
  N   N95       1.0  0.05624  0.04477  0.02594  1.0000
  N   N96       1.0  0.70845  0.04941  0.02664  1.0000
  O   O1        1.0  0.60696  0.60362  0.32876  1.0000
  O   O2        1.0  0.4239  0.68993  0.27088  1.0000
  O   O3        1.0  0.15617  0.53248  0.30929  1.0000
  O   O4        1.0  0.4463800000000001  0.60858  0.07706  1.0000
  O   O5        1.0  0.61568  0.58969  0.0031799999999999992  1.0000
  O   O6        1.0  0.14751  0.53918  0.0096  1.0000
  O   O7        1.0  0.89777  0.8942500000000001  0.32989999999999997  1.0000
  O   O8        1.0  0.07388  0.81203  0.26999  1.0000
  O   O9        1.0  0.34743  0.96726  0.30939  1.0000
  O   O10       1.0  0.05412  0.88897  0.07649  1.0000
  O   O11       1.0  0.88418  0.90944  0.00324  1.0000
  O   O12       1.0  0.34991  0.96303  0.00936  1.0000
  O   O13       1.0  0.60731  0.39629  0.8288  1.0000
  O   O14       1.0  0.42747  0.3114  0.7704  1.0000
  O   O15       1.0  0.15646  0.46754  0.8093  1.0000
  O   O16       1.0  0.44644  0.38883  0.5763  1.0000
  O   O17       1.0  0.61159  0.4059900000000001  0.50182  1.0000
  O   O18       1.0  0.14703000000000002  0.46295  0.50964  1.0000
  O   O19       1.0  0.89288  0.10365000000000002  0.82883  1.0000
  O   O20       1.0  0.07131  0.18659  0.76976  1.0000
  O   O21       1.0  0.34372  0.03248  0.8094  1.0000
  O   O22       1.0  0.05398  0.11099  0.5768  1.0000
  O   O23       1.0  0.8840200000000003  0.09078  0.50311  1.0000
  O   O24       1.0  0.35154  0.03941  0.51008  1.0000
  O   O25       1.0  0.39269  0.60334  0.17121  1.0000
  O   O26       1.0  0.57487  0.6879100000000001  0.22975  1.0000
  O   O27       1.0  0.84349  0.53047  0.19072  1.0000
  O   O28       1.0  0.55368  0.61116  0.42371  1.0000
  O   O29       1.0  0.38841  0.5938  0.49794  1.0000
  O   O30       1.0  0.8529200000000002  0.53698  0.49068  1.0000
  O   O31       1.0  0.10675  0.89627  0.17123  1.0000
  O   O32       1.0  0.92742  0.81219  0.2301  1.0000
  O   O33       1.0  0.65713  0.96955  0.19069  1.0000
  O   O34       1.0  0.9463  0.88906  0.4234  1.0000
  O   O35       1.0  0.11563  0.90867  0.49702  1.0000
  O   O36       1.0  0.64821  0.96059  0.49  1.0000
  O   O37       1.0  0.39297  0.39626  0.67117  1.0000
  O   O38       1.0  0.57064  0.31176  0.73001  1.0000
  O   O39       1.0  0.84368  0.46736  0.69081  1.0000
  O   O40       1.0  0.55328  0.38907  0.92363  1.0000
  O   O41       1.0  0.38683  0.40803  0.99713  1.0000
  O   O42       1.0  0.85248  0.46255  0.9900299999999997  1.0000
  O   O43       1.0  0.10677  0.10365000000000002  0.67128  1.0000
  O   O44       1.0  0.92438  0.18916  0.7290699999999998  1.0000
  O   O45       1.0  0.6564200000000001  0.03254  0.69064  1.0000
  O   O46       1.0  0.9458  0.11101  0.92303  1.0000
  O   O47       1.0  0.11578000000000002  0.09073  0.99682  1.0000
  O   O48       1.0  0.64823  0.03942  0.98992  1.0000
