data_image0
_chemical_formula_structural       Zn12H228C356N20O52
_chemical_formula_sum              "Zn12 H228 C356 N20 O52"
_cell_length_a       19.61663
_cell_length_b       21.61848
_cell_length_c       36.38248
_cell_angle_alpha    90.07093
_cell_angle_beta     89.92034999999998
_cell_angle_gamma    95.95817

_space_group_name_H-M_alt    "P 1"
_space_group_IT_number       1

loop_
  _space_group_symop_operation_xyz
  'x, y, z'

loop_
  _atom_site_type_symbol
  _atom_site_label
  _atom_site_symmetry_multiplicity
  _atom_site_fract_x
  _atom_site_fract_y
  _atom_site_fract_z
  _atom_site_occupancy
  Zn  Zn1       1.0  0.46595000000000003  0.20155  0.18246  1.0000
  Zn  Zn2       1.0  0.64118  0.24843999999999997  0.15867  1.0000
  Zn  Zn3       1.0  0.80991  0.31475999999999993  0.18798000000000006  1.0000
  Zn  Zn4       1.0  0.03279999999999998  0.7982599999999997  0.68246  1.0000
  Zn  Zn5       1.0  0.85769  0.75058  0.65976  1.0000
  Zn  Zn6       1.0  0.68897  0.68484  0.6878700000000002  1.0000
  Zn  Zn7       1.0  0.53405  0.79845  0.81753  1.0000
  Zn  Zn8       1.0  0.35882  0.75156  0.8413300000000001  1.0000
  Zn  Zn9       1.0  0.1901  0.68524  0.81202  1.0000
  Zn  Zn10      1.0  0.9672000000000001  0.20174  0.31753  1.0000
  Zn  Zn11      1.0  0.14231  0.24942  0.3402400000000001  1.0000
  Zn  Zn12      1.0  0.31104  0.31516  0.31212  1.0000
  H   H1        1.0  0.80459  0.7541599999999999  0.5468300000000001  1.0000
  H   H2        1.0  0.015369999999999995  0.20533999999999997  0.22597000000000006  1.0000
  H   H3        1.0  0.89378  0.22491999999999998  0.21949  1.0000
  H   H4        1.0  0.06959  0.38163  0.17139  1.0000
  H   H5        1.0  0.9443400000000001  0.39445  0.16863000000000006  1.0000
  H   H6        1.0  0.5076299999999999  0.08892999999999998  0.28418000000000004  1.0000
  H   H7        1.0  0.5224399999999999  0.9947799999999998  0.32075  1.0000
  H   H8        1.0  0.65394  0.49097  0.27026000000000006  1.0000
  H   H9        1.0  0.33888  0.12841999999999998  0.15941  1.0000
  H   H10       1.0  0.21077  0.13477  0.16036  1.0000
  H   H11       1.0  0.43358  0.4718499999999999  0.26172  1.0000
  H   H12       1.0  0.65832  0.39871999999999996  0.23024000000000003  1.0000
  H   H13       1.0  0.47401000000000004  0.97717  0.18706000000000003  1.0000
  H   H14       1.0  0.43875  0.38004  0.22154  1.0000
  H   H15       1.0  0.48901000000000006  0.8821499999999998  0.22327000000000002  1.0000
  H   H16       1.0  0.37457  0.2901099999999999  0.22027  1.0000
  H   H17       1.0  0.25134  0.30344999999999994  0.2247  1.0000
  H   H18       1.0  0.47206000000000004  0.9053  0.34652  1.0000
  H   H19       1.0  0.68086  0.7964299999999999  0.44803000000000004  1.0000
  H   H20       1.0  0.4509500000000001  0.5745799999999999  0.26665000000000005  1.0000
  H   H21       1.0  0.6274800000000001  0.52607  0.32617  1.0000
  H   H22       1.0  0.44976  0.66922  0.30442  1.0000
  H   H23       1.0  0.63248  0.7972199999999999  0.38582  1.0000
  H   H24       1.0  0.48705000000000004  0.80973  0.38139  1.0000
  H   H25       1.0  0.62576  0.62089  0.3638400000000001  1.0000
  H   H26       1.0  0.58122  0.73417  0.28684  1.0000
  H   H27       1.0  0.5076800000000001  0.6259  0.40859  1.0000
  H   H28       1.0  0.56605  0.82931  0.25193000000000004  1.0000
  H   H29       1.0  0.55775  0.62372  0.47063000000000005  1.0000
  H   H30       1.0  0.5657  0.66007  0.5277  1.0000
  H   H31       1.0  0.61876  0.6584  0.58947  1.0000
  H   H32       1.0  0.75345  0.7547499999999999  0.48487  1.0000
  H   H33       1.0  0.15722  0.31801999999999997  0.19863  1.0000
  H   H34       1.0  0.83336  0.70619  0.26061000000000006  1.0000
  H   H35       1.0  0.8593000000000001  0.04264  0.26357  1.0000
  H   H36       1.0  0.63071  0.11421999999999999  0.241  1.0000
  H   H37       1.0  0.84933  0.13493  0.22502  1.0000
  H   H38       1.0  0.79953  0.43156  0.29153  1.0000
  H   H39       1.0  0.64105  0.02387  0.28141  1.0000
  H   H40       1.0  0.79728  0.52767  0.3286  1.0000
  H   H41       1.0  0.74075  0.60178  0.35177  1.0000
  H   H42       1.0  0.87587  0.8721399999999998  0.5963  1.0000
  H   H43       1.0  0.82674  0.91077  0.47569000000000006  1.0000
  H   H44       1.0  0.66136  0.9232  0.2855900000000001  1.0000
  H   H45       1.0  0.85743  0.01082  0.3222800000000001  1.0000
  H   H46       1.0  0.73728  0.6991899999999999  0.38688  1.0000
  H   H47       1.0  0.87222  0.91892  0.36051  1.0000
  H   H48       1.0  0.77319  0.90268  0.41462000000000004  1.0000
  H   H49       1.0  0.8318300000000001  0.8814199999999999  0.5331900000000002  1.0000
  H   H50       1.0  0.79243  0.53775  0.19238  1.0000
  H   H51       1.0  0.67659  0.83188  0.32408000000000003  1.0000
  H   H52       1.0  0.78146  0.63302  0.22906000000000004  1.0000
  H   H53       1.0  0.035659999999999976  0.7686099999999999  0.5557000000000001  1.0000
  H   H54       1.0  0.91531  0.7395699999999998  0.45588000000000006  1.0000
  H   H55       1.0  0.99089  0.77616  0.49237  1.0000
  H   H56       1.0  0.86604  0.7339099999999998  0.39427  1.0000
  H   H57       1.0  0.82992  0.8031  0.29576  1.0000
  H   H58       1.0  0.69374  0.24984  0.04686  1.0000
  H   H59       1.0  0.48368000000000005  0.7956299999999998  0.72479  1.0000
  H   H60       1.0  0.60534  0.77602  0.7182900000000002  1.0000
  H   H61       1.0  0.42952  0.61868  0.67086  1.0000
  H   H62       1.0  0.55465  0.60557  0.66826  1.0000
  H   H63       1.0  0.99237  0.91229  0.7844  1.0000
  H   H64       1.0  0.9791500000000001  0.0074800000000000005  0.8204300000000002  1.0000
  H   H65       1.0  0.84594  0.50665  0.7692100000000002  1.0000
  H   H66       1.0  0.15979  0.87155  0.65995  1.0000
  H   H67       1.0  0.28802  0.86555  0.66096  1.0000
  H   H68       1.0  0.06636999999999998  0.5276999999999998  0.76088  1.0000
  H   H69       1.0  0.84096  0.59922  0.72953  1.0000
  H   H70       1.0  0.02343  0.02157  0.68624  1.0000
  H   H71       1.0  0.06056  0.61954  0.7209200000000002  1.0000
  H   H72       1.0  0.009839999999999995  0.11767999999999999  0.7220000000000001  1.0000
  H   H73       1.0  0.12423000000000001  0.70853  0.71939  1.0000
  H   H74       1.0  0.24760000000000001  0.69572  0.72391  1.0000
  H   H75       1.0  0.02958  0.09565  0.8454000000000002  1.0000
  H   H76       1.0  0.81792  0.20414999999999997  0.9478300000000001  1.0000
  H   H77       1.0  0.04957  0.42463  0.76648  1.0000
  H   H78       1.0  0.87198  0.4734  0.8252400000000002  1.0000
  H   H79       1.0  0.05075000000000001  0.33074  0.8047900000000002  1.0000
  H   H80       1.0  0.86675  0.20346999999999998  0.88556  1.0000
  H   H81       1.0  0.0136  0.19036  0.8810300000000001  1.0000
  H   H82       1.0  0.87353  0.37923  0.8633900000000002  1.0000
  H   H83       1.0  0.91874  0.26659  0.78716  1.0000
  H   H84       1.0  0.9920800000000001  0.37438999999999995  0.9088800000000001  1.0000
  H   H85       1.0  0.93474  0.1722  0.75153  1.0000
  H   H86       1.0  0.94168  0.37624  0.9709900000000001  1.0000
  H   H87       1.0  0.9347500000000001  0.33851999999999993  0.027620000000000002  1.0000
  H   H88       1.0  0.8817700000000002  0.3411  0.08946  1.0000
  H   H89       1.0  0.74469  0.24844999999999998  0.9847  1.0000
  H   H90       1.0  0.34195  0.6821  0.69797  1.0000
  H   H91       1.0  0.6649900000000002  0.29283  0.75922  1.0000
  H   H92       1.0  0.6423700000000001  0.95864  0.76272  1.0000
  H   H93       1.0  0.87009  0.8841699999999999  0.7412500000000001  1.0000
  H   H94       1.0  0.65168  0.8653199999999998  0.7248200000000002  1.0000
  H   H95       1.0  0.70197  0.5679799999999999  0.7911000000000002  1.0000
  H   H96       1.0  0.86056  0.9759399999999999  0.78082  1.0000
  H   H97       1.0  0.70282  0.47106  0.82751  1.0000
  H   H98       1.0  0.75836  0.39822  0.8498  1.0000
  H   H99       1.0  0.62336  0.12909999999999996  0.09608000000000003  1.0000
  H   H100      1.0  0.6735400000000001  0.08992  0.97491  1.0000
  H   H101      1.0  0.8400800000000002  0.07729  0.78541  1.0000
  H   H102      1.0  0.64401  0.98889  0.82159  1.0000
  H   H103      1.0  0.76154  0.30134  0.88533  1.0000
  H   H104      1.0  0.6276000000000002  0.08115  0.85935  1.0000
  H   H105      1.0  0.72679  0.09807999999999999  0.9137400000000001  1.0000
  H   H106      1.0  0.66811  0.11954999999999999  0.0328  1.0000
  H   H107      1.0  0.7072  0.46304999999999996  0.6912400000000001  1.0000
  H   H108      1.0  0.8234400000000001  0.16901999999999998  0.82345  1.0000
  H   H109      1.0  0.71686  0.3668  0.7272300000000003  1.0000
  H   H110      1.0  0.46268  0.23046  0.0552  1.0000
  H   H111      1.0  0.58452  0.26077  0.9557900000000001  1.0000
  H   H112      1.0  0.50799  0.22284  0.99175  1.0000
  H   H113      1.0  0.6333700000000001  0.26682  0.8940400000000001  1.0000
  H   H114      1.0  0.66809  0.19634  0.7947500000000001  1.0000
  H   H115      1.0  0.19542  0.24584  0.45317  1.0000
  H   H116      1.0  0.98464  0.79466  0.7740300000000002  1.0000
  H   H117      1.0  0.10623  0.77508  0.7805000000000002  1.0000
  H   H118      1.0  0.9304200000000001  0.6183699999999999  0.8286100000000001  1.0000
  H   H119      1.0  0.055670000000000004  0.60556  0.8313600000000001  1.0000
  H   H120      1.0  0.49238000000000004  0.91107  0.7158200000000002  1.0000
  H   H121      1.0  0.47757000000000005  0.005219999999999999  0.67924  1.0000
  H   H122      1.0  0.34607  0.50904  0.72973  1.0000
  H   H123      1.0  0.6611199999999999  0.8715899999999999  0.8405900000000002  1.0000
  H   H124      1.0  0.78924  0.86523  0.83964  1.0000
  H   H125      1.0  0.56642  0.52815  0.7382800000000003  1.0000
  H   H126      1.0  0.34168999999999994  0.60129  0.76975  1.0000
  H   H127      1.0  0.526  0.02284  0.81294  1.0000
  H   H128      1.0  0.56126  0.61996  0.77846  1.0000
  H   H129      1.0  0.51099  0.11784999999999998  0.7767200000000002  1.0000
  H   H130      1.0  0.6254400000000001  0.7099  0.77973  1.0000
  H   H131      1.0  0.74866  0.69655  0.7752900000000003  1.0000
  H   H132      1.0  0.52795  0.0947  0.65348  1.0000
  H   H133      1.0  0.31915  0.20356999999999995  0.55196  1.0000
  H   H134      1.0  0.5490599999999999  0.42542  0.7333500000000002  1.0000
  H   H135      1.0  0.37252  0.47394  0.6738200000000001  1.0000
  H   H136      1.0  0.55024  0.33077999999999996  0.69558  1.0000
  H   H137      1.0  0.36753  0.20278  0.61418  1.0000
  H   H138      1.0  0.51296  0.19026999999999997  0.6186  1.0000
  H   H139      1.0  0.37424  0.37911  0.63615  1.0000
  H   H140      1.0  0.41877999999999993  0.26583  0.71316  1.0000
  H   H141      1.0  0.49233  0.3741  0.59141  1.0000
  H   H142      1.0  0.43394999999999995  0.17069  0.7480600000000001  1.0000
  H   H143      1.0  0.44226  0.37628  0.52937  1.0000
  H   H144      1.0  0.43431  0.33993  0.4723  1.0000
  H   H145      1.0  0.38125  0.34159999999999996  0.41052  1.0000
  H   H146      1.0  0.24656  0.24524999999999997  0.51512  1.0000
  H   H147      1.0  0.8427900000000002  0.68198  0.80137  1.0000
  H   H148      1.0  0.16665  0.29381  0.73938  1.0000
  H   H149      1.0  0.1407  0.95736  0.73643  1.0000
  H   H150      1.0  0.3693  0.8857799999999999  0.759  1.0000
  H   H151      1.0  0.15067  0.86507  0.77498  1.0000
  H   H152      1.0  0.20048  0.56844  0.70847  1.0000
  H   H153      1.0  0.35896  0.97613  0.71859  1.0000
  H   H154      1.0  0.20273  0.47232999999999997  0.67139  1.0000
  H   H155      1.0  0.25926  0.39822  0.64823  1.0000
  H   H156      1.0  0.12414  0.12787  0.4037  1.0000
  H   H157      1.0  0.17326  0.08923  0.52431  1.0000
  H   H158      1.0  0.33865  0.07681  0.71441  1.0000
  H   H159      1.0  0.14257999999999998  0.9891799999999998  0.67771  1.0000
  H   H160      1.0  0.26273  0.30082  0.61312  1.0000
  H   H161      1.0  0.12778  0.08108  0.63948  1.0000
  H   H162      1.0  0.22682000000000002  0.09733  0.5853800000000001  1.0000
  H   H163      1.0  0.16818  0.11859  0.46681000000000006  1.0000
  H   H164      1.0  0.20757999999999996  0.46226  0.80762  1.0000
  H   H165      1.0  0.32342  0.16812999999999997  0.67591  1.0000
  H   H166      1.0  0.21855  0.36698  0.77094  1.0000
  H   H167      1.0  0.96435  0.23139999999999994  0.44429  1.0000
  H   H168      1.0  0.08469  0.26044  0.54412  1.0000
  H   H169      1.0  0.009120000000000001  0.22383999999999998  0.50763  1.0000
  H   H170      1.0  0.13396000000000002  0.26609  0.60573  1.0000
  H   H171      1.0  0.17009  0.1969  0.7042400000000001  1.0000
  H   H172      1.0  0.30627000000000004  0.75016  0.95314  1.0000
  H   H173      1.0  0.51632  0.20438  0.2752  1.0000
  H   H174      1.0  0.39467  0.22397999999999996  0.28171  1.0000
  H   H175      1.0  0.5704800000000002  0.38131999999999994  0.32914  1.0000
  H   H176      1.0  0.44536000000000003  0.39443  0.33174  1.0000
  H   H177      1.0  0.007640000000000003  0.08771  0.2156  1.0000
  H   H178      1.0  0.02085999999999997  0.9925299999999998  0.17957000000000004  1.0000
  H   H179      1.0  0.15407  0.49335  0.23079000000000002  1.0000
  H   H180      1.0  0.84021  0.12845  0.3400400000000001  1.0000
  H   H181      1.0  0.71199  0.13445  0.33904  1.0000
  H   H182      1.0  0.9336399999999999  0.47230999999999995  0.23912000000000003  1.0000
  H   H183      1.0  0.15905  0.40078  0.27047  1.0000
  H   H184      1.0  0.9765800000000001  0.97843  0.31375  1.0000
  H   H185      1.0  0.93945  0.38047  0.27908  1.0000
  H   H186      1.0  0.99017  0.88232  0.27800000000000014  1.0000
  H   H187      1.0  0.87577  0.29147  0.28061  1.0000
  H   H188      1.0  0.7524100000000001  0.30428  0.27609  1.0000
  H   H189      1.0  0.9704300000000001  0.9043499999999999  0.15459  1.0000
  H   H190      1.0  0.18209000000000003  0.79585  0.05217  1.0000
  H   H191      1.0  0.95044  0.57537  0.23352  1.0000
  H   H192      1.0  0.12803000000000003  0.5266  0.17476000000000005  1.0000
  H   H193      1.0  0.94926  0.66926  0.19521000000000005  1.0000
  H   H194      1.0  0.13326000000000002  0.79653  0.11444000000000001  1.0000
  H   H195      1.0  0.9864100000000001  0.80964  0.11897000000000002  1.0000
  H   H196      1.0  0.12648  0.62077  0.13661  1.0000
  H   H197      1.0  0.08127  0.7334199999999998  0.21284000000000006  1.0000
  H   H198      1.0  0.007930000000000005  0.62561  0.09111000000000002  1.0000
  H   H199      1.0  0.06526999999999998  0.8277999999999999  0.24846  1.0000
  H   H200      1.0  0.05832  0.62377  0.029010000000000005  1.0000
  H   H201      1.0  0.06526  0.66149  0.97238  1.0000
  H   H202      1.0  0.11824000000000001  0.6589  0.91054  1.0000
  H   H203      1.0  0.25532  0.75155  0.0153  1.0000
  H   H204      1.0  0.65806  0.31791  0.30203000000000013  1.0000
  H   H205      1.0  0.33502  0.70717  0.24078000000000002  1.0000
  H   H206      1.0  0.35764  0.04136  0.23728  1.0000
  H   H207      1.0  0.12992  0.11584  0.25875  1.0000
  H   H208      1.0  0.34833  0.13468  0.27518  1.0000
  H   H209      1.0  0.29803999999999997  0.43201999999999996  0.20890000000000003  1.0000
  H   H210      1.0  0.13944999999999996  0.02407  0.21917000000000006  1.0000
  H   H211      1.0  0.29719  0.52894  0.17248000000000002  1.0000
  H   H212      1.0  0.24165  0.60179  0.15019  1.0000
  H   H213      1.0  0.37665  0.8708999999999999  0.90392  1.0000
  H   H214      1.0  0.3264599999999999  0.9100799999999999  0.02509  1.0000
  H   H215      1.0  0.15991999999999998  0.9227099999999999  0.21459  1.0000
  H   H216      1.0  0.356  0.01111  0.17841000000000004  1.0000
  H   H217      1.0  0.23846  0.69866  0.11467  1.0000
  H   H218      1.0  0.37241  0.9188499999999998  0.14064  1.0000
  H   H219      1.0  0.27321  0.9019299999999999  0.08625  1.0000
  H   H220      1.0  0.3319  0.8804499999999998  0.9672000000000001  1.0000
  H   H221      1.0  0.29281  0.5369499999999999  0.3087600000000001  1.0000
  H   H222      1.0  0.17657000000000003  0.83099  0.17655000000000007  1.0000
  H   H223      1.0  0.28314  0.6332  0.27277  1.0000
  H   H224      1.0  0.53733  0.76954  0.9448  1.0000
  H   H225      1.0  0.41548999999999997  0.73924  0.0442  1.0000
  H   H226      1.0  0.49201  0.7771699999999999  0.00825  1.0000
  H   H227      1.0  0.36664  0.73318  0.10596  1.0000
  H   H228      1.0  0.33192000000000005  0.80366  0.20525000000000004  1.0000
  C   C1        1.0  0.75233  0.7336299999999999  0.54246  1.0000
  C   C2        1.0  0.002469999999999997  0.24674  0.21181000000000005  1.0000
  C   C3        1.0  0.14434999999999998  0.22225999999999999  0.19084  1.0000
  C   C4        1.0  0.9345500000000001  0.25787999999999994  0.20891  1.0000
  C   C5        1.0  0.03214  0.34538  0.18196  1.0000
  C   C6        1.0  0.05258  0.29075  0.19725  1.0000
  C   C7        1.0  0.96268  0.35287  0.18024  1.0000
  C   C8        1.0  0.47775000000000006  0.09522999999999998  0.21121000000000006  1.0000
  C   C9        1.0  0.48948  0.03906  0.23324  1.0000
  C   C10       1.0  0.5028  0.04341  0.27109000000000005  1.0000
  C   C11       1.0  0.50689  0.93109  0.27484000000000003  1.0000
  C   C12       1.0  0.51093  0.99022  0.29157000000000005  1.0000
  C   C13       1.0  0.54873  0.38311  0.2233  1.0000
  C   C14       1.0  0.55117  0.32653  0.19989  1.0000
  C   C15       1.0  0.6064  0.4663799999999999  0.26015000000000005  1.0000
  C   C16       1.0  0.31634000000000007  0.1664  0.17288  1.0000
  C   C17       1.0  0.24615  0.17028  0.17330000000000007  1.0000
  C   C18       1.0  0.54006  0.5432  0.29299  1.0000
  C   C19       1.0  0.4829800000000001  0.45653999999999995  0.25457  1.0000
  C   C20       1.0  0.6092500000000001  0.41491  0.23733000000000004  1.0000
  C   C21       1.0  0.48496  0.98034  0.21633  1.0000
  C   C22       1.0  0.4857000000000001  0.40464  0.23222  1.0000
  C   C23       1.0  0.49378  0.92736  0.23675  1.0000
  C   C24       1.0  0.5432  0.48826  0.26920000000000005  1.0000
  C   C25       1.0  0.53868  0.65215  0.33633  1.0000
  C   C26       1.0  0.22063000000000002  0.22056999999999993  0.19110000000000005  1.0000
  C   C27       1.0  0.33658  0.25725  0.20701000000000003  1.0000
  C   C28       1.0  0.26692  0.26467999999999997  0.20861  1.0000
  C   C29       1.0  0.49657  0.86818  0.33331  1.0000
  C   C30       1.0  0.6430600000000002  0.7585699999999999  0.4397700000000001  1.0000
  C   C31       1.0  0.53421  0.76473  0.33642  1.0000
  C   C32       1.0  0.65512  0.70799  0.5014000000000002  1.0000
  C   C33       1.0  0.48938  0.5841199999999999  0.28802000000000005  1.0000
  C   C34       1.0  0.5167599999999999  0.8746799999999999  0.2962  1.0000
  C   C35       1.0  0.58831  0.5571699999999999  0.32115  1.0000
  C   C36       1.0  0.5667300000000001  0.7114599999999999  0.39269  1.0000
  C   C37       1.0  0.48843  0.63758  0.30929  1.0000
  C   C38       1.0  0.62378  0.7096999999999999  0.46449  1.0000
  C   C39       1.0  0.7149700000000001  0.70675  0.57237  1.0000
  C   C40       1.0  0.61544  0.75957  0.40453  1.0000
  C   C41       1.0  0.7449  0.70845  0.61016  1.0000
  C   C42       1.0  0.50455  0.8142399999999999  0.35306  1.0000
  C   C43       1.0  0.5876900000000002  0.61044  0.34252  1.0000
  C   C44       1.0  0.55639  0.77134  0.29971  1.0000
  C   C45       1.0  0.5454399999999999  0.6633399999999999  0.4174300000000001  1.0000
  C   C46       1.0  0.54718  0.8249999999999998  0.28006  1.0000
  C   C47       1.0  0.5738  0.66246  0.45244000000000006  1.0000
  C   C48       1.0  0.61843  0.68008  0.53151  1.0000
  C   C49       1.0  0.64773  0.67933  0.56634  1.0000
  C   C50       1.0  0.72296  0.7342799999999999  0.5076400000000001  1.0000
  C   C51       1.0  0.81094  0.7040199999999999  0.28799  1.0000
  C   C52       1.0  0.75128  0.0273  0.27623  1.0000
  C   C53       1.0  0.73937  0.13167  0.23099  1.0000
  C   C54       1.0  0.80947  0.05927  0.25959  1.0000
  C   C55       1.0  0.8025800000000001  0.4224199999999999  0.21638  1.0000
  C   C56       1.0  0.6807100000000001  0.09858  0.24629000000000004  1.0000
  C   C57       1.0  0.73251  0.18831999999999996  0.20861  1.0000
  C   C58       1.0  0.7957  0.47845  0.23953  1.0000
  C   C59       1.0  0.80375  0.111  0.23761000000000002  1.0000
  C   C60       1.0  0.79575  0.4759999999999999  0.27806  1.0000
  C   C61       1.0  0.68683  0.04755  0.26884  1.0000
  C   C62       1.0  0.75847  0.9737899999999998  0.30056  1.0000
  C   C63       1.0  0.78692  0.64587  0.30318  1.0000
  C   C64       1.0  0.79373  0.5301  0.29881  1.0000
  C   C65       1.0  0.77562  0.8692099999999999  0.34468  1.0000
  C   C66       1.0  0.81522  0.81754  0.3998  1.0000
  C   C67       1.0  0.7891  0.58808  0.2817500000000001  1.0000
  C   C68       1.0  0.761  0.6456  0.33932000000000007  1.0000
  C   C69       1.0  0.90108  0.85155  0.57338  1.0000
  C   C70       1.0  0.9574900000000001  0.8183099999999998  0.58019  1.0000
  C   C71       1.0  0.8349300000000001  0.87123  0.45828  1.0000
  C   C72       1.0  0.7074899999999998  0.9229699999999998  0.30213  1.0000
  C   C73       1.0  0.81744  0.9718099999999997  0.32241  1.0000
  C   C74       1.0  0.78388  0.75777  0.34384  1.0000
  C   C75       1.0  0.75862  0.7003299999999999  0.35925  1.0000
  C   C76       1.0  0.82604  0.92019  0.34414  1.0000
  C   C77       1.0  0.80454  0.8670099999999998  0.42369  1.0000
  C   C78       1.0  0.87685  0.85703  0.53771  1.0000
  C   C79       1.0  0.79209  0.53602  0.22226  1.0000
  C   C80       1.0  0.71579  0.87136  0.32388000000000006  1.0000
  C   C81       1.0  0.98171  0.80861  0.618  1.0000
  C   C82       1.0  0.78736  0.5894399999999999  0.243  1.0000
  C   C83       1.0  0.9907000000000001  0.7927399999999999  0.55045  1.0000
  C   C84       1.0  0.90665  0.8277899999999999  0.50795  1.0000
  C   C85       1.0  0.8761700000000001  0.82605  0.47092000000000006  1.0000
  C   C86       1.0  0.88555  0.7764999999999999  0.44691  1.0000
  C   C87       1.0  0.9652199999999999  0.7969799999999999  0.51505  1.0000
  C   C88       1.0  0.8567  0.77243  0.41208  1.0000
  C   C89       1.0  0.80967  0.75894  0.30778  1.0000
  C   C90       1.0  0.74651  0.26896  0.04242  1.0000
  C   C91       1.0  0.49664000000000014  0.75402  0.71082  1.0000
  C   C92       1.0  0.35449  0.7778699999999998  0.6906700000000001  1.0000
  C   C93       1.0  0.56457  0.74288  0.70789  1.0000
  C   C94       1.0  0.46697000000000005  0.65499  0.68134  1.0000
  C   C95       1.0  0.44648000000000004  0.70971  0.69661  1.0000
  C   C96       1.0  0.53642  0.64742  0.67965  1.0000
  C   C97       1.0  0.020950000000000007  0.9044499999999998  0.71116  1.0000
  C   C98       1.0  0.009430000000000023  0.96096  0.73297  1.0000
  C   C99       1.0  0.9970500000000001  0.95746  0.77094  1.0000
  C   C100      1.0  0.99334  0.06993  0.7740200000000002  1.0000
  C   C101      1.0  0.9896300000000001  0.011189999999999999  0.7911000000000002  1.0000
  C   C102      1.0  0.95059  0.6157  0.7228600000000001  1.0000
  C   C103      1.0  0.9475  0.67215  0.69957  1.0000
  C   C104      1.0  0.89329  0.53186  0.75928  1.0000
  C   C105      1.0  0.18238  0.83338  0.6731  1.0000
  C   C106      1.0  0.25259  0.8296899999999999  0.67353  1.0000
  C   C107      1.0  0.95992  0.45607999999999993  0.79243  1.0000
  C   C108      1.0  0.016810000000000002  0.54267  0.7538600000000002  1.0000
  C   C109      1.0  0.89014  0.5834  0.7366700000000002  1.0000
  C   C110      1.0  0.013369999999999996  0.01925  0.71564  1.0000
  C   C111      1.0  0.013799999999999982  0.5946099999999999  0.73165  1.0000
  C   C112      1.0  0.0052200000000000015  0.07278  0.73578  1.0000
  C   C113      1.0  0.95669  0.51062  0.76844  1.0000
  C   C114      1.0  0.96142  0.34804  0.83637  1.0000
  C   C115      1.0  0.27820000000000006  0.77924  0.69097  1.0000
  C   C116      1.0  0.16220000000000004  0.74181  0.70646  1.0000
  C   C117      1.0  0.23191  0.73463  0.70808  1.0000
  C   C118      1.0  0.0046  0.13269  0.8325100000000002  1.0000
  C   C119      1.0  0.8560000000000001  0.24185  0.9396200000000001  1.0000
  C   C120      1.0  0.96611  0.23568999999999996  0.8364000000000001  1.0000
  C   C121      1.0  0.84418  0.29247999999999996  0.0013700000000000003  1.0000
  C   C122      1.0  0.01094  0.41537  0.78781  1.0000
  C   C123      1.0  0.9841700000000001  0.12651  0.7954400000000001  1.0000
  C   C124      1.0  0.91138  0.44239  0.8205400000000003  1.0000
  C   C125      1.0  0.93296  0.28893  0.89275  1.0000
  C   C126      1.0  0.01195  0.36239  0.80939  1.0000
  C   C127      1.0  0.8755  0.29051  0.96447  1.0000
  C   C128      1.0  0.7848  0.29481999999999997  0.07227000000000001  1.0000
  C   C129      1.0  0.88389  0.24095  0.9044000000000001  1.0000
  C   C130      1.0  0.7556  0.29316  0.11015000000000001  1.0000
  C   C131      1.0  0.9962  0.1862  0.8526800000000002  1.0000
  C   C132      1.0  0.91198  0.38951  0.8421900000000002  1.0000
  C   C133      1.0  0.94394  0.22945999999999997  0.79971  1.0000
  C   C134      1.0  0.9542100000000001  0.33696  0.9176100000000001  1.0000
  C   C135      1.0  0.95351  0.17622  0.77966  1.0000
  C   C136      1.0  0.92568  0.3377  0.9526200000000001  1.0000
  C   C137      1.0  0.88167  0.3195  0.03143  1.0000
  C   C138      1.0  0.85253  0.3208  0.06627  1.0000
  C   C139      1.0  0.77573  0.2678  0.007550000000000001  1.0000
  C   C140      1.0  0.6874  0.29528  0.78658  1.0000
  C   C141      1.0  0.75031  0.9730699999999999  0.7756200000000001  1.0000
  C   C142      1.0  0.76142  0.8675599999999999  0.73128  1.0000
  C   C143      1.0  0.6919900000000001  0.94143  0.7589600000000002  1.0000
  C   C144      1.0  0.69755  0.57779  0.71615  1.0000
  C   C145      1.0  0.82033  0.9005499999999997  0.74633  1.0000
  C   C146      1.0  0.76783  0.81024  0.70954  1.0000
  C   C147      1.0  0.70477  0.52153  0.73884  1.0000
  C   C148      1.0  0.69731  0.88911  0.73739  1.0000
  C   C149      1.0  0.70507  0.52362  0.77736  1.0000
  C   C150      1.0  0.81464  0.9522999999999998  0.76842  1.0000
  C   C151      1.0  0.74291  0.02653  0.8  1.0000
  C   C152      1.0  0.71176  0.35351  0.8015800000000002  1.0000
  C   C153      1.0  0.7064200000000002  0.46916  0.79771  1.0000
  C   C154      1.0  0.72421  0.1312  0.84384  1.0000
  C   C155      1.0  0.68419  0.18303  0.8990300000000001  1.0000
  C   C156      1.0  0.71016  0.41132  0.78025  1.0000
  C   C157      1.0  0.7378  0.35423  0.83764  1.0000
  C   C158      1.0  0.59826  0.1492  0.07299  1.0000
  C   C159      1.0  0.54121  0.18182  0.07964  1.0000
  C   C160      1.0  0.66515  0.1294  0.9575800000000001  1.0000
  C   C161      1.0  0.79358  0.07753999999999998  0.80171  1.0000
  C   C162      1.0  0.68361  0.02821  0.82171  1.0000
  C   C163      1.0  0.7143899999999999  0.24225999999999998  0.8426400000000001  1.0000
  C   C164      1.0  0.73994  0.29984  0.8577800000000002  1.0000
  C   C165      1.0  0.67418  0.07993  0.84324  1.0000
  C   C166      1.0  0.6953  0.13368  0.92287  1.0000
  C   C167      1.0  0.62289  0.14371  0.03734  1.0000
  C   C168      1.0  0.70772  0.46416999999999997  0.72113  1.0000
  C   C169      1.0  0.7845  0.12930999999999998  0.82327  1.0000
  C   C170      1.0  0.51652  0.19149  0.11742  1.0000
  C   C171      1.0  0.7118100000000002  0.41033  0.7414900000000002  1.0000
  C   C172      1.0  0.50796  0.20679999999999998  0.04985  1.0000
  C   C173      1.0  0.59294  0.1724  0.00749  1.0000
  C   C174      1.0  0.62374  0.17434  0.97046  1.0000
  C   C175      1.0  0.61426  0.22394  0.9465900000000002  1.0000
  C   C176      1.0  0.53383  0.20256999999999997  0.01449  1.0000
  C   C177      1.0  0.64288  0.22817  0.9116600000000001  1.0000
  C   C178      1.0  0.6884500000000001  0.24063  0.8066200000000002  1.0000
  C   C179      1.0  0.24768000000000004  0.26636999999999994  0.45754000000000006  1.0000
  C   C180      1.0  0.9975400000000001  0.7532599999999999  0.78819  1.0000
  C   C181      1.0  0.8556600000000001  0.77775  0.80916  1.0000
  C   C182      1.0  0.06545  0.74212  0.7910900000000002  1.0000
  C   C183      1.0  0.96787  0.65462  0.81804  1.0000
  C   C184      1.0  0.94742  0.7092499999999999  0.80275  1.0000
  C   C185      1.0  0.03733000000000001  0.64713  0.81976  1.0000
  C   C186      1.0  0.52226  0.90477  0.78879  1.0000
  C   C187      1.0  0.51053  0.9609399999999999  0.76676  1.0000
  C   C188      1.0  0.49721  0.9566  0.7289  1.0000
  C   C189      1.0  0.49312  0.06891  0.7251500000000001  1.0000
  C   C190      1.0  0.48908000000000007  0.009780000000000002  0.7084300000000002  1.0000
  C   C191      1.0  0.45127  0.6169  0.77669  1.0000
  C   C192      1.0  0.44883  0.67347  0.80011  1.0000
  C   C193      1.0  0.39361  0.53362  0.73985  1.0000
  C   C194      1.0  0.68367  0.8335999999999999  0.8271200000000001  1.0000
  C   C195      1.0  0.75385  0.82972  0.8267  1.0000
  C   C196      1.0  0.4599500000000001  0.45679999999999993  0.70701  1.0000
  C   C197      1.0  0.51703  0.54347  0.74542  1.0000
  C   C198      1.0  0.39076000000000005  0.5851  0.76266  1.0000
  C   C199      1.0  0.51505  0.01966  0.78366  1.0000
  C   C200      1.0  0.51431  0.59537  0.7677800000000002  1.0000
  C   C201      1.0  0.50622  0.07264  0.7632500000000002  1.0000
  C   C202      1.0  0.4568  0.51174  0.73079  1.0000
  C   C203      1.0  0.46132  0.34786  0.66367  1.0000
  C   C204      1.0  0.77938  0.7794299999999998  0.80889  1.0000
  C   C205      1.0  0.6634300000000001  0.74275  0.7929800000000001  1.0000
  C   C206      1.0  0.73308  0.73532  0.7913800000000002  1.0000
  C   C207      1.0  0.50344  0.13182  0.66669  1.0000
  C   C208      1.0  0.35695  0.24143  0.5602300000000001  1.0000
  C   C209      1.0  0.4657999999999999  0.23527  0.66358  1.0000
  C   C210      1.0  0.34488  0.29202000000000006  0.49860000000000004  1.0000
  C   C211      1.0  0.51063  0.41588  0.7119800000000002  1.0000
  C   C212      1.0  0.48325  0.12533  0.7038  1.0000
  C   C213      1.0  0.41169  0.44284  0.67884  1.0000
  C   C214      1.0  0.43327000000000004  0.28854  0.60731  1.0000
  C   C215      1.0  0.51158  0.36242  0.69071  1.0000
  C   C216      1.0  0.37622  0.29031  0.53551  1.0000
  C   C217      1.0  0.28504  0.29326  0.4276300000000001  1.0000
  C   C218      1.0  0.3845700000000001  0.24043  0.5954600000000001  1.0000
  C   C219      1.0  0.25510999999999995  0.29155  0.38984  1.0000
  C   C220      1.0  0.49546000000000007  0.18576  0.64694  1.0000
  C   C221      1.0  0.41232  0.38955999999999996  0.65748  1.0000
  C   C222      1.0  0.44362  0.22867  0.7002900000000001  1.0000
  C   C223      1.0  0.45457  0.33666  0.5825700000000001  1.0000
  C   C224      1.0  0.45283000000000007  0.17501  0.7199400000000001  1.0000
  C   C225      1.0  0.4262000000000001  0.33755  0.54755  1.0000
  C   C226      1.0  0.38158  0.31992999999999994  0.4684900000000001  1.0000
  C   C227      1.0  0.35228  0.32066999999999996  0.43366  1.0000
  C   C228      1.0  0.27705  0.26572  0.49236  1.0000
  C   C229      1.0  0.18907  0.29598  0.71201  1.0000
  C   C230      1.0  0.24873  0.97271  0.72377  1.0000
  C   C231      1.0  0.26063  0.86834  0.76901  1.0000
  C   C232      1.0  0.19054  0.94074  0.74041  1.0000
  C   C233      1.0  0.19742999999999997  0.57758  0.78362  1.0000
  C   C234      1.0  0.31929  0.90142  0.7537  1.0000
  C   C235      1.0  0.26749999999999996  0.8116899999999998  0.7913800000000002  1.0000
  C   C236      1.0  0.20431  0.52156  0.76047  1.0000
  C   C237      1.0  0.19626  0.8889999999999999  0.7623900000000001  1.0000
  C   C238      1.0  0.20425  0.52401  0.72193  1.0000
  C   C239      1.0  0.31318  0.95245  0.73115  1.0000
  C   C240      1.0  0.24154000000000003  0.02621  0.6994400000000002  1.0000
  C   C241      1.0  0.21309000000000003  0.35412999999999994  0.69682  1.0000
  C   C242      1.0  0.20627999999999996  0.46989999999999993  0.70118  1.0000
  C   C243      1.0  0.22439  0.13079999999999997  0.6553200000000001  1.0000
  C   C244      1.0  0.18478  0.18246999999999997  0.6002  1.0000
  C   C245      1.0  0.21091  0.41192  0.71824  1.0000
  C   C246      1.0  0.239  0.3544  0.66068  1.0000
  C   C247      1.0  0.09893000000000002  0.14845  0.42662000000000005  1.0000
  C   C248      1.0  0.04252  0.18169  0.4198100000000001  1.0000
  C   C249      1.0  0.16507  0.12877  0.5417200000000001  1.0000
  C   C250      1.0  0.29251  0.07704  0.69787  1.0000
  C   C251      1.0  0.18257  0.028199999999999996  0.67758  1.0000
  C   C252      1.0  0.21613000000000002  0.24222999999999995  0.65616  1.0000
  C   C253      1.0  0.24138  0.29968  0.64075  1.0000
  C   C254      1.0  0.17396  0.07981  0.65586  1.0000
  C   C255      1.0  0.19546  0.13299  0.57631  1.0000
  C   C256      1.0  0.12316000000000002  0.14296999999999999  0.46229  1.0000
  C   C257      1.0  0.20792  0.46397999999999995  0.7777400000000001  1.0000
  C   C258      1.0  0.28422000000000003  0.12864  0.6761200000000002  1.0000
  C   C259      1.0  0.018289999999999997  0.19138999999999998  0.38199  1.0000
  C   C260      1.0  0.21265000000000003  0.41056  0.75699  1.0000
  C   C261      1.0  0.0093  0.20727  0.44955000000000006  1.0000
  C   C262      1.0  0.09336000000000001  0.17221999999999998  0.49204  1.0000
  C   C263      1.0  0.12384000000000002  0.17394999999999997  0.52908  1.0000
  C   C264      1.0  0.11445000000000001  0.22351  0.55309  1.0000
  C   C265      1.0  0.03479  0.20302999999999996  0.48495000000000005  1.0000
  C   C266      1.0  0.14331  0.22757  0.58792  1.0000
  C   C267      1.0  0.19033  0.24106  0.6922200000000002  1.0000
  C   C268      1.0  0.2535  0.7310399999999999  0.9575700000000001  1.0000
  C   C269      1.0  0.50336  0.24597999999999998  0.28918  1.0000
  C   C270      1.0  0.64552  0.22213  0.30933000000000005  1.0000
  C   C271      1.0  0.43544  0.25712  0.29211  1.0000
  C   C272      1.0  0.53303  0.34501  0.31866  1.0000
  C   C273      1.0  0.55353  0.2903  0.30339  1.0000
  C   C274      1.0  0.46358  0.35257999999999995  0.32034  1.0000
  C   C275      1.0  0.9790500000000001  0.09556  0.28884  1.0000
  C   C276      1.0  0.9905800000000001  0.03904  0.26703  1.0000
  C   C277      1.0  0.00296  0.04254  0.22905000000000003  1.0000
  C   C278      1.0  0.006670000000000014  0.93007  0.22598  1.0000
  C   C279      1.0  0.010369999999999966  0.9888099999999997  0.20889  1.0000
  C   C280      1.0  0.04942  0.3843  0.27713  1.0000
  C   C281      1.0  0.05251000000000001  0.32785999999999993  0.30042  1.0000
  C   C282      1.0  0.10670999999999997  0.4681399999999999  0.24071000000000004  1.0000
  C   C283      1.0  0.8176300000000001  0.16663  0.32689000000000007  1.0000
  C   C284      1.0  0.74741  0.17030999999999996  0.32647  1.0000
  C   C285      1.0  0.040089999999999994  0.54393  0.20757000000000006  1.0000
  C   C286      1.0  0.98319  0.4573299999999999  0.24613000000000002  1.0000
  C   C287      1.0  0.10987  0.4166  0.26332  1.0000
  C   C288      1.0  0.9866400000000001  0.9807499999999998  0.28435  1.0000
  C   C289      1.0  0.9862100000000001  0.4053999999999999  0.26835  1.0000
  C   C290      1.0  0.9947900000000001  0.92722  0.26422000000000007  1.0000
  C   C291      1.0  0.04331999999999999  0.48937999999999987  0.23155000000000003  1.0000
  C   C292      1.0  0.03859  0.65196  0.16363000000000003  1.0000
  C   C293      1.0  0.7218100000000001  0.22076  0.30903  1.0000
  C   C294      1.0  0.8378100000000002  0.2581899999999999  0.29354  1.0000
  C   C295      1.0  0.7680899999999999  0.26537  0.2919200000000001  1.0000
  C   C296      1.0  0.9954100000000001  0.86731  0.16748  1.0000
  C   C297      1.0  0.14401  0.7581499999999999  0.060370000000000014  1.0000
  C   C298      1.0  0.0339  0.76432  0.16359000000000007  1.0000
  C   C299      1.0  0.15583  0.70753  0.9986300000000002  1.0000
  C   C300      1.0  0.98907  0.58463  0.21219  1.0000
  C   C301      1.0  0.01583999999999999  0.8734899999999999  0.20456000000000002  1.0000
  C   C302      1.0  0.08863  0.5576199999999999  0.17946  1.0000
  C   C303      1.0  0.06705  0.71107  0.10725000000000003  1.0000
  C   C304      1.0  0.98806  0.63761  0.19061  1.0000
  C   C305      1.0  0.12451  0.70949  0.035530000000000006  1.0000
  C   C306      1.0  0.2152  0.7051799999999999  0.9277300000000002  1.0000
  C   C307      1.0  0.11612  0.75905  0.09559  1.0000
  C   C308      1.0  0.24441000000000002  0.70684  0.8898500000000001  1.0000
  C   C309      1.0  0.0038000000000000048  0.8138  0.14732000000000006  1.0000
  C   C310      1.0  0.08803  0.61049  0.15780000000000002  1.0000
  C   C311      1.0  0.056070000000000016  0.77055  0.20029  1.0000
  C   C312      1.0  0.045800000000000014  0.66304  0.08239  1.0000
  C   C313      1.0  0.04649999999999997  0.8237799999999997  0.22034  1.0000
  C   C314      1.0  0.07433  0.6623  0.04738  1.0000
  C   C315      1.0  0.11833000000000002  0.6805  0.9685600000000001  1.0000
  C   C316      1.0  0.14748  0.6792  0.9337300000000001  1.0000
  C   C317      1.0  0.22428  0.73221  0.99245  1.0000
  C   C318      1.0  0.31261  0.70473  0.21341000000000002  1.0000
  C   C319      1.0  0.2497  0.02694  0.22438000000000005  1.0000
  C   C320      1.0  0.23859  0.13244  0.26872  1.0000
  C   C321      1.0  0.30801  0.05858  0.24104  1.0000
  C   C322      1.0  0.30246  0.4222099999999999  0.2838400000000001  1.0000
  C   C323      1.0  0.17967  0.09945  0.25367  1.0000
  C   C324      1.0  0.23218000000000003  0.18976  0.29046  1.0000
  C   C325      1.0  0.29524  0.47847  0.26116  1.0000
  C   C326      1.0  0.30269  0.11089  0.26261  1.0000
  C   C327      1.0  0.29493  0.47637999999999997  0.22263000000000002  1.0000
  C   C328      1.0  0.18537  0.047699999999999985  0.23158  1.0000
  C   C329      1.0  0.25709  0.97348  0.2  1.0000
  C   C330      1.0  0.28825  0.64649  0.19842000000000007  1.0000
  C   C331      1.0  0.29359  0.53085  0.20229  1.0000
  C   C332      1.0  0.2758  0.86881  0.15616  1.0000
  C   C333      1.0  0.31582  0.81697  0.10097000000000002  1.0000
  C   C334      1.0  0.28984  0.58869  0.21975  1.0000
  C   C335      1.0  0.2622  0.64577  0.16235  1.0000
  C   C336      1.0  0.40175  0.8508  0.92701  1.0000
  C   C337      1.0  0.45879000000000003  0.81818  0.9203600000000001  1.0000
  C   C338      1.0  0.33486000000000005  0.8705999999999999  0.04242  1.0000
  C   C339      1.0  0.20642000000000002  0.92247  0.19829000000000005  1.0000
  C   C340      1.0  0.3164000000000001  0.9717999999999999  0.17829  1.0000
  C   C341      1.0  0.28562000000000004  0.75774  0.15736  1.0000
  C   C342      1.0  0.26007  0.70017  0.14221  1.0000
  C   C343      1.0  0.32581999999999994  0.9200799999999999  0.15676  1.0000
  C   C344      1.0  0.30471  0.86632  0.07712  1.0000
  C   C345      1.0  0.37711  0.8562899999999998  0.96266  1.0000
  C   C346      1.0  0.29228999999999994  0.53583  0.27887  1.0000
  C   C347      1.0  0.21550999999999995  0.8706999999999998  0.17672000000000004  1.0000
  C   C348      1.0  0.48348  0.8085099999999998  0.88258  1.0000
  C   C349      1.0  0.2882  0.58967  0.25851  1.0000
  C   C350      1.0  0.49204  0.7932099999999999  0.9501500000000002  1.0000
  C   C351      1.0  0.40706  0.82761  0.9925  1.0000
  C   C352      1.0  0.37626999999999994  0.82566  0.02954  1.0000
  C   C353      1.0  0.38574  0.7760699999999999  0.053410000000000006  1.0000
  C   C354      1.0  0.46618  0.79743  0.98551  1.0000
  C   C355      1.0  0.35712  0.7718299999999999  0.08834000000000003  1.0000
  C   C356      1.0  0.31156  0.75938  0.19338  1.0000
  N   N1        1.0  0.12193  0.28011  0.19805  1.0000
  N   N2        1.0  0.91397  0.30915  0.1928  1.0000
  N   N3        1.0  0.36108  0.20951  0.18926  1.0000
  N   N4        1.0  0.5414  0.70916  0.3561  1.0000
  N   N5        1.0  0.78548  0.81378  0.36449  1.0000
  N   N6        1.0  0.3771300000000001  0.72011  0.6977700000000001  1.0000
  N   N7        1.0  0.58515  0.69124  0.6921100000000002  1.0000
  N   N8        1.0  0.13764  0.7898599999999999  0.6891300000000002  1.0000
  N   N9        1.0  0.95885  0.2912  0.8562300000000003  1.0000
  N   N10       1.0  0.7132400000000001  0.18661  0.8635000000000002  1.0000
  N   N11       1.0  0.87808  0.7198899999999999  0.80194  1.0000
  N   N12       1.0  0.08604  0.69086  0.8071900000000002  1.0000
  N   N13       1.0  0.63892  0.7904899999999999  0.8107400000000001  1.0000
  N   N14       1.0  0.45861  0.29083999999999993  0.6439  1.0000
  N   N15       1.0  0.21453  0.18622999999999998  0.6355100000000002  1.0000
  N   N16       1.0  0.62287  0.2799  0.3022300000000001  1.0000
  N   N17       1.0  0.41486  0.30876  0.30789  1.0000
  N   N18       1.0  0.86237  0.21014999999999998  0.31087  1.0000
  N   N19       1.0  0.04116  0.70881  0.14376  1.0000
  N   N20       1.0  0.28677  0.8134  0.1365  1.0000
  O   O1        1.0  0.45064  0.08936  0.17975  1.0000
  O   O2        1.0  0.49485  0.14958999999999997  0.22566  1.0000
  O   O3        1.0  0.10520000000000002  0.17555999999999997  0.18375  1.0000
  O   O4        1.0  0.60935  0.31894  0.18533  1.0000
  O   O5        1.0  0.49552000000000007  0.2909999999999999  0.19632  1.0000
  O   O6        1.0  0.80351  0.74017  0.61474  1.0000
  O   O7        1.0  0.7102  0.67826  0.63509  1.0000
  O   O8        1.0  0.78077  0.3679  0.22987  1.0000
  O   O9        1.0  0.7867  0.22469999999999996  0.20183  1.0000
  O   O10       1.0  0.82941  0.42832  0.18512  1.0000
  O   O11       1.0  0.67209  0.19671999999999998  0.19815  1.0000
  O   O12       1.0  0.0435  0.79992  0.6240500000000002  1.0000
  O   O13       1.0  0.93936  0.8096  0.6456400000000001  1.0000
  O   O14       1.0  0.047830000000000004  0.90984  0.67959  1.0000
  O   O15       1.0  0.004030000000000006  0.85029  0.7258  1.0000
  O   O16       1.0  0.39353  0.82464  0.68365  1.0000
  O   O17       1.0  0.8892199999999999  0.6783499999999999  0.68481  1.0000
  O   O18       1.0  0.002369999999999991  0.70884  0.6963500000000002  1.0000
  O   O19       1.0  0.69642  0.26261  0.11465000000000002  1.0000
  O   O20       1.0  0.79151  0.32184  0.13514  1.0000
  O   O21       1.0  0.72027  0.6321099999999998  0.72961  1.0000
  O   O22       1.0  0.71333  0.77501  0.70182  1.0000
  O   O23       1.0  0.6692900000000002  0.57211  0.6852300000000002  1.0000
  O   O24       1.0  0.82848  0.80009  0.70033  1.0000
  O   O25       1.0  0.45478  0.2  0.12379000000000003  1.0000
  O   O26       1.0  0.55911  0.19047999999999998  0.14485  1.0000
  O   O27       1.0  0.5493700000000001  0.91065  0.8202500000000001  1.0000
  O   O28       1.0  0.50516  0.85041  0.77434  1.0000
  O   O29       1.0  0.8948000000000002  0.82444  0.8162400000000002  1.0000
  O   O30       1.0  0.39066  0.6810699999999998  0.81466  1.0000
  O   O31       1.0  0.50448  0.709  0.80368  1.0000
  O   O32       1.0  0.19649000000000003  0.25983  0.38526000000000005  1.0000
  O   O33       1.0  0.28981  0.32174  0.36491  1.0000
  O   O34       1.0  0.21923999999999996  0.6321099999999998  0.7701300000000002  1.0000
  O   O35       1.0  0.2133  0.7753  0.79817  1.0000
  O   O36       1.0  0.1706  0.5716899999999999  0.8148800000000003  1.0000
  O   O37       1.0  0.32791  0.80329  0.80184  1.0000
  O   O38       1.0  0.95651  0.20009  0.37595  1.0000
  O   O39       1.0  0.06064  0.1904  0.35435  1.0000
  O   O40       1.0  0.95218  0.09017  0.3204  1.0000
  O   O41       1.0  0.9959800000000001  0.14970999999999998  0.27419  1.0000
  O   O42       1.0  0.60648  0.17537  0.31634  1.0000
  O   O43       1.0  0.11079  0.32165  0.31519  1.0000
  O   O44       1.0  0.9976400000000001  0.2911599999999999  0.30364  1.0000
  O   O45       1.0  0.30358  0.73739  0.8853500000000001  1.0000
  O   O46       1.0  0.20849  0.67817  0.86486  1.0000
  O   O47       1.0  0.27974000000000004  0.36789  0.27039  1.0000
  O   O48       1.0  0.28668  0.22499  0.29817  1.0000
  O   O49       1.0  0.33072  0.4279  0.31477000000000005  1.0000
  O   O50       1.0  0.17152  0.19992  0.29967  1.0000
  O   O51       1.0  0.54522  0.8  0.8762  1.0000
  O   O52       1.0  0.4409  0.8095199999999999  0.85515  1.0000
