data_image0
_chemical_formula_structural       Cu24H176C336O128
_chemical_formula_sum              "Cu24 H176 C336 O128"
_cell_length_a       22.25378
_cell_length_b       31.52863
_cell_length_c       31.52863
_cell_angle_alpha    90.0
_cell_angle_beta     90.0
_cell_angle_gamma    90.0

_space_group_name_H-M_alt    "P 1"
_space_group_IT_number       1

loop_
  _space_group_symop_operation_xyz
  'x, y, z'

loop_
  _atom_site_type_symbol
  _atom_site_label
  _atom_site_symmetry_multiplicity
  _atom_site_fract_x
  _atom_site_fract_y
  _atom_site_fract_z
  _atom_site_occupancy
  Cu  Cu1       1.0  0.29447  0.96872  0.49924000000000013  1.0000
  Cu  Cu2       1.0  0.29447  0.53128  0.00076  1.0000
  Cu  Cu3       1.0  0.29447  0.00076  0.96872  1.0000
  Cu  Cu4       1.0  0.29447  0.49924000000000013  0.53128  1.0000
  Cu  Cu5       1.0  0.20553  0.53128  0.49924000000000013  1.0000
  Cu  Cu6       1.0  0.20553  0.96872  0.00076  1.0000
  Cu  Cu7       1.0  0.20553  0.49924000000000013  0.96872  1.0000
  Cu  Cu8       1.0  0.20553  0.00076  0.53128  1.0000
  Cu  Cu9       1.0  0.70553  0.03128  0.50076  1.0000
  Cu  Cu10      1.0  0.70553  0.46872000000000014  0.99924  1.0000
  Cu  Cu11      1.0  0.70553  0.99924  0.03128  1.0000
  Cu  Cu12      1.0  0.70553  0.50076  0.46872000000000014  1.0000
  Cu  Cu13      1.0  0.79447  0.46872000000000014  0.50076  1.0000
  Cu  Cu14      1.0  0.79447  0.03128  0.99924  1.0000
  Cu  Cu15      1.0  0.79447  0.50076  0.03128  1.0000
  Cu  Cu16      1.0  0.79447  0.99924  0.46872000000000014  1.0000
  Cu  Cu17      1.0  0.42685999999999996  0.25  0.25  1.0000
  Cu  Cu18      1.0  0.53689  0.25  0.25  1.0000
  Cu  Cu19      1.0  0.07314  0.25  0.25  1.0000
  Cu  Cu20      1.0  0.9631099999999999  0.25  0.25  1.0000
  Cu  Cu21      1.0  0.57314  0.7500000000000001  0.7500000000000001  1.0000
  Cu  Cu22      1.0  0.46311  0.7500000000000001  0.7500000000000001  1.0000
  Cu  Cu23      1.0  0.9268599999999999  0.7500000000000001  0.7500000000000001  1.0000
  Cu  Cu24      1.0  0.03689  0.7500000000000001  0.7500000000000001  1.0000
  H   H1        1.0  0.57743  0.2562300000000001  0.38254  1.0000
  H   H2        1.0  0.39248999999999995  0.07793  0.4605100000000001  1.0000
  H   H3        1.0  0.59071  0.3958  0.45246  1.0000
  H   H4        1.0  0.38745  0.22869  0.38273  1.0000
  H   H5        1.0  0.24638999999999997  0.1346  0.52877  1.0000
  H   H6        1.0  0.5384599999999999  0.32601  0.44622  1.0000
  H   H7        1.0  0.48503  0.23438  0.50093  1.0000
  H   H8        1.0  0.28588  0.20709000000000005  0.51057  1.0000
  H   H9        1.0  0.75043  0.33345  0.49622  1.0000
  H   H10       1.0  0.43213  0.14983  0.4420500000000001  1.0000
  H   H11       1.0  0.69826  0.2628  0.48995  1.0000
  H   H12       1.0  0.57743  0.24377  0.11746  1.0000
  H   H13       1.0  0.39248999999999995  0.42208  0.03949  1.0000
  H   H14       1.0  0.59071  0.1042  0.04754  1.0000
  H   H15       1.0  0.38745  0.27131  0.11727  1.0000
  H   H16       1.0  0.24638999999999997  0.3654  0.97123  1.0000
  H   H17       1.0  0.5384599999999999  0.17399  0.053780000000000015  1.0000
  H   H18       1.0  0.48503  0.26562000000000013  0.99907  1.0000
  H   H19       1.0  0.28588  0.29291  0.98944  1.0000
  H   H20       1.0  0.75043  0.16655000000000006  0.00378  1.0000
  H   H21       1.0  0.43213  0.35017  0.05795  1.0000
  H   H22       1.0  0.69826  0.23720000000000005  0.01005  1.0000
  H   H23       1.0  0.57743  0.11746  0.2562300000000001  1.0000
  H   H24       1.0  0.39248999999999995  0.03949  0.07793  1.0000
  H   H25       1.0  0.59071  0.04754  0.3958  1.0000
  H   H26       1.0  0.38745  0.11727  0.22869  1.0000
  H   H27       1.0  0.24638999999999997  0.97123  0.1346  1.0000
  H   H28       1.0  0.5384599999999999  0.053780000000000015  0.32601  1.0000
  H   H29       1.0  0.48503  0.99907  0.23438  1.0000
  H   H30       1.0  0.28588  0.98944  0.20709000000000005  1.0000
  H   H31       1.0  0.75043  0.00378  0.33345  1.0000
  H   H32       1.0  0.43213  0.05795  0.14983  1.0000
  H   H33       1.0  0.69826  0.01005  0.2628  1.0000
  H   H34       1.0  0.57743  0.38254  0.24377  1.0000
  H   H35       1.0  0.39248999999999995  0.4605100000000001  0.42208  1.0000
  H   H36       1.0  0.59071  0.45246  0.1042  1.0000
  H   H37       1.0  0.38745  0.38273  0.27131  1.0000
  H   H38       1.0  0.24638999999999997  0.52877  0.3654  1.0000
  H   H39       1.0  0.5384599999999999  0.44622  0.17399  1.0000
  H   H40       1.0  0.48503  0.50093  0.26562000000000013  1.0000
  H   H41       1.0  0.28588  0.51057  0.29291  1.0000
  H   H42       1.0  0.75043  0.49622  0.16655000000000006  1.0000
  H   H43       1.0  0.43213  0.4420500000000001  0.35017  1.0000
  H   H44       1.0  0.69826  0.48995  0.23720000000000005  1.0000
  H   H45       1.0  0.92257  0.24377  0.38254  1.0000
  H   H46       1.0  0.10751  0.42208  0.4605100000000001  1.0000
  H   H47       1.0  0.90929  0.1042  0.45246  1.0000
  H   H48       1.0  0.11254999999999998  0.27131  0.38273  1.0000
  H   H49       1.0  0.25361  0.3654  0.52877  1.0000
  H   H50       1.0  0.9615399999999998  0.17399  0.44622  1.0000
  H   H51       1.0  0.01497  0.26562000000000013  0.50093  1.0000
  H   H52       1.0  0.21412  0.29291  0.51057  1.0000
  H   H53       1.0  0.74957  0.16655000000000006  0.49622  1.0000
  H   H54       1.0  0.06787  0.35017  0.4420500000000001  1.0000
  H   H55       1.0  0.80174  0.23720000000000005  0.48995  1.0000
  H   H56       1.0  0.92257  0.2562300000000001  0.11746  1.0000
  H   H57       1.0  0.10751  0.07793  0.03949  1.0000
  H   H58       1.0  0.90929  0.3958  0.04754  1.0000
  H   H59       1.0  0.11254999999999998  0.22869  0.11727  1.0000
  H   H60       1.0  0.25361  0.1346  0.97123  1.0000
  H   H61       1.0  0.9615399999999998  0.32601  0.053780000000000015  1.0000
  H   H62       1.0  0.01497  0.23438  0.99907  1.0000
  H   H63       1.0  0.21412  0.20709000000000005  0.98944  1.0000
  H   H64       1.0  0.74957  0.33345  0.00378  1.0000
  H   H65       1.0  0.06787  0.14983  0.05795  1.0000
  H   H66       1.0  0.80174  0.2628  0.01005  1.0000
  H   H67       1.0  0.92257  0.38254  0.2562300000000001  1.0000
  H   H68       1.0  0.10751  0.4605100000000001  0.07793  1.0000
  H   H69       1.0  0.90929  0.45246  0.3958  1.0000
  H   H70       1.0  0.11254999999999998  0.38273  0.22869  1.0000
  H   H71       1.0  0.25361  0.52877  0.1346  1.0000
  H   H72       1.0  0.9615399999999998  0.44622  0.32601  1.0000
  H   H73       1.0  0.01497  0.50093  0.23438  1.0000
  H   H74       1.0  0.21412  0.51057  0.20709000000000005  1.0000
  H   H75       1.0  0.74957  0.49622  0.33345  1.0000
  H   H76       1.0  0.06787  0.4420500000000001  0.14983  1.0000
  H   H77       1.0  0.80174  0.48995  0.2628  1.0000
  H   H78       1.0  0.92257  0.11746  0.24377  1.0000
  H   H79       1.0  0.10751  0.03949  0.42208  1.0000
  H   H80       1.0  0.90929  0.04754  0.1042  1.0000
  H   H81       1.0  0.11254999999999998  0.11727  0.27131  1.0000
  H   H82       1.0  0.25361  0.97123  0.3654  1.0000
  H   H83       1.0  0.9615399999999998  0.053780000000000015  0.17399  1.0000
  H   H84       1.0  0.01497  0.99907  0.26562000000000013  1.0000
  H   H85       1.0  0.21412  0.98944  0.29291  1.0000
  H   H86       1.0  0.74957  0.00378  0.16655000000000006  1.0000
  H   H87       1.0  0.06787  0.05795  0.35017  1.0000
  H   H88       1.0  0.80174  0.01005  0.23720000000000005  1.0000
  H   H89       1.0  0.42257  0.74377  0.61746  1.0000
  H   H90       1.0  0.60751  0.92208  0.53949  1.0000
  H   H91       1.0  0.40929  0.6042  0.54754  1.0000
  H   H92       1.0  0.61255  0.77131  0.6172700000000002  1.0000
  H   H93       1.0  0.7536099999999999  0.8654  0.47123  1.0000
  H   H94       1.0  0.46153999999999995  0.674  0.55378  1.0000
  H   H95       1.0  0.51497  0.76562  0.49907  1.0000
  H   H96       1.0  0.71412  0.7929100000000002  0.48943  1.0000
  H   H97       1.0  0.24956999999999996  0.66655  0.50378  1.0000
  H   H98       1.0  0.56787  0.85017  0.55795  1.0000
  H   H99       1.0  0.30174  0.7372  0.51005  1.0000
  H   H100      1.0  0.42257  0.75623  0.88254  1.0000
  H   H101      1.0  0.60751  0.57793  0.96051  1.0000
  H   H102      1.0  0.40929  0.8958  0.95246  1.0000
  H   H103      1.0  0.61255  0.72869  0.88273  1.0000
  H   H104      1.0  0.7536099999999999  0.6346  0.02877  1.0000
  H   H105      1.0  0.46153999999999995  0.82601  0.9462200000000002  1.0000
  H   H106      1.0  0.51497  0.73438  0.00093  1.0000
  H   H107      1.0  0.71412  0.70709  0.01057  1.0000
  H   H108      1.0  0.24956999999999996  0.8334500000000002  0.9962200000000002  1.0000
  H   H109      1.0  0.56787  0.64983  0.94205  1.0000
  H   H110      1.0  0.30174  0.7628000000000003  0.98996  1.0000
  H   H111      1.0  0.42257  0.88254  0.74377  1.0000
  H   H112      1.0  0.60751  0.96051  0.92208  1.0000
  H   H113      1.0  0.40929  0.95246  0.6042  1.0000
  H   H114      1.0  0.61255  0.88273  0.77131  1.0000
  H   H115      1.0  0.7536099999999999  0.02877  0.8654  1.0000
  H   H116      1.0  0.46153999999999995  0.9462200000000002  0.674  1.0000
  H   H117      1.0  0.51497  0.00093  0.76562  1.0000
  H   H118      1.0  0.71412  0.01057  0.7929100000000002  1.0000
  H   H119      1.0  0.24956999999999996  0.9962200000000002  0.66655  1.0000
  H   H120      1.0  0.56787  0.94205  0.85017  1.0000
  H   H121      1.0  0.30174  0.98996  0.7372  1.0000
  H   H122      1.0  0.42257  0.61746  0.75623  1.0000
  H   H123      1.0  0.60751  0.53949  0.57793  1.0000
  H   H124      1.0  0.40929  0.54754  0.8958  1.0000
  H   H125      1.0  0.61255  0.6172700000000002  0.72869  1.0000
  H   H126      1.0  0.7536099999999999  0.47123  0.6346  1.0000
  H   H127      1.0  0.46153999999999995  0.55378  0.82601  1.0000
  H   H128      1.0  0.51497  0.49907  0.73438  1.0000
  H   H129      1.0  0.71412  0.48943  0.70709  1.0000
  H   H130      1.0  0.24956999999999996  0.50378  0.8334500000000002  1.0000
  H   H131      1.0  0.56787  0.55795  0.64983  1.0000
  H   H132      1.0  0.30174  0.51005  0.7628000000000003  1.0000
  H   H133      1.0  0.07743  0.75623  0.61746  1.0000
  H   H134      1.0  0.89249  0.57793  0.53949  1.0000
  H   H135      1.0  0.09070999999999999  0.8958  0.54754  1.0000
  H   H136      1.0  0.88745  0.72869  0.6172700000000002  1.0000
  H   H137      1.0  0.74639  0.6346  0.47123  1.0000
  H   H138      1.0  0.03846  0.82601  0.55378  1.0000
  H   H139      1.0  0.98503  0.73438  0.49907  1.0000
  H   H140      1.0  0.78588  0.70709  0.48943  1.0000
  H   H141      1.0  0.25043  0.8334500000000002  0.50378  1.0000
  H   H142      1.0  0.93213  0.64983  0.55795  1.0000
  H   H143      1.0  0.19826  0.7628000000000003  0.51005  1.0000
  H   H144      1.0  0.07743  0.74377  0.88254  1.0000
  H   H145      1.0  0.89249  0.92208  0.96051  1.0000
  H   H146      1.0  0.09070999999999999  0.6042  0.95246  1.0000
  H   H147      1.0  0.88745  0.77131  0.88273  1.0000
  H   H148      1.0  0.74639  0.8654  0.02877  1.0000
  H   H149      1.0  0.03846  0.674  0.9462200000000002  1.0000
  H   H150      1.0  0.98503  0.76562  0.00093  1.0000
  H   H151      1.0  0.78588  0.7929100000000002  0.01057  1.0000
  H   H152      1.0  0.25043  0.66655  0.9962200000000002  1.0000
  H   H153      1.0  0.93213  0.85017  0.94205  1.0000
  H   H154      1.0  0.19826  0.7372  0.98996  1.0000
  H   H155      1.0  0.07743  0.61746  0.74377  1.0000
  H   H156      1.0  0.89249  0.53949  0.92208  1.0000
  H   H157      1.0  0.09070999999999999  0.54754  0.6042  1.0000
  H   H158      1.0  0.88745  0.6172700000000002  0.77131  1.0000
  H   H159      1.0  0.74639  0.47123  0.8654  1.0000
  H   H160      1.0  0.03846  0.55378  0.674  1.0000
  H   H161      1.0  0.98503  0.49907  0.76562  1.0000
  H   H162      1.0  0.78588  0.48943  0.7929100000000002  1.0000
  H   H163      1.0  0.25043  0.50378  0.66655  1.0000
  H   H164      1.0  0.93213  0.55795  0.85017  1.0000
  H   H165      1.0  0.19826  0.51005  0.7372  1.0000
  H   H166      1.0  0.07743  0.88254  0.75623  1.0000
  H   H167      1.0  0.89249  0.96051  0.57793  1.0000
  H   H168      1.0  0.09070999999999999  0.95246  0.8958  1.0000
  H   H169      1.0  0.88745  0.88273  0.72869  1.0000
  H   H170      1.0  0.74639  0.02877  0.6346  1.0000
  H   H171      1.0  0.03846  0.9462200000000002  0.82601  1.0000
  H   H172      1.0  0.98503  0.00093  0.73438  1.0000
  H   H173      1.0  0.78588  0.01057  0.70709  1.0000
  H   H174      1.0  0.25043  0.9962200000000002  0.8334500000000002  1.0000
  H   H175      1.0  0.93213  0.94205  0.64983  1.0000
  H   H176      1.0  0.19826  0.98996  0.7628000000000003  1.0000
  C   C1        1.0  0.67363  0.36894  0.4746500000000001  1.0000
  C   C2        1.0  0.31727  0.1019  0.49582  1.0000
  C   C3        1.0  0.4825  0.24264000000000005  0.37791  1.0000
  C   C4        1.0  0.70334  0.41105  0.47841  1.0000
  C   C5        1.0  0.29341  0.05902000000000002  0.50563  1.0000
  C   C6        1.0  0.53655  0.24885000000000004  0.3998600000000001  1.0000
  C   C7        1.0  0.4819  0.24573000000000003  0.33064  1.0000
  C   C8        1.0  0.36961  0.10638  0.47144  1.0000
  C   C9        1.0  0.61603  0.29054  0.46772  1.0000
  C   C10       1.0  0.43126999999999993  0.23019  0.44392  1.0000
  C   C11       1.0  0.53688  0.24578  0.44397  1.0000
  C   C12       1.0  0.61397  0.36653  0.4604200000000001  1.0000
  C   C13       1.0  0.42927  0.23334  0.3999  1.0000
  C   C14       1.0  0.36079  0.18237  0.47536  1.0000
  C   C15       1.0  0.28696  0.13838  0.5099500000000002  1.0000
  C   C16       1.0  0.58483  0.32758  0.45691  1.0000
  C   C17       1.0  0.48458  0.23643000000000006  0.46652  1.0000
  C   C18       1.0  0.30854  0.17848  0.4999  1.0000
  C   C19       1.0  0.70416  0.33141  0.48537000000000013  1.0000
  C   C20       1.0  0.3916899999999999  0.14645  0.46104  1.0000
  C   C21       1.0  0.67565  0.2922900000000001  0.4819  1.0000
  C   C22       1.0  0.67363  0.13106  0.02535  1.0000
  C   C23       1.0  0.31727  0.3981  0.004180000000000001  1.0000
  C   C24       1.0  0.4825  0.25736  0.12209000000000003  1.0000
  C   C25       1.0  0.70334  0.08895  0.02159  1.0000
  C   C26       1.0  0.29341  0.44098  0.99437  1.0000
  C   C27       1.0  0.53655  0.25115  0.10014000000000003  1.0000
  C   C28       1.0  0.4819  0.25427  0.16936  1.0000
  C   C29       1.0  0.36961  0.39362  0.028560000000000006  1.0000
  C   C30       1.0  0.61603  0.20946  0.03228  1.0000
  C   C31       1.0  0.43126999999999993  0.26981  0.05608  1.0000
  C   C32       1.0  0.53688  0.25422  0.05603  1.0000
  C   C33       1.0  0.61397  0.13347  0.03958  1.0000
  C   C34       1.0  0.42927  0.2666600000000001  0.1001  1.0000
  C   C35       1.0  0.36079  0.31763  0.02464  1.0000
  C   C36       1.0  0.28696  0.36162  0.9900600000000003  1.0000
  C   C37       1.0  0.58483  0.17242  0.04309  1.0000
  C   C38       1.0  0.48458  0.26357  0.03348  1.0000
  C   C39       1.0  0.30854  0.32153  0.0001  1.0000
  C   C40       1.0  0.70416  0.1686  0.01463  1.0000
  C   C41       1.0  0.3916899999999999  0.35355  0.03896  1.0000
  C   C42       1.0  0.67565  0.20771  0.01810000000000001  1.0000
  C   C43       1.0  0.67363  0.02535  0.36894  1.0000
  C   C44       1.0  0.31727  0.004180000000000001  0.1019  1.0000
  C   C45       1.0  0.4825  0.12209000000000003  0.24264000000000005  1.0000
  C   C46       1.0  0.70334  0.02159  0.41105  1.0000
  C   C47       1.0  0.29341  0.99437  0.05902000000000002  1.0000
  C   C48       1.0  0.53655  0.10014000000000003  0.24885000000000004  1.0000
  C   C49       1.0  0.4819  0.16936  0.24573000000000003  1.0000
  C   C50       1.0  0.36961  0.028560000000000006  0.10638  1.0000
  C   C51       1.0  0.61603  0.03228  0.29054  1.0000
  C   C52       1.0  0.43126999999999993  0.05608  0.23019  1.0000
  C   C53       1.0  0.53688  0.05603  0.24578  1.0000
  C   C54       1.0  0.61397  0.03958  0.36653  1.0000
  C   C55       1.0  0.42927  0.1001  0.23334  1.0000
  C   C56       1.0  0.36079  0.02464  0.18237  1.0000
  C   C57       1.0  0.28696  0.9900600000000003  0.13838  1.0000
  C   C58       1.0  0.58483  0.04309  0.32758  1.0000
  C   C59       1.0  0.48458  0.03348  0.23643000000000006  1.0000
  C   C60       1.0  0.30854  0.0001  0.17848  1.0000
  C   C61       1.0  0.70416  0.01463  0.33141  1.0000
  C   C62       1.0  0.3916899999999999  0.03896  0.14645  1.0000
  C   C63       1.0  0.67565  0.01810000000000001  0.2923  1.0000
  C   C64       1.0  0.67363  0.4746500000000001  0.13106  1.0000
  C   C65       1.0  0.31727  0.49582  0.3981  1.0000
  C   C66       1.0  0.4825  0.37791  0.25736  1.0000
  C   C67       1.0  0.70334  0.47841  0.08895  1.0000
  C   C68       1.0  0.29341  0.50563  0.44098  1.0000
  C   C69       1.0  0.53655  0.3998600000000001  0.25115  1.0000
  C   C70       1.0  0.4819  0.33064  0.25427  1.0000
  C   C71       1.0  0.36961  0.47144  0.39362  1.0000
  C   C72       1.0  0.61603  0.46772  0.20946  1.0000
  C   C73       1.0  0.43126999999999993  0.44392  0.26981  1.0000
  C   C74       1.0  0.53688  0.44397  0.25422  1.0000
  C   C75       1.0  0.61397  0.4604200000000001  0.13347  1.0000
  C   C76       1.0  0.42927  0.3999  0.2666600000000001  1.0000
  C   C77       1.0  0.36079  0.47536  0.31763  1.0000
  C   C78       1.0  0.28696  0.5099500000000002  0.36162  1.0000
  C   C79       1.0  0.58483  0.45691  0.17242  1.0000
  C   C80       1.0  0.48458  0.46652  0.26357  1.0000
  C   C81       1.0  0.30854  0.4999  0.32153  1.0000
  C   C82       1.0  0.70416  0.48537000000000013  0.1686  1.0000
  C   C83       1.0  0.3916899999999999  0.46104  0.35355  1.0000
  C   C84       1.0  0.67565  0.4819  0.20771  1.0000
  C   C85       1.0  0.8263699999999999  0.13106  0.4746500000000001  1.0000
  C   C86       1.0  0.18272999999999998  0.3981  0.49582  1.0000
  C   C87       1.0  0.0175  0.25736  0.37791  1.0000
  C   C88       1.0  0.7966599999999999  0.08895  0.47841  1.0000
  C   C89       1.0  0.20659  0.44098  0.50563  1.0000
  C   C90       1.0  0.96345  0.25115  0.3998600000000001  1.0000
  C   C91       1.0  0.0181  0.25427  0.33064  1.0000
  C   C92       1.0  0.13039  0.39362  0.47144  1.0000
  C   C93       1.0  0.8839699999999999  0.20946  0.46772  1.0000
  C   C94       1.0  0.06873  0.26981  0.44392  1.0000
  C   C95       1.0  0.9631199999999999  0.25422  0.44397  1.0000
  C   C96       1.0  0.88603  0.13347  0.4604200000000001  1.0000
  C   C97       1.0  0.07073  0.2666600000000001  0.3999  1.0000
  C   C98       1.0  0.13921  0.31763  0.47536  1.0000
  C   C99       1.0  0.21304  0.36162  0.5099500000000002  1.0000
  C   C100      1.0  0.91517  0.17242  0.45691  1.0000
  C   C101      1.0  0.015419999999999996  0.26357  0.46652  1.0000
  C   C102      1.0  0.19145999999999996  0.32153  0.4999  1.0000
  C   C103      1.0  0.7958399999999999  0.1686  0.48537000000000013  1.0000
  C   C104      1.0  0.10830999999999999  0.35355  0.46104  1.0000
  C   C105      1.0  0.82435  0.20771  0.4819  1.0000
  C   C106      1.0  0.8263699999999999  0.36894  0.02535  1.0000
  C   C107      1.0  0.18272999999999998  0.1019  0.004180000000000001  1.0000
  C   C108      1.0  0.0175  0.24264000000000005  0.12209000000000003  1.0000
  C   C109      1.0  0.7966599999999999  0.41105  0.02159  1.0000
  C   C110      1.0  0.20659  0.05902000000000002  0.99437  1.0000
  C   C111      1.0  0.96345  0.24885000000000004  0.10014000000000003  1.0000
  C   C112      1.0  0.0181  0.24573000000000003  0.16936  1.0000
  C   C113      1.0  0.13039  0.10638  0.028560000000000006  1.0000
  C   C114      1.0  0.8839699999999999  0.29054  0.03228  1.0000
  C   C115      1.0  0.06873  0.23019  0.05608  1.0000
  C   C116      1.0  0.9631199999999999  0.24578  0.05603  1.0000
  C   C117      1.0  0.88603  0.36653  0.03958  1.0000
  C   C118      1.0  0.07073  0.23334  0.1001  1.0000
  C   C119      1.0  0.13921  0.18237  0.02464  1.0000
  C   C120      1.0  0.21304  0.13838  0.9900600000000003  1.0000
  C   C121      1.0  0.91517  0.32758  0.04309  1.0000
  C   C122      1.0  0.015419999999999996  0.23643000000000006  0.03348  1.0000
  C   C123      1.0  0.19145999999999996  0.17848  0.0001  1.0000
  C   C124      1.0  0.7958399999999999  0.33141  0.01463  1.0000
  C   C125      1.0  0.10830999999999999  0.14645  0.03896  1.0000
  C   C126      1.0  0.82435  0.2922900000000001  0.01810000000000001  1.0000
  C   C127      1.0  0.8263699999999999  0.4746500000000001  0.36894  1.0000
  C   C128      1.0  0.18271999999999997  0.49582  0.1019  1.0000
  C   C129      1.0  0.0175  0.37791  0.24264000000000005  1.0000
  C   C130      1.0  0.7966599999999999  0.47841  0.41105  1.0000
  C   C131      1.0  0.20659  0.50563  0.05902000000000002  1.0000
  C   C132      1.0  0.96345  0.3998600000000001  0.24885000000000004  1.0000
  C   C133      1.0  0.0181  0.33064  0.24573000000000003  1.0000
  C   C134      1.0  0.13039  0.47144  0.10638  1.0000
  C   C135      1.0  0.8839699999999999  0.46772  0.29054  1.0000
  C   C136      1.0  0.06873  0.44392  0.23019  1.0000
  C   C137      1.0  0.9631199999999999  0.44397  0.24578  1.0000
  C   C138      1.0  0.88603  0.4604200000000001  0.36653  1.0000
  C   C139      1.0  0.07073  0.3999  0.23334  1.0000
  C   C140      1.0  0.13921  0.47536  0.18237  1.0000
  C   C141      1.0  0.21304  0.5099500000000002  0.13838  1.0000
  C   C142      1.0  0.91517  0.45691  0.32758  1.0000
  C   C143      1.0  0.015419999999999996  0.46652  0.23643000000000006  1.0000
  C   C144      1.0  0.19145999999999996  0.4999  0.17848  1.0000
  C   C145      1.0  0.7958399999999999  0.48537000000000013  0.33141  1.0000
  C   C146      1.0  0.10830999999999999  0.46104  0.14645  1.0000
  C   C147      1.0  0.82435  0.4819  0.2923  1.0000
  C   C148      1.0  0.8263699999999999  0.02535  0.13106  1.0000
  C   C149      1.0  0.18271999999999997  0.004180000000000001  0.3981  1.0000
  C   C150      1.0  0.0175  0.12209000000000003  0.25736  1.0000
  C   C151      1.0  0.7966599999999999  0.02159  0.08895  1.0000
  C   C152      1.0  0.20659  0.99437  0.44098  1.0000
  C   C153      1.0  0.96345  0.10014000000000003  0.25115  1.0000
  C   C154      1.0  0.0181  0.16936  0.25427  1.0000
  C   C155      1.0  0.13039  0.028560000000000006  0.39362  1.0000
  C   C156      1.0  0.8839699999999999  0.03228  0.20946  1.0000
  C   C157      1.0  0.06873  0.05608  0.26981  1.0000
  C   C158      1.0  0.9631199999999999  0.05603  0.25422  1.0000
  C   C159      1.0  0.88603  0.03958  0.13347  1.0000
  C   C160      1.0  0.07073  0.1001  0.2666600000000001  1.0000
  C   C161      1.0  0.13921  0.02464  0.31763  1.0000
  C   C162      1.0  0.21304  0.9900600000000003  0.36162  1.0000
  C   C163      1.0  0.91517  0.04309  0.17242  1.0000
  C   C164      1.0  0.015419999999999996  0.03348  0.26357  1.0000
  C   C165      1.0  0.19145999999999996  0.0001  0.32153  1.0000
  C   C166      1.0  0.7958399999999999  0.01463  0.1686  1.0000
  C   C167      1.0  0.10830999999999999  0.03896  0.35355  1.0000
  C   C168      1.0  0.82435  0.01810000000000001  0.20771  1.0000
  C   C169      1.0  0.32637  0.63106  0.52535  1.0000
  C   C170      1.0  0.68272  0.8981  0.50418  1.0000
  C   C171      1.0  0.5175  0.75737  0.62209  1.0000
  C   C172      1.0  0.29666  0.5889500000000002  0.52159  1.0000
  C   C173      1.0  0.70659  0.94098  0.49437  1.0000
  C   C174      1.0  0.46345  0.7511500000000002  0.60014  1.0000
  C   C175      1.0  0.51809  0.7542700000000002  0.66937  1.0000
  C   C176      1.0  0.63039  0.89362  0.52856  1.0000
  C   C177      1.0  0.38397  0.7094600000000002  0.5322800000000002  1.0000
  C   C178      1.0  0.56873  0.76981  0.5560800000000002  1.0000
  C   C179      1.0  0.46312  0.75422  0.55603  1.0000
  C   C180      1.0  0.38603  0.6334700000000002  0.53958  1.0000
  C   C181      1.0  0.57073  0.7666700000000002  0.6001000000000002  1.0000
  C   C182      1.0  0.63921  0.81763  0.52464  1.0000
  C   C183      1.0  0.7130399999999999  0.86162  0.49006  1.0000
  C   C184      1.0  0.41516999999999993  0.67242  0.54309  1.0000
  C   C185      1.0  0.51542  0.76357  0.53348  1.0000
  C   C186      1.0  0.69146  0.82153  0.5001  1.0000
  C   C187      1.0  0.29584  0.6686000000000002  0.51464  1.0000
  C   C188      1.0  0.60831  0.85355  0.53896  1.0000
  C   C189      1.0  0.32435  0.70771  0.5181  1.0000
  C   C190      1.0  0.32637  0.8689400000000003  0.97465  1.0000
  C   C191      1.0  0.68272  0.6019  0.99582  1.0000
  C   C192      1.0  0.5175  0.74264  0.87791  1.0000
  C   C193      1.0  0.29666  0.91105  0.9784100000000002  1.0000
  C   C194      1.0  0.70659  0.5590200000000002  0.00563  1.0000
  C   C195      1.0  0.46345  0.74886  0.89986  1.0000
  C   C196      1.0  0.5181  0.74573  0.83064  1.0000
  C   C197      1.0  0.63039  0.60638  0.9714500000000001  1.0000
  C   C198      1.0  0.38397  0.79054  0.96772  1.0000
  C   C199      1.0  0.56873  0.73019  0.94392  1.0000
  C   C200      1.0  0.46312  0.74579  0.94397  1.0000
  C   C201      1.0  0.38603  0.86653  0.96042  1.0000
  C   C202      1.0  0.57073  0.73334  0.8999  1.0000
  C   C203      1.0  0.63921  0.68237  0.9753600000000002  1.0000
  C   C204      1.0  0.7130399999999999  0.6383800000000002  0.009940000000000003  1.0000
  C   C205      1.0  0.41516999999999993  0.82758  0.95692  1.0000
  C   C206      1.0  0.51542  0.73643  0.96652  1.0000
  C   C207      1.0  0.69146  0.67848  0.9999  1.0000
  C   C208      1.0  0.29584  0.8314100000000002  0.98537  1.0000
  C   C209      1.0  0.60831  0.64645  0.96104  1.0000
  C   C210      1.0  0.32435  0.7923000000000002  0.9819  1.0000
  C   C211      1.0  0.32637  0.97465  0.63106  1.0000
  C   C212      1.0  0.68272  0.99582  0.8981  1.0000
  C   C213      1.0  0.5175  0.87791  0.75737  1.0000
  C   C214      1.0  0.29666  0.9784100000000002  0.5889500000000002  1.0000
  C   C215      1.0  0.70659  0.00563  0.94098  1.0000
  C   C216      1.0  0.46345  0.89986  0.7511500000000002  1.0000
  C   C217      1.0  0.5181  0.83064  0.7542700000000002  1.0000
  C   C218      1.0  0.63039  0.9714500000000001  0.89362  1.0000
  C   C219      1.0  0.38397  0.96772  0.7094600000000002  1.0000
  C   C220      1.0  0.56873  0.94392  0.76981  1.0000
  C   C221      1.0  0.46312  0.94397  0.75422  1.0000
  C   C222      1.0  0.38603  0.96042  0.6334700000000002  1.0000
  C   C223      1.0  0.57073  0.8999  0.7666700000000002  1.0000
  C   C224      1.0  0.63921  0.9753600000000002  0.81763  1.0000
  C   C225      1.0  0.7130399999999999  0.009940000000000003  0.86162  1.0000
  C   C226      1.0  0.41516999999999993  0.95692  0.67242  1.0000
  C   C227      1.0  0.51542  0.96652  0.76357  1.0000
  C   C228      1.0  0.69146  0.9999  0.82153  1.0000
  C   C229      1.0  0.29584  0.98537  0.6686000000000002  1.0000
  C   C230      1.0  0.60831  0.96104  0.85355  1.0000
  C   C231      1.0  0.32435  0.9819  0.70771  1.0000
  C   C232      1.0  0.32637  0.52535  0.8689400000000003  1.0000
  C   C233      1.0  0.68272  0.50418  0.6019  1.0000
  C   C234      1.0  0.5175  0.62209  0.74264  1.0000
  C   C235      1.0  0.29666  0.52159  0.91105  1.0000
  C   C236      1.0  0.70659  0.49437  0.5590200000000002  1.0000
  C   C237      1.0  0.46345  0.60014  0.74886  1.0000
  C   C238      1.0  0.51809  0.66937  0.74573  1.0000
  C   C239      1.0  0.63039  0.52856  0.60638  1.0000
  C   C240      1.0  0.38397  0.5322800000000002  0.79054  1.0000
  C   C241      1.0  0.56873  0.5560800000000002  0.73019  1.0000
  C   C242      1.0  0.46312  0.55603  0.74579  1.0000
  C   C243      1.0  0.38603  0.53958  0.86653  1.0000
  C   C244      1.0  0.57073  0.6001000000000002  0.73334  1.0000
  C   C245      1.0  0.63921  0.52464  0.68237  1.0000
  C   C246      1.0  0.7130399999999999  0.49006  0.6383800000000002  1.0000
  C   C247      1.0  0.41516999999999993  0.54309  0.82758  1.0000
  C   C248      1.0  0.51542  0.53348  0.73643  1.0000
  C   C249      1.0  0.69146  0.5001  0.67848  1.0000
  C   C250      1.0  0.29584  0.51463  0.8314100000000002  1.0000
  C   C251      1.0  0.60831  0.53896  0.64645  1.0000
  C   C252      1.0  0.32435  0.5181  0.7923000000000002  1.0000
  C   C253      1.0  0.17362999999999998  0.8689400000000003  0.52535  1.0000
  C   C254      1.0  0.8172699999999999  0.6019  0.50418  1.0000
  C   C255      1.0  0.9824999999999998  0.74264  0.62209  1.0000
  C   C256      1.0  0.20334  0.91105  0.52159  1.0000
  C   C257      1.0  0.79341  0.5590200000000002  0.49437  1.0000
  C   C258      1.0  0.03655  0.74886  0.60014  1.0000
  C   C259      1.0  0.9818999999999999  0.74573  0.66937  1.0000
  C   C260      1.0  0.86961  0.60638  0.52856  1.0000
  C   C261      1.0  0.11603  0.79054  0.5322800000000002  1.0000
  C   C262      1.0  0.9312699999999999  0.73019  0.5560800000000002  1.0000
  C   C263      1.0  0.03688  0.74579  0.55603  1.0000
  C   C264      1.0  0.11397  0.86653  0.53958  1.0000
  C   C265      1.0  0.9292699999999999  0.73334  0.6001000000000002  1.0000
  C   C266      1.0  0.86079  0.68237  0.52464  1.0000
  C   C267      1.0  0.78696  0.6383800000000002  0.49006  1.0000
  C   C268      1.0  0.08483  0.82758  0.54309  1.0000
  C   C269      1.0  0.98458  0.73643  0.53348  1.0000
  C   C270      1.0  0.8085399999999999  0.67848  0.5001  1.0000
  C   C271      1.0  0.20415999999999998  0.8314100000000002  0.51464  1.0000
  C   C272      1.0  0.89169  0.64645  0.53896  1.0000
  C   C273      1.0  0.17565  0.7923000000000002  0.5181  1.0000
  C   C274      1.0  0.17362999999999998  0.63106  0.97465  1.0000
  C   C275      1.0  0.8172699999999999  0.8981  0.99582  1.0000
  C   C276      1.0  0.9824999999999998  0.75737  0.87791  1.0000
  C   C277      1.0  0.20334  0.5889500000000002  0.9784100000000002  1.0000
  C   C278      1.0  0.79341  0.94098  0.00563  1.0000
  C   C279      1.0  0.03655  0.7511500000000002  0.89986  1.0000
  C   C280      1.0  0.9818999999999999  0.7542700000000002  0.83064  1.0000
  C   C281      1.0  0.86961  0.89362  0.9714500000000001  1.0000
  C   C282      1.0  0.11603  0.7094600000000002  0.96772  1.0000
  C   C283      1.0  0.9312699999999999  0.76981  0.94392  1.0000
  C   C284      1.0  0.03688  0.75422  0.94397  1.0000
  C   C285      1.0  0.11397  0.6334700000000002  0.96042  1.0000
  C   C286      1.0  0.9292699999999999  0.7666700000000002  0.8999  1.0000
  C   C287      1.0  0.86079  0.81763  0.9753600000000002  1.0000
  C   C288      1.0  0.78696  0.86162  0.009940000000000003  1.0000
  C   C289      1.0  0.08483  0.67242  0.95692  1.0000
  C   C290      1.0  0.98458  0.76357  0.96652  1.0000
  C   C291      1.0  0.8085399999999999  0.82153  0.9999  1.0000
  C   C292      1.0  0.20415999999999998  0.6686000000000002  0.98537  1.0000
  C   C293      1.0  0.89169  0.85355  0.96104  1.0000
  C   C294      1.0  0.17565  0.70771  0.9819  1.0000
  C   C295      1.0  0.17362999999999998  0.52535  0.63106  1.0000
  C   C296      1.0  0.8172699999999999  0.50418  0.8981  1.0000
  C   C297      1.0  0.9824999999999998  0.62209  0.75737  1.0000
  C   C298      1.0  0.20334  0.52159  0.5889500000000002  1.0000
  C   C299      1.0  0.79341  0.49437  0.94098  1.0000
  C   C300      1.0  0.03655  0.60014  0.7511500000000002  1.0000
  C   C301      1.0  0.9818999999999999  0.66937  0.7542700000000002  1.0000
  C   C302      1.0  0.86961  0.52856  0.89362  1.0000
  C   C303      1.0  0.11603  0.5322800000000002  0.7094600000000002  1.0000
  C   C304      1.0  0.9312699999999999  0.5560800000000002  0.76981  1.0000
  C   C305      1.0  0.03688  0.55603  0.75422  1.0000
  C   C306      1.0  0.11397  0.53958  0.6334700000000002  1.0000
  C   C307      1.0  0.9292699999999999  0.6001000000000002  0.7666700000000002  1.0000
  C   C308      1.0  0.86079  0.52464  0.81763  1.0000
  C   C309      1.0  0.78696  0.49006  0.86162  1.0000
  C   C310      1.0  0.08483  0.54309  0.67242  1.0000
  C   C311      1.0  0.98458  0.53348  0.76357  1.0000
  C   C312      1.0  0.8085399999999999  0.5001  0.82153  1.0000
  C   C313      1.0  0.20415999999999998  0.51464  0.6686000000000002  1.0000
  C   C314      1.0  0.89169  0.53896  0.85355  1.0000
  C   C315      1.0  0.17565  0.5181  0.70771  1.0000
  C   C316      1.0  0.17362999999999998  0.97465  0.8689400000000003  1.0000
  C   C317      1.0  0.8172699999999999  0.99582  0.6019  1.0000
  C   C318      1.0  0.9824999999999998  0.87791  0.74264  1.0000
  C   C319      1.0  0.20334  0.9784100000000002  0.91105  1.0000
  C   C320      1.0  0.79341  0.00563  0.5590200000000002  1.0000
  C   C321      1.0  0.03655  0.89986  0.74886  1.0000
  C   C322      1.0  0.9818999999999999  0.83064  0.74573  1.0000
  C   C323      1.0  0.86961  0.9714500000000001  0.60638  1.0000
  C   C324      1.0  0.11603  0.96772  0.79054  1.0000
  C   C325      1.0  0.9312699999999999  0.94392  0.73019  1.0000
  C   C326      1.0  0.03688  0.94397  0.74579  1.0000
  C   C327      1.0  0.11397  0.96042  0.86653  1.0000
  C   C328      1.0  0.9292699999999999  0.8999  0.73334  1.0000
  C   C329      1.0  0.86079  0.9753600000000002  0.68237  1.0000
  C   C330      1.0  0.78696  0.009940000000000003  0.6383800000000002  1.0000
  C   C331      1.0  0.08483  0.95692  0.82758  1.0000
  C   C332      1.0  0.98458  0.96652  0.73643  1.0000
  C   C333      1.0  0.8085399999999999  0.9999  0.67848  1.0000
  C   C334      1.0  0.20415999999999998  0.98537  0.8314100000000002  1.0000
  C   C335      1.0  0.89169  0.96104  0.64645  1.0000
  C   C336      1.0  0.17565  0.9819  0.7923000000000002  1.0000
  O   O1        1.0  0.7568099999999999  0.41232  0.49355  1.0000
  O   O2        1.0  0.67255  0.44324  0.46615  1.0000
  O   O3        1.0  0.3249  0.02722  0.49341  1.0000
  O   O4        1.0  0.24288  0.05687  0.52513  1.0000
  O   O5        1.0  0.53262  0.252  0.31241  1.0000
  O   O6        1.0  0.43093  0.24173  0.31216  1.0000
  O   O7        1.0  0.59035  0.25043  0.46654  1.0000
  O   O8        1.0  0.37842999999999993  0.22359  0.46669  1.0000
  O   O9        1.0  0.7568099999999999  0.08768  0.006450000000000002  1.0000
  O   O10       1.0  0.67255  0.05677  0.03386  1.0000
  O   O11       1.0  0.3249  0.47278  0.006590000000000001  1.0000
  O   O12       1.0  0.24288  0.44313  0.97487  1.0000
  O   O13       1.0  0.53262  0.248  0.18759000000000006  1.0000
  O   O14       1.0  0.43093  0.25827  0.18784  1.0000
  O   O15       1.0  0.59035  0.24957  0.03346  1.0000
  O   O16       1.0  0.37842999999999993  0.2764100000000001  0.03331000000000001  1.0000
  O   O17       1.0  0.7568099999999999  0.006450000000000002  0.41232  1.0000
  O   O18       1.0  0.67255  0.03386  0.44324  1.0000
  O   O19       1.0  0.3249  0.006590000000000001  0.02722  1.0000
  O   O20       1.0  0.24288  0.97487  0.05687  1.0000
  O   O21       1.0  0.53262  0.18759000000000006  0.252  1.0000
  O   O22       1.0  0.43093  0.18784  0.24173  1.0000
  O   O23       1.0  0.59035  0.03346  0.25043  1.0000
  O   O24       1.0  0.37842999999999993  0.03331000000000001  0.22359  1.0000
  O   O25       1.0  0.7568099999999999  0.49355  0.08768  1.0000
  O   O26       1.0  0.67255  0.46614  0.05677  1.0000
  O   O27       1.0  0.3249  0.49341  0.47278  1.0000
  O   O28       1.0  0.24288  0.52513  0.44313  1.0000
  O   O29       1.0  0.53262  0.31241  0.248  1.0000
  O   O30       1.0  0.43093  0.31216  0.25827  1.0000
  O   O31       1.0  0.59035  0.46654  0.24957  1.0000
  O   O32       1.0  0.37842999999999993  0.46669  0.2764100000000001  1.0000
  O   O33       1.0  0.74319  0.08768  0.49355  1.0000
  O   O34       1.0  0.8274499999999999  0.05677  0.46614  1.0000
  O   O35       1.0  0.1751  0.47278  0.49341  1.0000
  O   O36       1.0  0.25712  0.44313  0.52513  1.0000
  O   O37       1.0  0.9673799999999999  0.248  0.31241  1.0000
  O   O38       1.0  0.06907  0.25827  0.31216  1.0000
  O   O39       1.0  0.90965  0.24957  0.46654  1.0000
  O   O40       1.0  0.12156  0.2764100000000001  0.46669  1.0000
  O   O41       1.0  0.74319  0.41232  0.006450000000000002  1.0000
  O   O42       1.0  0.8274499999999999  0.44324  0.03386  1.0000
  O   O43       1.0  0.1751  0.02722  0.006590000000000001  1.0000
  O   O44       1.0  0.25712  0.05687  0.97487  1.0000
  O   O45       1.0  0.9673799999999999  0.252  0.18759000000000006  1.0000
  O   O46       1.0  0.06907  0.24173  0.18784  1.0000
  O   O47       1.0  0.90965  0.25043  0.03346  1.0000
  O   O48       1.0  0.12156  0.22359  0.03331000000000001  1.0000
  O   O49       1.0  0.74319  0.49355  0.41232  1.0000
  O   O50       1.0  0.8274499999999999  0.46614  0.44324  1.0000
  O   O51       1.0  0.1751  0.49341  0.02722  1.0000
  O   O52       1.0  0.25712  0.52513  0.05687  1.0000
  O   O53       1.0  0.9673799999999999  0.31241  0.252  1.0000
  O   O54       1.0  0.06907  0.31216  0.24173  1.0000
  O   O55       1.0  0.90965  0.46654  0.25043  1.0000
  O   O56       1.0  0.12156  0.46669  0.22359  1.0000
  O   O57       1.0  0.74319  0.006450000000000002  0.08768  1.0000
  O   O58       1.0  0.8274499999999999  0.03386  0.05677  1.0000
  O   O59       1.0  0.1751  0.006590000000000001  0.47278  1.0000
  O   O60       1.0  0.25712  0.97487  0.44313  1.0000
  O   O61       1.0  0.9673799999999999  0.18759000000000006  0.248  1.0000
  O   O62       1.0  0.06907  0.18784  0.25827  1.0000
  O   O63       1.0  0.90965  0.03346  0.24957  1.0000
  O   O64       1.0  0.12156  0.03331000000000001  0.2764100000000001  1.0000
  O   O65       1.0  0.24318999999999996  0.58768  0.50645  1.0000
  O   O66       1.0  0.32745  0.55677  0.53386  1.0000
  O   O67       1.0  0.6751  0.9727800000000002  0.50659  1.0000
  O   O68       1.0  0.75712  0.94313  0.47487  1.0000
  O   O69       1.0  0.46737999999999996  0.748  0.68759  1.0000
  O   O70       1.0  0.5690699999999999  0.75827  0.68784  1.0000
  O   O71       1.0  0.4096499999999999  0.74958  0.53346  1.0000
  O   O72       1.0  0.62156  0.77641  0.53331  1.0000
  O   O73       1.0  0.24318999999999996  0.91232  0.99355  1.0000
  O   O74       1.0  0.32745  0.9432400000000001  0.9661500000000002  1.0000
  O   O75       1.0  0.6751  0.52722  0.99341  1.0000
  O   O76       1.0  0.75712  0.5568700000000002  0.02513  1.0000
  O   O77       1.0  0.46737999999999996  0.752  0.8124100000000002  1.0000
  O   O78       1.0  0.5690699999999999  0.74173  0.8121600000000002  1.0000
  O   O79       1.0  0.4096499999999999  0.75043  0.96655  1.0000
  O   O80       1.0  0.62156  0.72359  0.9666900000000003  1.0000
  O   O81       1.0  0.24318999999999996  0.99355  0.58768  1.0000
  O   O82       1.0  0.32745  0.9661500000000002  0.55677  1.0000
  O   O83       1.0  0.6751  0.99341  0.9727800000000002  1.0000
  O   O84       1.0  0.75712  0.02513  0.94313  1.0000
  O   O85       1.0  0.46737999999999996  0.8124100000000002  0.748  1.0000
  O   O86       1.0  0.5690699999999999  0.8121600000000002  0.75827  1.0000
  O   O87       1.0  0.4096499999999999  0.96655  0.74958  1.0000
  O   O88       1.0  0.62156  0.9666900000000003  0.77641  1.0000
  O   O89       1.0  0.24318999999999996  0.50645  0.91232  1.0000
  O   O90       1.0  0.32745  0.53386  0.9432400000000001  1.0000
  O   O91       1.0  0.6751  0.50659  0.52722  1.0000
  O   O92       1.0  0.75712  0.47487  0.5568700000000002  1.0000
  O   O93       1.0  0.46737999999999996  0.68759  0.752  1.0000
  O   O94       1.0  0.5690699999999999  0.68784  0.74173  1.0000
  O   O95       1.0  0.4096499999999999  0.53346  0.75043  1.0000
  O   O96       1.0  0.62156  0.53331  0.72359  1.0000
  O   O97       1.0  0.25681  0.91232  0.50645  1.0000
  O   O98       1.0  0.17255  0.9432400000000001  0.53386  1.0000
  O   O99       1.0  0.8249  0.52722  0.50659  1.0000
  O   O100      1.0  0.74288  0.5568700000000002  0.47487  1.0000
  O   O101      1.0  0.03262  0.752  0.68759  1.0000
  O   O102      1.0  0.9309299999999999  0.74173  0.68784  1.0000
  O   O103      1.0  0.09035  0.75043  0.53346  1.0000
  O   O104      1.0  0.87843  0.72359  0.53331  1.0000
  O   O105      1.0  0.25681  0.58768  0.99355  1.0000
  O   O106      1.0  0.17255  0.55677  0.9661500000000002  1.0000
  O   O107      1.0  0.8249  0.9727800000000002  0.99341  1.0000
  O   O108      1.0  0.74288  0.94313  0.02513  1.0000
  O   O109      1.0  0.03262  0.748  0.8124100000000002  1.0000
  O   O110      1.0  0.9309299999999999  0.75827  0.8121600000000002  1.0000
  O   O111      1.0  0.09035  0.74958  0.96655  1.0000
  O   O112      1.0  0.87843  0.77641  0.9666900000000003  1.0000
  O   O113      1.0  0.25681  0.50645  0.58768  1.0000
  O   O114      1.0  0.17255  0.53386  0.55677  1.0000
  O   O115      1.0  0.8249  0.50659  0.9727800000000002  1.0000
  O   O116      1.0  0.74288  0.47487  0.94313  1.0000
  O   O117      1.0  0.03262  0.68759  0.748  1.0000
  O   O118      1.0  0.9309299999999999  0.68784  0.75827  1.0000
  O   O119      1.0  0.09035  0.53346  0.74958  1.0000
  O   O120      1.0  0.87843  0.53331  0.77641  1.0000
  O   O121      1.0  0.25681  0.99355  0.91232  1.0000
  O   O122      1.0  0.17255  0.9661500000000002  0.9432400000000001  1.0000
  O   O123      1.0  0.8249  0.99341  0.52722  1.0000
  O   O124      1.0  0.74288  0.02513  0.5568700000000002  1.0000
  O   O125      1.0  0.03262  0.8124100000000002  0.752  1.0000
  O   O126      1.0  0.9309299999999999  0.8121600000000002  0.74173  1.0000
  O   O127      1.0  0.09035  0.96655  0.75043  1.0000
  O   O128      1.0  0.87843  0.9666900000000003  0.72359  1.0000
