data_image0
_chemical_formula_structural       Mn18H480C378N48O54
_chemical_formula_sum              "Mn18 H480 C378 N48 O54"
_cell_length_a       20.49279
_cell_length_b       30.502709999999997
_cell_length_c       30.50745
_cell_angle_alpha    115.25269999999999
_cell_angle_beta     102.91231
_cell_angle_gamma    102.90379

_space_group_name_H-M_alt    "P 1"
_space_group_IT_number       1

loop_
  _space_group_symop_operation_xyz
  'x, y, z'

loop_
  _atom_site_type_symbol
  _atom_site_label
  _atom_site_symmetry_multiplicity
  _atom_site_fract_x
  _atom_site_fract_y
  _atom_site_fract_z
  _atom_site_occupancy
  Mn  Mn1       1.0  0.43161  0.37798  0.82235  1.0000
  Mn  Mn2       1.0  0.56365  0.3430800000000001  0.94736  1.0000
  Mn  Mn3       1.0  0.31034000000000006  0.50108  0.88261  1.0000
  Mn  Mn4       1.0  0.054060000000000004  0.44443  0.62214  1.0000
  Mn  Mn5       1.0  0.22031000000000003  0.60448  0.65669  1.0000
  Mn  Mn6       1.0  0.80984  0.38174000000000013  0.49906000000000006  1.0000
  Mn  Mn7       1.0  0.60979  0.17803000000000008  0.55595  1.0000
  Mn  Mn8       1.0  0.6159000000000001  0.05225000000000001  0.39588  1.0000
  Mn  Mn9       1.0  0.42825  0.11757  0.61871  1.0000
  Mn  Mn10      1.0  0.56839  0.6220100000000002  0.17765  1.0000
  Mn  Mn11      1.0  0.43635  0.65691  0.05264  1.0000
  Mn  Mn12      1.0  0.68965  0.49892  0.11739  1.0000
  Mn  Mn13      1.0  0.94594  0.55557  0.37786  1.0000
  Mn  Mn14      1.0  0.77969  0.39551  0.3433  1.0000
  Mn  Mn15      1.0  0.19015000000000007  0.61825  0.50094  1.0000
  Mn  Mn16      1.0  0.39021  0.8219700000000001  0.44405  1.0000
  Mn  Mn17      1.0  0.38409  0.9477400000000002  0.60411  1.0000
  Mn  Mn18      1.0  0.5717500000000001  0.8824200000000001  0.38129  1.0000
  H   H1        1.0  0.22605000000000008  0.24663000000000013  0.7267400000000002  1.0000
  H   H2        1.0  0.18644999999999998  0.15923999999999994  0.71886  1.0000
  H   H3        1.0  0.27031999999999995  0.13622  0.7708799999999999  1.0000
  H   H4        1.0  0.3908499999999999  0.20307  0.83347  1.0000
  H   H5        1.0  0.60829  0.4947500000000001  0.97927  1.0000
  H   H6        1.0  0.6546500000000001  0.45149000000000006  0.96881  1.0000
  H   H7        1.0  0.64097  0.51327  0.9118  1.0000
  H   H8        1.0  0.7149  0.53245  0.9671  1.0000
  H   H9        1.0  0.66325  0.4288200000000001  0.86485  1.0000
  H   H10       1.0  0.74088  0.4531500000000001  0.91923  1.0000
  H   H11       1.0  0.7136  0.5039600000000001  0.85213  1.0000
  H   H12       1.0  0.76814  0.46653  0.84861  1.0000
  H   H13       1.0  0.7941800000000001  0.57038  0.9438  1.0000
  H   H14       1.0  0.8466800000000001  0.53237  0.94326  1.0000
  H   H15       1.0  0.82636  0.5780100000000001  0.87082  1.0000
  H   H16       1.0  0.88135  0.5419500000000002  0.8731  1.0000
  H   H17       1.0  0.8995800000000003  0.6475200000000002  0.9624200000000002  1.0000
  H   H18       1.0  0.9506000000000001  0.61043  0.96958  1.0000
  H   H19       1.0  0.99856  0.61519  0.90251  1.0000
  H   H20       1.0  0.9474899999999999  0.6515800000000003  0.8933  1.0000
  H   H21       1.0  0.015269999999999995  0.7250200000000001  0.98194  1.0000
  H   H22       1.0  0.05503  0.68769  0.00074  1.0000
  H   H23       1.0  0.07994000000000001  0.7136  0.91764  1.0000
  H   H24       1.0  0.12128  0.67874  0.94014  1.0000
  H   H25       1.0  0.20158  0.77394  0.98216  1.0000
  H   H26       1.0  0.18633000000000008  0.7562400000000002  0.028290000000000003  1.0000
  H   H27       1.0  0.13937000000000002  0.79243  0.01143  1.0000
  H   H28       1.0  0.55488  0.4397000000000001  0.80932  1.0000
  H   H29       1.0  0.62733  0.43647  0.75415  1.0000
  H   H30       1.0  0.50975  0.27089  0.66097  1.0000
  H   H31       1.0  0.44302  0.28094  0.7215  1.0000
  H   H32       1.0  0.65269  0.3261200000000001  0.6723899999999999  1.0000
  H   H33       1.0  0.5803700000000002  0.322  0.62638  1.0000
  H   H34       1.0  0.7198699999999999  0.2811699999999999  0.89042  1.0000
  H   H35       1.0  0.85335  0.31583  0.92967  1.0000
  H   H36       1.0  0.9172300000000001  0.39641  0.01683  1.0000
  H   H37       1.0  0.8452199999999999  0.44158  0.06321  1.0000
  H   H38       1.0  0.43654999999999994  0.41948  0.03329  1.0000
  H   H39       1.0  0.51583  0.4740000000000001  0.07889  1.0000
  H   H40       1.0  0.46112  0.37301  0.08147  1.0000
  H   H41       1.0  0.54324  0.42418  0.12514  1.0000
  H   H42       1.0  0.3955999999999999  0.43519  0.11108  1.0000
  H   H43       1.0  0.47815  0.48548000000000013  0.15453  1.0000
  H   H44       1.0  0.41532  0.3853300000000001  0.1568  1.0000
  H   H45       1.0  0.5006  0.43311  0.19881  1.0000
  H   H46       1.0  0.44707  0.49914  0.23549  1.0000
  H   H47       1.0  0.36068  0.45533  0.19115  1.0000
  H   H48       1.0  0.36751  0.3974  0.22962  1.0000
  H   H49       1.0  0.45499999999999996  0.43973  0.27281  1.0000
  H   H50       1.0  0.32136  0.47015  0.26889  1.0000
  H   H51       1.0  0.4092299999999999  0.51165  0.31197  1.0000
  H   H52       1.0  0.32402  0.41231  0.30769  1.0000
  H   H53       1.0  0.41326  0.4516800000000001  0.34911  1.0000
  H   H54       1.0  0.28541  0.4887  0.34978  1.0000
  H   H55       1.0  0.37468  0.52782  0.39032  1.0000
  H   H56       1.0  0.2868800000000001  0.4306300000000001  0.38818  1.0000
  H   H57       1.0  0.37764999999999993  0.46683  0.42663  1.0000
  H   H58       1.0  0.34657  0.54689  0.47271  1.0000
  H   H59       1.0  0.30227000000000004  0.4951900000000001  0.4801  1.0000
  H   H60       1.0  0.25485  0.50987  0.43533  1.0000
  H   H61       1.0  0.27858000000000005  0.56536  0.77865  1.0000
  H   H62       1.0  0.30848999999999993  0.54585  0.6996199999999999  1.0000
  H   H63       1.0  0.37416  0.4848800000000001  0.67187  1.0000
  H   H64       1.0  0.4062400000000001  0.44263000000000013  0.72391  1.0000
  H   H65       1.0  0.40990000000000004  0.4327100000000001  0.97165  1.0000
  H   H66       1.0  0.39584  0.37692000000000014  0.91373  1.0000
  H   H67       1.0  0.3243000000000001  0.3597400000000001  0.96634  1.0000
  H   H68       1.0  0.27852  0.39984  0.95795  1.0000
  H   H69       1.0  0.23034000000000007  0.33853000000000016  0.8604300000000001  1.0000
  H   H70       1.0  0.27516  0.29878  0.86986  1.0000
  H   H71       1.0  0.1594500000000001  0.3254700000000001  0.9143600000000001  1.0000
  H   H72       1.0  0.2047200000000001  0.28582  0.9242  1.0000
  H   H73       1.0  0.08135999999999997  0.25354  0.82583  1.0000
  H   H74       1.0  0.14084999999999995  0.21605  0.8279  1.0000
  H   H75       1.0  0.65713  0.34003  0.50436  1.0000
  H   H76       1.0  0.59842  0.34326  0.5681  1.0000
  H   H77       1.0  0.80404  0.44617000000000007  0.6906  1.0000
  H   H78       1.0  0.85472  0.4384400000000001  0.62175  1.0000
  H   H79       1.0  0.62744  0.42247  0.67379  1.0000
  H   H80       1.0  0.70421  0.4231700000000001  0.71414  1.0000
  H   H81       1.0  0.98073  0.48049  0.75349  1.0000
  H   H82       1.0  0.028579999999999973  0.56013  0.84105  1.0000
  H   H83       1.0  0.13503000000000004  0.6354600000000002  0.86387  1.0000
  H   H84       1.0  0.18819  0.63134  0.79675  1.0000
  H   H85       1.0  0.11266000000000002  0.48385  0.50477  1.0000
  H   H86       1.0  0.20221  0.51725  0.548  1.0000
  H   H87       1.0  0.12767  0.39817  0.48646  1.0000
  H   H88       1.0  0.18234000000000006  0.43430000000000013  0.46729  1.0000
  H   H89       1.0  0.23398  0.4362  0.57101  1.0000
  H   H90       1.0  0.2875  0.46627000000000013  0.54688  1.0000
  H   H91       1.0  0.20989999999999998  0.34818000000000005  0.49611  1.0000
  H   H92       1.0  0.30182  0.38238  0.5336  1.0000
  H   H93       1.0  0.22406  0.37334  0.42973  1.0000
  H   H94       1.0  0.31456  0.41094  0.46776  1.0000
  H   H95       1.0  0.24867000000000003  0.29271  0.42198  1.0000
  H   H96       1.0  0.33971000000000007  0.33115  0.45798  1.0000
  H   H97       1.0  0.25228  0.31473  0.35255  1.0000
  H   H98       1.0  0.34037  0.35907  0.38959  1.0000
  H   H99       1.0  0.38355  0.2871500000000001  0.38458  1.0000
  H   H100      1.0  0.29607  0.24146  0.34816  1.0000
  H   H101      1.0  0.29047000000000006  0.25663000000000014  0.27487  1.0000
  H   H102      1.0  0.36756999999999995  0.31292  0.31226  1.0000
  H   H103      1.0  0.3665300000000001  0.2037  0.28592  1.0000
  H   H104      1.0  0.44274  0.26119  0.32093  1.0000
  H   H105      1.0  0.42787  0.20799  0.22565  1.0000
  H   H106      1.0  0.43032  0.27195  0.24362  1.0000
  H   H107      1.0  0.3472  0.21878000000000006  0.20736  1.0000
  H   H108      1.0  0.11539000000000008  0.3693800000000001  0.56021  1.0000
  H   H109      1.0  0.19105  0.3174300000000001  0.56357  1.0000
  H   H110      1.0  0.23840999999999998  0.39029000000000014  0.72911  1.0000
  H   H111      1.0  0.16164000000000006  0.44074000000000013  0.71891  1.0000
  H   H112      1.0  0.32635  0.34637000000000007  0.67394  1.0000
  H   H113      1.0  0.2581  0.30454  0.67807  1.0000
  H   H114      1.0  0.43778  0.60867  0.71808  1.0000
  H   H115      1.0  0.53711  0.61381  0.68389  1.0000
  H   H116      1.0  0.52094  0.6206  0.6036  1.0000
  H   H117      1.0  0.40395  0.62171  0.55836  1.0000
  H   H118      1.0  0.01684000000000002  0.6136900000000001  0.58007  1.0000
  H   H119      1.0  0.04209999999999999  0.60487  0.5258  1.0000
  H   H120      1.0  0.08819999999999999  0.7086  0.62693  1.0000
  H   H121      1.0  0.11914999999999999  0.70104  0.57578  1.0000
  H   H122      1.0  0.96053  0.6759900000000002  0.5649  1.0000
  H   H123      1.0  0.99267  0.66898  0.51458  1.0000
  H   H124      1.0  0.03008000000000003  0.7717600000000002  0.61472  1.0000
  H   H125      1.0  0.06759000000000001  0.76585  0.56696  1.0000
  H   H126      1.0  0.9481  0.73623  0.50092  1.0000
  H   H127      1.0  0.9054800000000001  0.7358000000000002  0.54468  1.0000
  H   H128      1.0  0.9700999999999999  0.83244  0.60261  1.0000
  H   H129      1.0  0.015300000000000065  0.8332100000000002  0.56032  1.0000
  H   H130      1.0  0.8512599999999999  0.79864  0.52984  1.0000
  H   H131      1.0  0.8976499999999998  0.80009  0.48836  1.0000
  H   H132      1.0  0.9116099999999999  0.89552  0.58766  1.0000
  H   H133      1.0  0.9615200000000003  0.8974500000000003  0.54832  1.0000
  H   H134      1.0  0.7966899999999999  0.8609200000000001  0.51123  1.0000
  H   H135      1.0  0.84687  0.86219  0.47212  1.0000
  H   H136      1.0  0.8560899999999999  0.95762  0.56925  1.0000
  H   H137      1.0  0.9106999999999998  0.95973  0.53308  1.0000
  H   H138      1.0  0.79972  0.92544  0.45298000000000005  1.0000
  H   H139      1.0  0.80706  0.9847  0.50469  1.0000
  H   H140      1.0  0.74493  0.9252100000000001  0.48998  1.0000
  H   H141      1.0  0.71362  0.21337000000000003  0.43432  1.0000
  H   H142      1.0  0.76223  0.1537400000000001  0.45413  1.0000
  H   H143      1.0  0.88863  0.1867  0.51493  1.0000
  H   H144      1.0  0.96342  0.28111  0.55736  1.0000
  H   H145      1.0  0.97743  0.53922  0.56751  1.0000
  H   H146      1.0  0.019160000000000003  0.53736  0.62334  1.0000
  H   H147      1.0  0.9647599999999995  0.60703  0.64064  1.0000
  H   H148      1.0  0.8788800000000001  0.5584900000000003  0.60049  1.0000
  H   H149      1.0  0.8916900000000002  0.5220800000000002  0.6614  1.0000
  H   H150      1.0  0.9762299999999999  0.57128  0.70131  1.0000
  H   H151      1.0  0.8339200000000001  0.58914  0.67481  1.0000
  H   H152      1.0  0.91881  0.63875  0.71458  1.0000
  H   H153      1.0  0.82769  0.57243  0.74657  1.0000
  H   H154      1.0  0.92467  0.61199  0.78404  1.0000
  H   H155      1.0  0.31748  0.16472  0.66033  1.0000
  H   H156      1.0  0.2552499999999999  0.22504000000000002  0.65701  1.0000
  H   H157      1.0  0.35788  0.24436000000000005  0.554  1.0000
  H   H158      1.0  0.41638  0.18329  0.56172  1.0000
  H   H159      1.0  0.20486  0.25104  0.57764  1.0000
  H   H160      1.0  0.28082  0.29069000000000006  0.57687  1.0000
  H   H161      1.0  0.4997  0.27324  0.52004  1.0000
  H   H162      1.0  0.46815  0.28110000000000007  0.44059  1.0000
  H   H163      1.0  0.49895  0.22831  0.3651  1.0000
  H   H164      1.0  0.55684  0.16565000000000002  0.3691999999999999  1.0000
  H   H165      1.0  0.62907  0.021079999999999977  0.51578  1.0000
  H   H166      1.0  0.68567  0.030899999999999993  0.48269  1.0000
  H   H167      1.0  0.72941  0.08842000000000005  0.60172  1.0000
  H   H168      1.0  0.74801  0.03299000000000005  0.5656  1.0000
  H   H169      1.0  0.7982299999999999  0.13499000000000005  0.56412  1.0000
  H   H170      1.0  0.82163  0.08062000000000001  0.53388  1.0000
  H   H171      1.0  0.8616399999999999  0.14804  0.65196  1.0000
  H   H172      1.0  0.91966  0.15135000000000007  0.618  1.0000
  H   H173      1.0  0.85048  0.05635000000000001  0.6266  1.0000
  H   H174      1.0  0.90346  0.05666999999999995  0.58907  1.0000
  H   H175      1.0  0.95571  0.12935  0.70732  1.0000
  H   H176      1.0  0.008320000000000013  0.12689000000000006  0.66892  1.0000
  H   H177      1.0  0.9373300000000001  0.037749999999999985  0.68514  1.0000
  H   H178      1.0  0.98113  0.030409999999999982  0.64085  1.0000
  H   H179      1.0  0.09614000000000011  0.09749000000000008  0.7127700000000001  1.0000
  H   H180      1.0  0.054350000000000016  0.10686  0.75842  1.0000
  H   H181      1.0  0.03346  0.018269999999999995  0.74318  1.0000
  H   H182      1.0  0.05436  0.9992499999999999  0.68695  1.0000
  H   H183      1.0  0.16242999999999996  0.08240999999999996  0.79612  1.0000
  H   H184      1.0  0.18119000000000005  0.059750000000000004  0.73865  1.0000
  H   H185      1.0  0.21944000000000005  0.01784000000000009  0.7918200000000001  1.0000
  H   H186      1.0  0.15801000000000007  0.97163  0.7279  1.0000
  H   H187      1.0  0.1279899999999999  0.98869  0.7810299999999999  1.0000
  H   H188      1.0  0.74588  0.19114  0.6306199999999998  1.0000
  H   H189      1.0  0.87338  0.24619  0.6825  1.0000
  H   H190      1.0  0.84879  0.33903  0.60993  1.0000
  H   H191      1.0  0.72153  0.2786000000000001  0.55955  1.0000
  H   H192      1.0  0.98021  0.3275  0.65364  1.0000
  H   H193      1.0  0.9541500000000002  0.37374999999999997  0.6956599999999998  1.0000
  H   H194      1.0  0.82907  0.10897  0.39084  1.0000
  H   H195      1.0  0.92306  0.06948000000000004  0.38602  1.0000
  H   H196      1.0  0.8999499999999999  0.98256  0.37965000000000004  1.0000
  H   H197      1.0  0.78145  0.93624  0.37811  1.0000
  H   H198      1.0  0.40301  0.96641  0.38636  1.0000
  H   H199      1.0  0.43684999999999996  0.9207400000000001  0.39494  1.0000
  H   H200      1.0  0.3793400000000001  0.9182000000000002  0.2914  1.0000
  H   H201      1.0  0.41777000000000003  0.8744900000000002  0.29881  1.0000
  H   H202      1.0  0.28430000000000005  0.8887900000000002  0.32401  1.0000
  H   H203      1.0  0.32340000000000013  0.8453900000000002  0.33084  1.0000
  H   H204      1.0  0.25819  0.8428  0.22828  1.0000
  H   H205      1.0  0.30142  0.80079  0.23401  1.0000
  H   H206      1.0  0.21144  0.76444  0.26355  1.0000
  H   H207      1.0  0.16946  0.80884  0.26415  1.0000
  H   H208      1.0  0.13750999999999997  0.77004  0.16758  1.0000
  H   H209      1.0  0.18177  0.72681  0.16665000000000002  1.0000
  H   H210      1.0  0.052439999999999966  0.73119  0.20137  1.0000
  H   H211      1.0  0.09720000000000001  0.68807  0.19972  1.0000
  H   H212      1.0  0.015990000000000008  0.69209  0.10456  1.0000
  H   H213      1.0  0.06383000000000003  0.65066  0.10245  1.0000
  H   H214      1.0  0.9356  0.6502900000000003  0.13906  1.0000
  H   H215      1.0  0.9843799999999998  0.60975  0.13758  1.0000
  H   H216      1.0  0.8985  0.6116800000000002  0.04247  1.0000
  H   H217      1.0  0.9508799999999998  0.57324  0.04015  1.0000
  H   H218      1.0  0.8739799999999999  0.52734  0.07419  1.0000
  H   H219      1.0  0.8221199999999999  0.5198  0.01505  1.0000
  H   H220      1.0  0.8195500000000001  0.56471  0.07462  1.0000
  H   H221      1.0  0.5005199999999999  0.22139000000000006  0.7871700000000001  1.0000
  H   H222      1.0  0.60901  0.30075  0.84669  1.0000
  H   H223      1.0  0.70218  0.32846  0.81341  1.0000
  H   H224      1.0  0.68203  0.27632  0.71884  1.0000
  H   H225      1.0  0.43853  0.028389999999999974  0.46081  1.0000
  H   H226      1.0  0.48204  0.08648  0.46328  1.0000
  H   H227      1.0  0.3581  0.033600000000000005  0.39338  1.0000
  H   H228      1.0  0.32048  0.04209999999999999  0.44175  1.0000
  H   H229      1.0  0.36993  0.13970000000000005  0.47816  1.0000
  H   H230      1.0  0.40519999999999995  0.13  0.42889  1.0000
  H   H231      1.0  0.24508  0.08563  0.41106  1.0000
  H   H232      1.0  0.28048  0.07563000000000006  0.36151  1.0000
  H   H233      1.0  0.25536  0.1741000000000001  0.42767999999999995  1.0000
  H   H234      1.0  0.31277000000000005  0.17191000000000006  0.38810000000000006  1.0000
  H   H235      1.0  0.15315999999999996  0.4957500000000001  0.83575  1.0000
  H   H236      1.0  0.03078000000000008  0.4322200000000001  0.7750600000000001  1.0000
  H   H237      1.0  0.11356000000000002  0.30943  0.75555  1.0000
  H   H238      1.0  0.23300000000000004  0.3782  0.81688  1.0000
  H   H239      1.0  0.9539700000000001  0.3266900000000001  0.74891  1.0000
  H   H240      1.0  0.9901999999999999  0.28607  0.70912  1.0000
  H   H241      1.0  0.7739500000000001  0.75336  0.27326  1.0000
  H   H242      1.0  0.81354  0.8407499999999999  0.28114  1.0000
  H   H243      1.0  0.7296800000000001  0.8637800000000002  0.22912  1.0000
  H   H244      1.0  0.60914  0.79693  0.16653  1.0000
  H   H245      1.0  0.39169999999999994  0.50525  0.02073  1.0000
  H   H246      1.0  0.34535  0.54851  0.03119  1.0000
  H   H247      1.0  0.35903  0.48673  0.0882  1.0000
  H   H248      1.0  0.2851  0.4675400000000001  0.0329  1.0000
  H   H249      1.0  0.33675  0.57117  0.13515  1.0000
  H   H250      1.0  0.25912  0.54684  0.08077000000000001  1.0000
  H   H251      1.0  0.2864  0.49603000000000014  0.14787  1.0000
  H   H252      1.0  0.23186000000000007  0.5334700000000001  0.15138  1.0000
  H   H253      1.0  0.20582  0.42962  0.0562  1.0000
  H   H254      1.0  0.15332000000000004  0.4676200000000001  0.05674  1.0000
  H   H255      1.0  0.17364  0.42199  0.12918  1.0000
  H   H256      1.0  0.11865000000000003  0.4580500000000001  0.1269  1.0000
  H   H257      1.0  0.10041000000000003  0.3524800000000001  0.03758  1.0000
  H   H258      1.0  0.04939999999999998  0.38956  0.03042  1.0000
  H   H259      1.0  0.0014399999999999801  0.3848  0.09749000000000001  1.0000
  H   H260      1.0  0.05251  0.34841  0.1067  1.0000
  H   H261      1.0  0.98473  0.27497  0.01806  1.0000
  H   H262      1.0  0.94497  0.31229999999999997  0.99925  1.0000
  H   H263      1.0  0.92006  0.2864  0.08236000000000002  1.0000
  H   H264      1.0  0.8787199999999998  0.32126  0.05986  1.0000
  H   H265      1.0  0.79842  0.22605  0.01784  1.0000
  H   H266      1.0  0.81366  0.24376  0.9717  1.0000
  H   H267      1.0  0.8606299999999999  0.20757000000000012  0.98857  1.0000
  H   H268      1.0  0.44511  0.5603  0.19067  1.0000
  H   H269      1.0  0.37265999999999994  0.56352  0.24584999999999999  1.0000
  H   H270      1.0  0.49025  0.72911  0.33903  1.0000
  H   H271      1.0  0.55698  0.71905  0.27849  1.0000
  H   H272      1.0  0.34731  0.67387  0.32761  1.0000
  H   H273      1.0  0.41963  0.6780000000000002  0.37362  1.0000
  H   H274      1.0  0.28013  0.71883  0.10958  1.0000
  H   H275      1.0  0.14664000000000002  0.68416  0.07033  1.0000
  H   H276      1.0  0.08276999999999998  0.60359  0.98317  1.0000
  H   H277      1.0  0.15478  0.55842  0.93679  1.0000
  H   H278      1.0  0.5634500000000002  0.58051  0.96671  1.0000
  H   H279      1.0  0.4841700000000001  0.5260000000000001  0.9211100000000001  1.0000
  H   H280      1.0  0.53888  0.6269900000000003  0.91853  1.0000
  H   H281      1.0  0.45676  0.57582  0.87486  1.0000
  H   H282      1.0  0.6044  0.5648  0.88892  1.0000
  H   H283      1.0  0.52185  0.51452  0.84547  1.0000
  H   H284      1.0  0.58468  0.61466  0.8432  1.0000
  H   H285      1.0  0.49939999999999996  0.56689  0.80119  1.0000
  H   H286      1.0  0.55292  0.50085  0.76451  1.0000
  H   H287      1.0  0.63932  0.54467  0.80885  1.0000
  H   H288      1.0  0.63248  0.6026  0.7703800000000001  1.0000
  H   H289      1.0  0.5449899999999998  0.56026  0.72719  1.0000
  H   H290      1.0  0.67864  0.52984  0.73111  1.0000
  H   H291      1.0  0.59076  0.48834  0.68803  1.0000
  H   H292      1.0  0.67598  0.58769  0.69231  1.0000
  H   H293      1.0  0.58674  0.54832  0.65089  1.0000
  H   H294      1.0  0.71459  0.5113  0.65022  1.0000
  H   H295      1.0  0.62532  0.47217000000000015  0.60968  1.0000
  H   H296      1.0  0.71312  0.56937  0.61182  1.0000
  H   H297      1.0  0.62234  0.53316  0.57337  1.0000
  H   H298      1.0  0.65343  0.45310000000000006  0.52729  1.0000
  H   H299      1.0  0.69772  0.50481  0.5199  1.0000
  H   H300      1.0  0.74514  0.49012000000000006  0.56467  1.0000
  H   H301      1.0  0.7214199999999998  0.43464  0.22134  1.0000
  H   H302      1.0  0.69151  0.45415  0.30038  1.0000
  H   H303      1.0  0.62583  0.5151100000000001  0.32813  1.0000
  H   H304      1.0  0.59376  0.55737  0.27609  1.0000
  H   H305      1.0  0.5901  0.56728  0.02835  1.0000
  H   H306      1.0  0.6041500000000001  0.6230800000000002  0.08627  1.0000
  H   H307      1.0  0.6757  0.64026  0.03366  1.0000
  H   H308      1.0  0.72148  0.60016  0.04205  1.0000
  H   H309      1.0  0.7696600000000002  0.6614700000000002  0.13957  1.0000
  H   H310      1.0  0.72484  0.70122  0.13014  1.0000
  H   H311      1.0  0.8405499999999999  0.67452  0.08564  1.0000
  H   H312      1.0  0.7952799999999999  0.71417  0.0758  1.0000
  H   H313      1.0  0.9186399999999999  0.74645  0.17417  1.0000
  H   H314      1.0  0.8591400000000002  0.7839500000000003  0.17209999999999998  1.0000
  H   H315      1.0  0.34287  0.65997  0.49564  1.0000
  H   H316      1.0  0.40158  0.65674  0.4319  1.0000
  H   H317      1.0  0.1959700000000001  0.5538300000000003  0.3094  1.0000
  H   H318      1.0  0.14528  0.56155  0.37825  1.0000
  H   H319      1.0  0.37256  0.57752  0.32622  1.0000
  H   H320      1.0  0.29579  0.5768200000000002  0.28586  1.0000
  H   H321      1.0  0.01925999999999998  0.51951  0.24651000000000003  1.0000
  H   H322      1.0  0.9714199999999998  0.43987  0.15894000000000003  1.0000
  H   H323      1.0  0.8649699999999999  0.36454000000000003  0.13613  1.0000
  H   H324      1.0  0.8118099999999999  0.36866  0.20324  1.0000
  H   H325      1.0  0.8873399999999999  0.51615  0.49523  1.0000
  H   H326      1.0  0.79778  0.48275000000000007  0.452  1.0000
  H   H327      1.0  0.8723300000000002  0.6018200000000002  0.51354  1.0000
  H   H328      1.0  0.81766  0.56569  0.53271  1.0000
  H   H329      1.0  0.76602  0.56379  0.42899  1.0000
  H   H330      1.0  0.7124999999999999  0.53372  0.45311  1.0000
  H   H331      1.0  0.7900999999999999  0.65181  0.50389  1.0000
  H   H332      1.0  0.69818  0.61761  0.46640000000000004  1.0000
  H   H333      1.0  0.77594  0.62665  0.57027  1.0000
  H   H334      1.0  0.6854399999999999  0.58905  0.53223  1.0000
  H   H335      1.0  0.75133  0.70728  0.57802  1.0000
  H   H336      1.0  0.6602900000000002  0.6688400000000002  0.54202  1.0000
  H   H337      1.0  0.74771  0.6852699999999999  0.6474499999999999  1.0000
  H   H338      1.0  0.6596299999999999  0.64093  0.61041  1.0000
  H   H339      1.0  0.61644  0.71285  0.61542  1.0000
  H   H340      1.0  0.7039199999999998  0.75854  0.65183  1.0000
  H   H341      1.0  0.7095300000000001  0.74336  0.7251300000000002  1.0000
  H   H342      1.0  0.63243  0.6870700000000001  0.68774  1.0000
  H   H343      1.0  0.63346  0.7963  0.71408  1.0000
  H   H344      1.0  0.55726  0.7388  0.67907  1.0000
  H   H345      1.0  0.5721300000000001  0.7920100000000002  0.77435  1.0000
  H   H346      1.0  0.5696700000000001  0.7280500000000003  0.7563700000000001  1.0000
  H   H347      1.0  0.6527999999999999  0.78122  0.7926400000000001  1.0000
  H   H348      1.0  0.8846100000000001  0.6306100000000002  0.43979  1.0000
  H   H349      1.0  0.80895  0.6825700000000002  0.43643  1.0000
  H   H350      1.0  0.7615800000000001  0.6097000000000002  0.27089  1.0000
  H   H351      1.0  0.83836  0.55926  0.28109  1.0000
  H   H352      1.0  0.6736500000000002  0.6536300000000003  0.32606  1.0000
  H   H353      1.0  0.74189  0.6954500000000002  0.32193  1.0000
  H   H354      1.0  0.5622099999999999  0.39132  0.28192  1.0000
  H   H355      1.0  0.46287999999999996  0.38619  0.31611000000000006  1.0000
  H   H356      1.0  0.47905  0.37939000000000006  0.3964  1.0000
  H   H357      1.0  0.59605  0.37828  0.44164  1.0000
  H   H358      1.0  0.98316  0.3863  0.41993  1.0000
  H   H359      1.0  0.9578899999999999  0.39513  0.4742  1.0000
  H   H360      1.0  0.9118  0.29139  0.37307  1.0000
  H   H361      1.0  0.88085  0.29895  0.42422  1.0000
  H   H362      1.0  0.03946999999999999  0.324  0.4351  1.0000
  H   H363      1.0  0.007320000000000055  0.3310200000000001  0.48542  1.0000
  H   H364      1.0  0.96992  0.22824000000000003  0.38528  1.0000
  H   H365      1.0  0.9324099999999999  0.23415000000000005  0.43304000000000004  1.0000
  H   H366      1.0  0.0519  0.26376  0.49908  1.0000
  H   H367      1.0  0.09452  0.2642  0.45531  1.0000
  H   H368      1.0  0.029890000000000014  0.16756000000000001  0.3973900000000001  1.0000
  H   H369      1.0  0.9847  0.16679  0.43968  1.0000
  H   H370      1.0  0.14874000000000007  0.20135000000000006  0.47016  1.0000
  H   H371      1.0  0.10234999999999998  0.1999  0.51163  1.0000
  H   H372      1.0  0.08839000000000001  0.10447000000000005  0.41234  1.0000
  H   H373      1.0  0.038479999999999986  0.10254  0.45168  1.0000
  H   H374      1.0  0.20331000000000002  0.1390800000000001  0.48877000000000004  1.0000
  H   H375      1.0  0.15313000000000002  0.13781000000000002  0.52788  1.0000
  H   H376      1.0  0.14390000000000003  0.04238000000000007  0.4307500000000001  1.0000
  H   H377      1.0  0.08929  0.04027000000000001  0.46692  1.0000
  H   H378      1.0  0.20028  0.07456000000000002  0.54701  1.0000
  H   H379      1.0  0.19294000000000006  0.015290000000000028  0.49531000000000003  1.0000
  H   H380      1.0  0.25506  0.07479  0.51002  1.0000
  H   H381      1.0  0.2863800000000001  0.7866200000000001  0.56568  1.0000
  H   H382      1.0  0.23776999999999995  0.8462599999999999  0.54587  1.0000
  H   H383      1.0  0.11137000000000011  0.8133000000000002  0.48507000000000006  1.0000
  H   H384      1.0  0.036570000000000026  0.71889  0.44264  1.0000
  H   H385      1.0  0.022570000000000066  0.4607700000000001  0.43249  1.0000
  H   H386      1.0  0.9808299999999999  0.46264000000000005  0.37666  1.0000
  H   H387      1.0  0.03524000000000003  0.39297  0.35936  1.0000
  H   H388      1.0  0.12112000000000003  0.4415000000000001  0.39951  1.0000
  H   H389      1.0  0.10830000000000001  0.47791000000000006  0.3386  1.0000
  H   H390      1.0  0.023770000000000065  0.4287100000000001  0.29869  1.0000
  H   H391      1.0  0.16607999999999998  0.41086  0.3251899999999999  1.0000
  H   H392      1.0  0.08118000000000002  0.36125000000000007  0.28541  1.0000
  H   H393      1.0  0.17231000000000005  0.4275600000000001  0.25343  1.0000
  H   H394      1.0  0.07533000000000002  0.388  0.21596  1.0000
  H   H395      1.0  0.68251  0.83528  0.33967  1.0000
  H   H396      1.0  0.7447200000000002  0.7749400000000002  0.34298  1.0000
  H   H397      1.0  0.64213  0.7556500000000002  0.4460100000000001  1.0000
  H   H398      1.0  0.58364  0.8167300000000002  0.4383  1.0000
  H   H399      1.0  0.7951300000000001  0.74895  0.42236  1.0000
  H   H400      1.0  0.71917  0.7093  0.42313  1.0000
  H   H401      1.0  0.5003  0.7267600000000002  0.47995  1.0000
  H   H402      1.0  0.53191  0.71893  0.55942  1.0000
  H   H403      1.0  0.5011  0.77172  0.63491  1.0000
  H   H404      1.0  0.44315000000000004  0.8343400000000002  0.63079  1.0000
  H   H405      1.0  0.37093  0.97891  0.48421  1.0000
  H   H406      1.0  0.31434000000000006  0.9690900000000001  0.51731  1.0000
  H   H407      1.0  0.27058  0.91157  0.39828  1.0000
  H   H408      1.0  0.25199  0.967  0.43439  1.0000
  H   H409      1.0  0.20177  0.865  0.43587  1.0000
  H   H410      1.0  0.1783700000000001  0.9193700000000002  0.46612  1.0000
  H   H411      1.0  0.13836  0.8519600000000002  0.34804000000000007  1.0000
  H   H412      1.0  0.08034000000000009  0.8486400000000002  0.382  1.0000
  H   H413      1.0  0.14952  0.94364  0.3734  1.0000
  H   H414      1.0  0.09653999999999999  0.9433300000000001  0.41093  1.0000
  H   H415      1.0  0.04428999999999999  0.87064  0.29268  1.0000
  H   H416      1.0  0.9916799999999999  0.8731000000000001  0.33108  1.0000
  H   H417      1.0  0.06266000000000004  0.96224  0.31485  1.0000
  H   H418      1.0  0.018869999999999967  0.96959  0.35914  1.0000
  H   H419      1.0  0.90386  0.90251  0.28723  1.0000
  H   H420      1.0  0.94565  0.8931300000000002  0.24158000000000002  1.0000
  H   H421      1.0  0.96654  0.9817200000000001  0.25682  1.0000
  H   H422      1.0  0.9456399999999999  0.0007499999999999632  0.31303999999999993  1.0000
  H   H423      1.0  0.8375700000000001  0.9175800000000002  0.20388  1.0000
  H   H424      1.0  0.81881  0.94024  0.26134  1.0000
  H   H425      1.0  0.7805600000000001  0.9821500000000001  0.20818  1.0000
  H   H426      1.0  0.84199  0.028370000000000013  0.2721  1.0000
  H   H427      1.0  0.87201  0.011299999999999998  0.21897  1.0000
  H   H428      1.0  0.2541  0.80886  0.36937  1.0000
  H   H429      1.0  0.12661000000000006  0.7538100000000002  0.3175  1.0000
  H   H430      1.0  0.15121  0.6609700000000002  0.39006  1.0000
  H   H431      1.0  0.27846  0.7214000000000003  0.44044  1.0000
  H   H432      1.0  0.019780000000000037  0.6724900000000001  0.34636  1.0000
  H   H433      1.0  0.04584000000000001  0.62625  0.30434  1.0000
  H   H434      1.0  0.17093000000000005  0.8910200000000001  0.60916  1.0000
  H   H435      1.0  0.07694000000000006  0.9305200000000002  0.61398  1.0000
  H   H436      1.0  0.10005000000000004  0.017430000000000008  0.62035  1.0000
  H   H437      1.0  0.21854  0.06376000000000001  0.62189  1.0000
  H   H438      1.0  0.59699  0.033580000000000026  0.61364  1.0000
  H   H439      1.0  0.56314  0.07925000000000006  0.60506  1.0000
  H   H440      1.0  0.62066  0.08179999999999994  0.7085899999999999  1.0000
  H   H441      1.0  0.58222  0.12549999999999994  0.70119  1.0000
  H   H442      1.0  0.7157  0.11120000000000001  0.67599  1.0000
  H   H443      1.0  0.6766  0.15461  0.66915  1.0000
  H   H444      1.0  0.74181  0.15719  0.77171  1.0000
  H   H445      1.0  0.69858  0.19920999999999994  0.76599  1.0000
  H   H446      1.0  0.7885599999999999  0.23556  0.73645  1.0000
  H   H447      1.0  0.83053  0.19116000000000008  0.73585  1.0000
  H   H448      1.0  0.86249  0.22995  0.83241  1.0000
  H   H449      1.0  0.8182199999999998  0.27319  0.83335  1.0000
  H   H450      1.0  0.9475599999999998  0.2688  0.79863  1.0000
  H   H451      1.0  0.9027899999999999  0.3119200000000002  0.80028  1.0000
  H   H452      1.0  0.984  0.3079  0.89543  1.0000
  H   H453      1.0  0.93617  0.34934  0.89755  1.0000
  H   H454      1.0  0.06439999999999999  0.3497  0.86094  1.0000
  H   H455      1.0  0.015620000000000042  0.39024000000000014  0.86242  1.0000
  H   H456      1.0  0.10149999999999999  0.38832000000000005  0.9575299999999999  1.0000
  H   H457      1.0  0.04911000000000003  0.4267600000000001  0.95984  1.0000
  H   H458      1.0  0.12602  0.47265  0.92581  1.0000
  H   H459      1.0  0.17788000000000007  0.4801900000000001  0.98495  1.0000
  H   H460      1.0  0.18044000000000002  0.43529000000000007  0.92538  1.0000
  H   H461      1.0  0.49948  0.7786100000000001  0.21283000000000002  1.0000
  H   H462      1.0  0.39099  0.69925  0.15331  1.0000
  H   H463      1.0  0.2978100000000001  0.67153  0.18659000000000003  1.0000
  H   H464      1.0  0.31796  0.72367  0.28116  1.0000
  H   H465      1.0  0.56148  0.9716  0.53919  1.0000
  H   H466      1.0  0.51795  0.91351  0.53672  1.0000
  H   H467      1.0  0.64191  0.9664000000000001  0.60662  1.0000
  H   H468      1.0  0.67951  0.95787  0.55822  1.0000
  H   H469      1.0  0.63001  0.86027  0.52186  1.0000
  H   H470      1.0  0.59477  0.87001  0.57115  1.0000
  H   H471      1.0  0.75489  0.9143300000000001  0.58894  1.0000
  H   H472      1.0  0.71951  0.9243400000000002  0.6385  1.0000
  H   H473      1.0  0.7445400000000001  0.8258400000000004  0.57226  1.0000
  H   H474      1.0  0.68721  0.82805  0.6119  1.0000
  H   H475      1.0  0.84684  0.50424  0.16425  1.0000
  H   H476      1.0  0.96921  0.5677800000000002  0.22494  1.0000
  H   H477      1.0  0.8864400000000001  0.69056  0.24445  1.0000
  H   H478      1.0  0.7669900000000001  0.6217900000000002  0.18312  1.0000
  H   H479      1.0  0.046020000000000005  0.6733  0.25109  1.0000
  H   H480      1.0  0.009800000000000022  0.71392  0.29088  1.0000
  C   C1        1.0  0.33215999999999996  0.27295  0.7812799999999999  1.0000
  C   C2        1.0  0.26221  0.23574000000000012  0.74864  1.0000
  C   C3        1.0  0.24036000000000002  0.18727  0.74479  1.0000
  C   C4        1.0  0.28709  0.17430999999999996  0.77425  1.0000
  C   C5        1.0  0.35444000000000003  0.21130000000000004  0.80875  1.0000
  C   C6        1.0  0.37801000000000007  0.2608800000000001  0.81359  1.0000
  C   C7        1.0  0.44751  0.29873  0.85373  1.0000
  C   C8        1.0  0.558  0.42598  0.90642  1.0000
  C   C9        1.0  0.62488  0.4682500000000001  0.94994  1.0000
  C   C10       1.0  0.67259  0.4983700000000001  0.9322200000000002  1.0000
  C   C11       1.0  0.7059  0.4651200000000001  0.89711  1.0000
  C   C12       1.0  0.74904  0.49334  0.87557  1.0000
  C   C13       1.0  0.8131800000000001  0.54238  0.9181  1.0000
  C   C14       1.0  0.8597  0.5690700000000002  0.89718  1.0000
  C   C15       1.0  0.92156  0.61894  0.94096  1.0000
  C   C16       1.0  0.97529  0.6435  0.92269  1.0000
  C   C17       1.0  0.036110000000000024  0.6934400000000002  0.96758  1.0000
  C   C18       1.0  0.09961000000000013  0.7101300000000003  0.9522000000000002  1.0000
  C   C19       1.0  0.15997000000000003  0.76095  0.9958700000000001  1.0000
  C   C20       1.0  0.547  0.40294  0.77626  1.0000
  C   C21       1.0  0.58744  0.40058  0.74489  1.0000
  C   C22       1.0  0.5754899999999998  0.35270999999999997  0.7023399999999999  1.0000
  C   C23       1.0  0.52194  0.30903  0.69367  1.0000
  C   C24       1.0  0.4843199999999999  0.31441  0.72724  1.0000
  C   C25       1.0  0.6176900000000001  0.34749000000000013  0.66692  1.0000
  C   C26       1.0  0.7069900000000001  0.3411100000000001  0.95422  1.0000
  C   C27       1.0  0.74841  0.3162000000000001  0.92825  1.0000
  C   C28       1.0  0.8229000000000002  0.3359300000000001  0.9505600000000001  1.0000
  C   C29       1.0  0.8589100000000001  0.38124  0.99946  1.0000
  C   C30       1.0  0.81911  0.40644  0.0253  1.0000
  C   C31       1.0  0.74336  0.38741  0.00357  1.0000
  C   C32       1.0  0.70531  0.41585  0.03347  1.0000
  C   C33       1.0  0.53311  0.40727  0.02836  1.0000
  C   C34       1.0  0.49126  0.43149  0.05974  1.0000
  C   C35       1.0  0.48836  0.4153600000000001  0.10095  1.0000
  C   C36       1.0  0.45014000000000004  0.4432000000000001  0.13541  1.0000
  C   C37       1.0  0.4462  0.42724  0.17628  1.0000
  C   C38       1.0  0.4128899999999999  0.4576400000000001  0.21354  1.0000
  C   C39       1.0  0.40299  0.4385700000000001  0.25155  1.0000
  C   C40       1.0  0.3728  0.4706900000000001  0.29032  1.0000
  C   C41       1.0  0.3622900000000001  0.45268000000000025  0.32899  1.0000
  C   C42       1.0  0.33647  0.4874600000000001  0.36944  1.0000
  C   C43       1.0  0.32734  0.47020000000000006  0.40887  1.0000
  C   C44       1.0  0.30653000000000014  0.5072400000000002  0.45133  1.0000
  C   C45       1.0  0.3239699999999999  0.51498  0.79587  1.0000
  C   C46       1.0  0.30634000000000006  0.53845  0.7659800000000001  1.0000
  C   C47       1.0  0.3234  0.52724  0.72177  1.0000
  C   C48       1.0  0.36022  0.493  0.70619  1.0000
  C   C49       1.0  0.37813  0.46958  0.73495  1.0000
  C   C50       1.0  0.35979  0.47925  0.77934  1.0000
  C   C51       1.0  0.37515  0.44969  0.80473  1.0000
  C   C52       1.0  0.35235  0.43107000000000006  0.90481  1.0000
  C   C53       1.0  0.36949  0.40283  0.93309  1.0000
  C   C54       1.0  0.30456  0.37304  0.93946  1.0000
  C   C55       1.0  0.24960000000000002  0.3260900000000001  0.88814  1.0000
  C   C56       1.0  0.18424  0.29756  0.89597  1.0000
  C   C57       1.0  0.12997  0.25147  0.84668  1.0000
  C   C58       1.0  0.68767  0.36324  0.54605  1.0000
  C   C59       1.0  0.6553599999999999  0.36534999999999995  0.58201  1.0000
  C   C60       1.0  0.69627  0.39539000000000013  0.63531  1.0000
  C   C61       1.0  0.76941  0.42217000000000005  0.64979  1.0000
  C   C62       1.0  0.7978599999999996  0.41822000000000004  0.61146  1.0000
  C   C63       1.0  0.6623100000000001  0.39993  0.67513  1.0000
  C   C64       1.0  0.06041000000000009  0.5087600000000002  0.72731  1.0000
  C   C65       1.0  0.027719999999999998  0.5134  0.7645199999999999  1.0000
  C   C66       1.0  0.05436000000000011  0.5581100000000002  0.81299  1.0000
  C   C67       1.0  0.11376999999999998  0.60067  0.8257699999999999  1.0000
  C   C68       1.0  0.14386  0.59824  0.78865  1.0000
  C   C69       1.0  0.11793000000000012  0.5532300000000002  0.73914  1.0000
  C   C70       1.0  0.1492  0.5553  0.70112  1.0000
  C   C71       1.0  0.13161  0.48031000000000007  0.5737  1.0000
  C   C72       1.0  0.15601000000000007  0.4814000000000001  0.53134  1.0000
  C   C73       1.0  0.17403000000000005  0.43364000000000014  0.50137  1.0000
  C   C74       1.0  0.24061  0.43208000000000013  0.53479  1.0000
  C   C75       1.0  0.25586  0.3823200000000001  0.50672  1.0000
  C   C76       1.0  0.27105  0.37572  0.4577  1.0000
  C   C77       1.0  0.29092  0.32804000000000005  0.43093  1.0000
  C   C78       1.0  0.30286  0.32189  0.38105  1.0000
  C   C79       1.0  0.332  0.27898  0.35632  1.0000
  C   C80       1.0  0.3429  0.27393  0.30641  1.0000
  C   C81       1.0  0.38971  0.24182  0.28956  1.0000
  C   C82       1.0  0.39927  0.23472  0.23878  1.0000
  C   C83       1.0  0.14414000000000007  0.3731900000000002  0.597  1.0000
  C   C84       1.0  0.18688000000000002  0.34418000000000004  0.59941  1.0000
  C   C85       1.0  0.22261  0.34962  0.6473  1.0000
  C   C86       1.0  0.21261  0.38474  0.69095  1.0000
  C   C87       1.0  0.16967  0.4129300000000001  0.68552  1.0000
  C   C88       1.0  0.27000000000000013  0.31946000000000013  0.65255  1.0000
  C   C89       1.0  0.3653500000000001  0.6127800000000002  0.6583  1.0000
  C   C90       1.0  0.43161  0.61176  0.68327  1.0000
  C   C91       1.0  0.48663  0.61459  0.66379  1.0000
  C   C92       1.0  0.47764  0.61834  0.61865  1.0000
  C   C93       1.0  0.41269  0.6189  0.5934  1.0000
  C   C94       1.0  0.3557  0.61601  0.61217  1.0000
  C   C95       1.0  0.28914  0.6173200000000002  0.58369  1.0000
  C   C96       1.0  0.12563000000000005  0.62105  0.59261  1.0000
  C   C97       1.0  0.05974999999999998  0.62822  0.56829  1.0000
  C   C98       1.0  0.07307  0.68567  0.58457  1.0000
  C   C99       1.0  0.007050000000000067  0.69229  0.55687  1.0000
  C   C100      1.0  0.019059999999999983  0.74917  0.57282  1.0000
  C   C101      1.0  0.9553700000000003  0.7559200000000003  0.54241  1.0000
  C   C102      1.0  0.9644600000000001  0.8130500000000003  0.56145  1.0000
  C   C103      1.0  0.9021499999999999  0.8195700000000002  0.52932  1.0000
  C   C104      1.0  0.9095500000000001  0.8762900000000005  0.54729  1.0000
  C   C105      1.0  0.84898  0.8818300000000002  0.51248  1.0000
  C   C106      1.0  0.8570400000000001  0.93857  0.5297  1.0000
  C   C107      1.0  0.7992500000000001  0.9438400000000002  0.49262999999999996  1.0000
  C   C108      1.0  0.8095  0.28094  0.48482  1.0000
  C   C109      1.0  0.76813  0.22756000000000007  0.46133  1.0000
  C   C110      1.0  0.79597  0.19447999999999996  0.47264  1.0000
  C   C111      1.0  0.86692  0.21304999999999996  0.50688  1.0000
  C   C112      1.0  0.9084600000000002  0.26527  0.53038  1.0000
  C   C113      1.0  0.8808000000000001  0.3001  0.52074  1.0000
  C   C114      1.0  0.92568  0.35515  0.55048  1.0000
  C   C115      1.0  0.9218499999999998  0.4739700000000001  0.56923  1.0000
  C   C116      1.0  0.96692  0.5306100000000002  0.59739  1.0000
  C   C117      1.0  0.9316799999999998  0.56678  0.62721  1.0000
  C   C118      1.0  0.9234599999999998  0.56231  0.67402  1.0000
  C   C119      1.0  0.8865899999999999  0.59868  0.70268  1.0000
  C   C120      1.0  0.87836  0.59544  0.7487  1.0000
  C   C121      1.0  0.32464  0.18303000000000008  0.63704  1.0000
  C   C122      1.0  0.29008  0.21679000000000004  0.63487  1.0000
  C   C123      1.0  0.30084  0.23986999999999994  0.60476  1.0000
  C   C124      1.0  0.34726  0.22759  0.57798  1.0000
  C   C125      1.0  0.37976  0.19327000000000003  0.58197  1.0000
  C   C126      1.0  0.26223  0.2750400000000001  0.60015  1.0000
  C   C127      1.0  0.55097  0.2185200000000001  0.49165  1.0000
  C   C128      1.0  0.51371  0.25116  0.48713  1.0000
  C   C129      1.0  0.49571  0.2549  0.44248  1.0000
  C   C130      1.0  0.51255  0.22507000000000005  0.39987  1.0000
  C   C131      1.0  0.54519  0.19045  0.40223  1.0000
  C   C132      1.0  0.56411  0.18589  0.44713  1.0000
  C   C133      1.0  0.59364  0.14592000000000005  0.44503000000000004  1.0000
  C   C134      1.0  0.65206  0.09380000000000001  0.51982  1.0000
  C   C135      1.0  0.67511  0.05013000000000001  0.5185  1.0000
  C   C136      1.0  0.74055  0.06781000000000005  0.56632  1.0000
  C   C137      1.0  0.8088499999999998  0.10278999999999995  0.56807  1.0000
  C   C138      1.0  0.8736299999999999  0.12447  0.61786  1.0000
  C   C139      1.0  0.8952  0.08194000000000007  0.62432  1.0000
  C   C140      1.0  0.96266  0.10288  0.67198  1.0000
  C   C141      1.0  0.9807500000000001  0.05912999999999995  0.67803  1.0000
  C   C142      1.0  0.052739999999999995  0.07738  0.7209  1.0000
  C   C143      1.0  0.06863999999999999  0.03249999999999997  0.72593  1.0000
  C   C144      1.0  0.14750000000000002  0.04782000000000004  0.75801  1.0000
  C   C145      1.0  0.16413  0.004150000000000013  0.7651  1.0000
  C   C146      1.0  0.7709300000000002  0.22416  0.62695  1.0000
  C   C147      1.0  0.8427299999999999  0.25544999999999995  0.6558799999999999  1.0000
  C   C148      1.0  0.8732599999999999  0.2978700000000001  0.65051  1.0000
  C   C149      1.0  0.8283000000000001  0.30645  0.61546  1.0000
  C   C150      1.0  0.75711  0.27295  0.58735  1.0000
  C   C151      1.0  0.9508800000000001  0.3331900000000001  0.68063  1.0000
  C   C152      1.0  0.7524399999999999  0.04541999999999996  0.38727999999999996  1.0000
  C   C153      1.0  0.81968  0.07119000000000003  0.38809  1.0000
  C   C154      1.0  0.8717799999999999  0.04876  0.38535  1.0000
  C   C155      1.0  0.85897  0.99994  0.38178  1.0000
  C   C156      1.0  0.79335  0.97419  0.38111  1.0000
  C   C157      1.0  0.7394  0.996  0.38396  1.0000
  C   C158      1.0  0.6713699999999999  0.9660199999999999  0.38222  1.0000
  C   C159      1.0  0.5043699999999999  0.9713900000000001  0.37893  1.0000
  C   C160      1.0  0.43124000000000007  0.9399600000000001  0.37171  1.0000
  C   C161      1.0  0.3871100000000001  0.8987400000000002  0.31425  1.0000
  C   C162      1.0  0.3145  0.86441  0.30764  1.0000
  C   C163      1.0  0.2696600000000001  0.8234400000000002  0.25076  1.0000
  C   C164      1.0  0.1992000000000001  0.7863400000000003  0.244  1.0000
  C   C165      1.0  0.1511800000000001  0.7482300000000002  0.18688  1.0000
  C   C166      1.0  0.08234000000000001  0.70964  0.18038  1.0000
  C   C167      1.0  0.03306999999999995  0.67088  0.12367  1.0000
  C   C168      1.0  0.96693  0.6305400000000001  0.11808  1.0000
  C   C169      1.0  0.9183300000000001  0.59103  0.06132  1.0000
  C   C170      1.0  0.85519  0.54864  0.05592  1.0000
  C   C171      1.0  0.52844  0.20428999999999994  0.71943  1.0000
  C   C172      1.0  0.54077  0.23414000000000004  0.7729  1.0000
  C   C173      1.0  0.6018399999999999  0.27848  0.80589  1.0000
  C   C174      1.0  0.65404  0.29409  0.78718  1.0000
  C   C175      1.0  0.64315  0.26532  0.7349  1.0000
  C   C176      1.0  0.5805400000000001  0.22089000000000011  0.70018  1.0000
  C   C177      1.0  0.57052  0.19554999999999997  0.64518  1.0000
  C   C178      1.0  0.44798999999999994  0.09526000000000001  0.52638  1.0000
  C   C179      1.0  0.43647  0.06695  0.46973  1.0000
  C   C180      1.0  0.36511999999999994  0.060569999999999985  0.43359  1.0000
  C   C181      1.0  0.36141  0.11184  0.43796  1.0000
  C   C182      1.0  0.28822  0.10396  0.40154  1.0000
  C   C183      1.0  0.28316  0.1532  0.40474  1.0000
  C   C184      1.0  0.1419  0.45409  0.81727  1.0000
  C   C185      1.0  0.0736400000000001  0.41816000000000014  0.78333  1.0000
  C   C186      1.0  0.06119000000000002  0.36487  0.76014  1.0000
  C   C187      1.0  0.11973999999999994  0.35028  0.77243  1.0000
  C   C188      1.0  0.18650000000000003  0.38853  0.80688  1.0000
  C   C189      1.0  0.9873799999999999  0.32512  0.72491  1.0000
  C   C190      1.0  0.6678299999999999  0.72705  0.21872  1.0000
  C   C191      1.0  0.73779  0.76425  0.25136  1.0000
  C   C192      1.0  0.75964  0.81272  0.25521  1.0000
  C   C193      1.0  0.71291  0.8256800000000002  0.22575  1.0000
  C   C194      1.0  0.6455600000000001  0.7887000000000002  0.19124  1.0000
  C   C195      1.0  0.62199  0.73911  0.18641  1.0000
  C   C196      1.0  0.55249  0.70127  0.14627  1.0000
  C   C197      1.0  0.442  0.5740100000000001  0.09357  1.0000
  C   C198      1.0  0.37511  0.53174  0.05006  1.0000
  C   C199      1.0  0.32741  0.50163  0.06777  1.0000
  C   C200      1.0  0.2941  0.53488  0.10289  1.0000
  C   C201      1.0  0.25096  0.50665  0.12443  1.0000
  C   C202      1.0  0.18682000000000004  0.45761  0.08190000000000001  1.0000
  C   C203      1.0  0.14029  0.43092  0.10282  1.0000
  C   C204      1.0  0.07843  0.3810600000000001  0.05904  1.0000
  C   C205      1.0  0.024709999999999968  0.35649  0.07731  1.0000
  C   C206      1.0  0.9638900000000001  0.30656  0.03242  1.0000
  C   C207      1.0  0.90038  0.28987  0.04780000000000001  1.0000
  C   C208      1.0  0.8400199999999999  0.23904000000000006  0.00413  1.0000
  C   C209      1.0  0.453  0.59706  0.22374  1.0000
  C   C210      1.0  0.4125599999999999  0.59942  0.25511  1.0000
  C   C211      1.0  0.42451  0.64729  0.29766  1.0000
  C   C212      1.0  0.47806  0.69096  0.30633  1.0000
  C   C213      1.0  0.5156800000000001  0.6855900000000001  0.27276  1.0000
  C   C214      1.0  0.3823199999999999  0.6525  0.33308  1.0000
  C   C215      1.0  0.29301  0.65888  0.04578  1.0000
  C   C216      1.0  0.25159000000000004  0.6837899999999999  0.07175  1.0000
  C   C217      1.0  0.1771  0.66406  0.04943  1.0000
  C   C218      1.0  0.14109  0.6187600000000001  0.00053  1.0000
  C   C219      1.0  0.18089000000000002  0.59355  0.9747  1.0000
  C   C220      1.0  0.25663000000000014  0.6125900000000002  0.99643  1.0000
  C   C221      1.0  0.29467999999999994  0.58414  0.96652  1.0000
  C   C222      1.0  0.46688999999999997  0.59273  0.97164  1.0000
  C   C223      1.0  0.5087400000000002  0.5685000000000002  0.94026  1.0000
  C   C224      1.0  0.51164  0.5846300000000002  0.89904  1.0000
  C   C225      1.0  0.54986  0.5568  0.86459  1.0000
  C   C226      1.0  0.5538  0.57276  0.82372  1.0000
  C   C227      1.0  0.58711  0.54235  0.78646  1.0000
  C   C228      1.0  0.597  0.5614200000000003  0.74845  1.0000
  C   C229      1.0  0.6272  0.5293  0.70968  1.0000
  C   C230      1.0  0.6377000000000002  0.5473100000000002  0.67101  1.0000
  C   C231      1.0  0.66353  0.51253  0.63056  1.0000
  C   C232      1.0  0.6726599999999999  0.5297999999999999  0.59112  1.0000
  C   C233      1.0  0.69347  0.49276000000000003  0.54867  1.0000
  C   C234      1.0  0.67602  0.48501  0.20413  1.0000
  C   C235      1.0  0.69366  0.46155  0.23402  1.0000
  C   C236      1.0  0.67659  0.47275  0.27823  1.0000
  C   C237      1.0  0.63978  0.50699  0.29381  1.0000
  C   C238      1.0  0.62187  0.53041  0.26504  1.0000
  C   C239      1.0  0.6402  0.52074  0.22066  1.0000
  C   C240      1.0  0.62485  0.55031  0.19527  1.0000
  C   C241      1.0  0.64765  0.56892  0.09518999999999998  1.0000
  C   C242      1.0  0.63051  0.59717  0.06691  1.0000
  C   C243      1.0  0.69543  0.62696  0.06054  1.0000
  C   C244      1.0  0.7504000000000001  0.6739100000000002  0.11186000000000001  1.0000
  C   C245      1.0  0.8157600000000002  0.70243  0.10402999999999998  1.0000
  C   C246      1.0  0.8700199999999999  0.74853  0.15332  1.0000
  C   C247      1.0  0.31233  0.63676  0.45395  1.0000
  C   C248      1.0  0.34465  0.63465  0.41799  1.0000
  C   C249      1.0  0.30373  0.60461  0.36469  1.0000
  C   C250      1.0  0.23059000000000002  0.5778200000000001  0.35021  1.0000
  C   C251      1.0  0.20214  0.58178  0.38854  1.0000
  C   C252      1.0  0.33769  0.60007  0.32487  1.0000
  C   C253      1.0  0.93959  0.49124000000000023  0.27269  1.0000
  C   C254      1.0  0.97227  0.4866  0.23548  1.0000
  C   C255      1.0  0.9456399999999999  0.44188  0.18701000000000004  1.0000
  C   C256      1.0  0.88623  0.39932  0.17423  1.0000
  C   C257      1.0  0.8561300000000001  0.40176  0.21134  1.0000
  C   C258      1.0  0.88207  0.44676  0.26085  1.0000
  C   C259      1.0  0.8507999999999999  0.44469000000000003  0.29888  1.0000
  C   C260      1.0  0.8683900000000001  0.51968  0.4263  1.0000
  C   C261      1.0  0.8439899999999999  0.51859  0.46866  1.0000
  C   C262      1.0  0.8259600000000001  0.5663600000000002  0.4986300000000001  1.0000
  C   C263      1.0  0.75939  0.56791  0.46521  1.0000
  C   C264      1.0  0.74413  0.61767  0.49327  1.0000
  C   C265      1.0  0.72895  0.62427  0.5423  1.0000
  C   C266      1.0  0.70908  0.67195  0.56907  1.0000
  C   C267      1.0  0.69714  0.6781000000000003  0.61895  1.0000
  C   C268      1.0  0.6680000000000001  0.72101  0.64367  1.0000
  C   C269      1.0  0.6571000000000001  0.7260600000000001  0.69359  1.0000
  C   C270      1.0  0.61029  0.7581800000000001  0.71044  1.0000
  C   C271      1.0  0.6007300000000001  0.7652700000000002  0.76122  1.0000
  C   C272      1.0  0.8558600000000001  0.6268000000000002  0.403  1.0000
  C   C273      1.0  0.81312  0.65582  0.40059000000000006  1.0000
  C   C274      1.0  0.77739  0.65037  0.3527  1.0000
  C   C275      1.0  0.7873899999999999  0.61525  0.30905  1.0000
  C   C276      1.0  0.83033  0.58706  0.31448  1.0000
  C   C277      1.0  0.73  0.68054  0.34745  1.0000
  C   C278      1.0  0.63465  0.38721  0.3417  1.0000
  C   C279      1.0  0.56839  0.38823  0.31673  1.0000
  C   C280      1.0  0.51337  0.3854  0.33621  1.0000
  C   C281      1.0  0.52236  0.3816600000000001  0.38135  1.0000
  C   C282      1.0  0.5873100000000001  0.38109000000000004  0.4066  1.0000
  C   C283      1.0  0.6443  0.38398  0.38783  1.0000
  C   C284      1.0  0.71085  0.3826700000000001  0.41631  1.0000
  C   C285      1.0  0.8743700000000003  0.3789500000000001  0.40739  1.0000
  C   C286      1.0  0.94025  0.37178  0.43171  1.0000
  C   C287      1.0  0.9269300000000001  0.31433  0.41543  1.0000
  C   C288      1.0  0.99295  0.30771  0.44313  1.0000
  C   C289      1.0  0.98094  0.25082000000000004  0.42717999999999995  1.0000
  C   C290      1.0  0.04462000000000002  0.24408000000000002  0.45759000000000005  1.0000
  C   C291      1.0  0.03554000000000002  0.18694000000000005  0.43855  1.0000
  C   C292      1.0  0.09785000000000002  0.18043000000000003  0.47068  1.0000
  C   C293      1.0  0.09044999999999999  0.12371  0.45271  1.0000
  C   C294      1.0  0.15101  0.11816000000000002  0.48751999999999995  1.0000
  C   C295      1.0  0.14295  0.06142999999999998  0.4703  1.0000
  C   C296      1.0  0.20075000000000004  0.056149999999999985  0.50737  1.0000
  C   C297      1.0  0.19050000000000003  0.71905  0.51518  1.0000
  C   C298      1.0  0.23186999999999997  0.77243  0.53867  1.0000
  C   C299      1.0  0.20402  0.80551  0.52736  1.0000
  C   C300      1.0  0.13308  0.78695  0.49311  1.0000
  C   C301      1.0  0.09153000000000004  0.7347200000000002  0.46962  1.0000
  C   C302      1.0  0.1192  0.6998900000000002  0.47926  1.0000
  C   C303      1.0  0.07432000000000002  0.64485  0.44952  1.0000
  C   C304      1.0  0.07814000000000003  0.52603  0.43077000000000004  1.0000
  C   C305      1.0  0.03307999999999995  0.4693899999999999  0.40260999999999997  1.0000
  C   C306      1.0  0.06831  0.43322  0.37279  1.0000
  C   C307      1.0  0.07654000000000005  0.43769000000000013  0.32598  1.0000
  C   C308      1.0  0.11341000000000004  0.4013100000000001  0.29732  1.0000
  C   C309      1.0  0.12163999999999998  0.40455  0.2513  1.0000
  C   C310      1.0  0.67535  0.81696  0.36296000000000006  1.0000
  C   C311      1.0  0.70991  0.7832  0.36513  1.0000
  C   C312      1.0  0.69916  0.7601199999999999  0.39524  1.0000
  C   C313      1.0  0.6527500000000002  0.7724200000000001  0.42203  1.0000
  C   C314      1.0  0.62025  0.80674  0.4180499999999999  1.0000
  C   C315      1.0  0.73776  0.72495  0.39984  1.0000
  C   C316      1.0  0.44903  0.78148  0.50835  1.0000
  C   C317      1.0  0.4863100000000001  0.74885  0.51287  1.0000
  C   C318      1.0  0.50432  0.74511  0.55752  1.0000
  C   C319      1.0  0.48748  0.77493  0.60013  1.0000
  C   C320      1.0  0.45481000000000005  0.8095500000000002  0.59776  1.0000
  C   C321      1.0  0.43588000000000005  0.8141  0.55287  1.0000
  C   C322      1.0  0.40633  0.85406  0.55496  1.0000
  C   C323      1.0  0.3479300000000001  0.9062000000000001  0.48017  1.0000
  C   C324      1.0  0.32489  0.9498600000000003  0.48149999999999993  1.0000
  C   C325      1.0  0.25945000000000007  0.9321900000000002  0.43367  1.0000
  C   C326      1.0  0.19115  0.89721  0.43193  1.0000
  C   C327      1.0  0.1263700000000001  0.87552  0.38214  1.0000
  C   C328      1.0  0.1048000000000001  0.9180500000000003  0.37568  1.0000
  C   C329      1.0  0.037340000000000116  0.8971100000000004  0.32802  1.0000
  C   C330      1.0  0.019249999999999955  0.94087  0.32197  1.0000
  C   C331      1.0  0.9472500000000001  0.9226200000000001  0.2791  1.0000
  C   C332      1.0  0.93136  0.9674900000000002  0.27407  1.0000
  C   C333      1.0  0.8525000000000001  0.9521800000000001  0.24199000000000004  1.0000
  C   C334      1.0  0.83587  0.99585  0.23489  1.0000
  C   C335      1.0  0.22905000000000006  0.77584  0.37305  1.0000
  C   C336      1.0  0.1572600000000001  0.7445500000000004  0.34410999999999997  1.0000
  C   C337      1.0  0.12673  0.70212  0.34949  1.0000
  C   C338      1.0  0.17168999999999998  0.69354  0.3845299999999999  1.0000
  C   C339      1.0  0.24289  0.72705  0.4126500000000001  1.0000
  C   C340      1.0  0.04911999999999999  0.6668  0.31936  1.0000
  C   C341      1.0  0.24756000000000003  0.9545700000000001  0.61272  1.0000
  C   C342      1.0  0.18031  0.9287999999999998  0.61191  1.0000
  C   C343      1.0  0.12822000000000003  0.9512400000000002  0.61465  1.0000
  C   C344      1.0  0.14103  6.000000000001617e-05  0.61822  1.0000
  C   C345      1.0  0.20664999999999997  0.025809999999999996  0.61889  1.0000
  C   C346      1.0  0.26059  0.00398999999999997  0.61603  1.0000
  C   C347      1.0  0.32862000000000013  0.033969999999999986  0.61778  1.0000
  C   C348      1.0  0.49562000000000006  0.0286  0.62107  1.0000
  C   C349      1.0  0.5687500000000001  0.06003000000000005  0.6282900000000001  1.0000
  C   C350      1.0  0.61288  0.10125000000000002  0.68575  1.0000
  C   C351      1.0  0.68549  0.13559000000000004  0.69235  1.0000
  C   C352      1.0  0.73034  0.17656  0.74924  1.0000
  C   C353      1.0  0.8008  0.21366  0.756  1.0000
  C   C354      1.0  0.8488099999999998  0.25177000000000005  0.8131200000000001  1.0000
  C   C355      1.0  0.91765  0.2903600000000001  0.8196200000000001  1.0000
  C   C356      1.0  0.96693  0.32911000000000007  0.8763300000000002  1.0000
  C   C357      1.0  0.03306999999999999  0.36944999999999995  0.88192  1.0000
  C   C358      1.0  0.08167  0.40897  0.93868  1.0000
  C   C359      1.0  0.14481  0.45135  0.94408  1.0000
  C   C360      1.0  0.47155  0.7957000000000002  0.28056  1.0000
  C   C361      1.0  0.45921999999999996  0.76585  0.2271  1.0000
  C   C362      1.0  0.39815  0.72152  0.1941  1.0000
  C   C363      1.0  0.34595  0.7059  0.21282000000000004  1.0000
  C   C364      1.0  0.35684  0.73467  0.2651  1.0000
  C   C365      1.0  0.4194500000000001  0.7791000000000002  0.29981  1.0000
  C   C366      1.0  0.42947  0.80444  0.35482  1.0000
  C   C367      1.0  0.552  0.9047300000000003  0.47361  1.0000
  C   C368      1.0  0.5635300000000001  0.9330400000000002  0.53027  1.0000
  C   C369      1.0  0.63488  0.93942  0.56641  1.0000
  C   C370      1.0  0.63856  0.88814  0.56206  1.0000
  C   C371      1.0  0.71176  0.89601  0.59846  1.0000
  C   C372      1.0  0.7167900000000001  0.8467500000000002  0.59523  1.0000
  C   C373      1.0  0.8581  0.54591  0.18272  1.0000
  C   C374      1.0  0.9263499999999999  0.58183  0.21667  1.0000
  C   C375      1.0  0.9387999999999999  0.63512  0.23986  1.0000
  C   C376      1.0  0.88025  0.64971  0.22757  1.0000
  C   C377      1.0  0.8134900000000002  0.61147  0.19312000000000004  1.0000
  C   C378      1.0  0.012609999999999991  0.67488  0.27509  1.0000
  N   N1        1.0  0.47207999999999994  0.3463  0.85988  1.0000
  N   N2        1.0  0.53856  0.379  0.90066  1.0000
  N   N3        1.0  0.49641  0.36076  0.76814  1.0000
  N   N4        1.0  0.63306  0.39839  0.01445  1.0000
  N   N5        1.0  0.6036  0.42781  0.048  1.0000
  N   N6        1.0  0.35701000000000005  0.4561600000000001  0.84611  1.0000
  N   N7        1.0  0.37242  0.4236  0.86489  1.0000
  N   N8        1.0  0.758  0.3895200000000001  0.56038  1.0000
  N   N9        1.0  0.12576999999999994  0.51381  0.65347  1.0000
  N   N10       1.0  0.15913999999999998  0.52178  0.62059  1.0000
  N   N11       1.0  0.13562000000000002  0.40738  0.63915  1.0000
  N   N12       1.0  0.23446  0.61589  0.60132  1.0000
  N   N13       1.0  0.1754900000000001  0.6198400000000002  0.57196  1.0000
  N   N14       1.0  0.90133  0.39009  0.54391  1.0000
  N   N15       1.0  0.9492899999999999  0.44151000000000007  0.57669  1.0000
  N   N16       1.0  0.36864  0.17100000000000007  0.61068  1.0000
  N   N17       1.0  0.6119300000000001  0.13987000000000002  0.48650000000000004  1.0000
  N   N18       1.0  0.63762  0.09906999999999999  0.47836999999999996  1.0000
  N   N19       1.0  0.72834  0.23221  0.59289  1.0000
  N   N20       1.0  0.61821  0.98515  0.38389  1.0000
  N   N21       1.0  0.5552100000000001  0.9517100000000004  0.37969  1.0000
  N   N22       1.0  0.51133  0.15394  0.61023  1.0000
  N   N23       1.0  0.50801  0.13515  0.55883  1.0000
  N   N24       1.0  0.19775  0.43962  0.82929  1.0000
  N   N25       1.0  0.5279100000000001  0.6536900000000002  0.14012  1.0000
  N   N26       1.0  0.46143  0.6210000000000002  0.09934  1.0000
  N   N27       1.0  0.50359  0.63923  0.23186  1.0000
  N   N28       1.0  0.36694  0.6016000000000002  0.98554  1.0000
  N   N29       1.0  0.3964  0.5721900000000002  0.952  1.0000
  N   N30       1.0  0.64299  0.5438400000000001  0.15389  1.0000
  N   N31       1.0  0.6275799999999999  0.57639  0.13511  1.0000
  N   N32       1.0  0.242  0.6104800000000001  0.43962  1.0000
  N   N33       1.0  0.87423  0.4861900000000002  0.34653  1.0000
  N   N34       1.0  0.8408599999999999  0.47821  0.37941  1.0000
  N   N35       1.0  0.8643800000000001  0.59262  0.36085  1.0000
  N   N36       1.0  0.76554  0.38411  0.39868000000000003  1.0000
  N   N37       1.0  0.8245  0.38016  0.42804  1.0000
  N   N38       1.0  0.09865999999999994  0.6099100000000001  0.45608999999999994  1.0000
  N   N39       1.0  0.05071000000000012  0.5584900000000003  0.42330000000000007  1.0000
  N   N40       1.0  0.6313700000000001  0.8290100000000001  0.38933  1.0000
  N   N41       1.0  0.3880599999999999  0.86012  0.51349  1.0000
  N   N42       1.0  0.36238000000000004  0.9009200000000002  0.52162  1.0000
  N   N43       1.0  0.27165000000000006  0.7677900000000002  0.4071  1.0000
  N   N44       1.0  0.38178  0.014839999999999997  0.61611  1.0000
  N   N45       1.0  0.44478  0.04828000000000002  0.6203  1.0000
  N   N46       1.0  0.48866  0.84605  0.38977  1.0000
  N   N47       1.0  0.4919799999999999  0.86484  0.44116  1.0000
  N   N48       1.0  0.8022399999999998  0.56037  0.1707  1.0000
  O   O1        1.0  0.35026999999999997  0.31682000000000005  0.7796000000000001  1.0000
  O   O2        1.0  0.48409  0.28631999999999996  0.8843399999999999  1.0000
  O   O3        1.0  0.51911  0.43713  0.87536  1.0000
  O   O4        1.0  0.6356400000000001  0.31935000000000013  0.93058  1.0000
  O   O5        1.0  0.7412  0.45766  0.07796000000000002  1.0000
  O   O6        1.0  0.49904  0.36471  0.98262  1.0000
  O   O7        1.0  0.30562  0.52789  0.83765  1.0000
  O   O8        1.0  0.4048999999999999  0.41607  0.78612  1.0000
  O   O9        1.0  0.3197699999999999  0.46376999999999996  0.9213999999999999  1.0000
  O   O10       1.0  0.03495000000000004  0.46295  0.68366  1.0000
  O   O11       1.0  0.19833999999999996  0.59827  0.71351  1.0000
  O   O12       1.0  0.08175000000000002  0.43807  0.56278  1.0000
  O   O13       1.0  0.31559  0.61065  0.67992  1.0000
  O   O14       1.0  0.28304  0.6198  0.54183  1.0000
  O   O15       1.0  0.1338800000000001  0.6181100000000003  0.63522  1.0000
  O   O16       1.0  0.77877  0.30988  0.47171  1.0000
  O   O17       1.0  0.9887  0.3701800000000001  0.58442  1.0000
  O   O18       1.0  0.85676  0.4577500000000001  0.53633  1.0000
  O   O19       1.0  0.57133  0.22068  0.5374  1.0000
  O   O20       1.0  0.60012  0.11537000000000006  0.40209  1.0000
  O   O21       1.0  0.64505  0.12544000000000005  0.56226  1.0000
  O   O22       1.0  0.70489  0.06925000000000003  0.38946000000000003  1.0000
  O   O23       1.0  0.66266  0.9214200000000002  0.37918  1.0000
  O   O24       1.0  0.51599  0.017190000000000004  0.38237  1.0000
  O   O25       1.0  0.46840999999999994  0.16246  0.69053  1.0000
  O   O26       1.0  0.61867  0.2145  0.63028  1.0000
  O   O27       1.0  0.39911  0.07871  0.54265  1.0000
  O   O28       1.0  0.6497299999999999  0.68317  0.2204  1.0000
  O   O29       1.0  0.5159  0.71368  0.11566  1.0000
  O   O30       1.0  0.48089  0.56286  0.12464000000000001  1.0000
  O   O31       1.0  0.36436000000000013  0.6806500000000002  0.06942  1.0000
  O   O32       1.0  0.2588  0.5423300000000002  0.9220400000000001  1.0000
  O   O33       1.0  0.50095  0.63528  0.01738  1.0000
  O   O34       1.0  0.69437  0.4721  0.16235  1.0000
  O   O35       1.0  0.5951  0.58392  0.21388  1.0000
  O   O36       1.0  0.6802300000000001  0.5362200000000003  0.0786  1.0000
  O   O37       1.0  0.9650499999999999  0.5370400000000002  0.31634  1.0000
  O   O38       1.0  0.80166  0.40172000000000013  0.28649  1.0000
  O   O39       1.0  0.9182500000000002  0.5619200000000003  0.43722000000000005  1.0000
  O   O40       1.0  0.68441  0.38935  0.3200799999999999  1.0000
  O   O41       1.0  0.71696  0.3802  0.45817  1.0000
  O   O42       1.0  0.8661200000000001  0.3818800000000001  0.36477  1.0000
  O   O43       1.0  0.22122  0.69012  0.52829  1.0000
  O   O44       1.0  0.011299999999999972  0.62981  0.41557  1.0000
  O   O45       1.0  0.14324000000000006  0.5422400000000003  0.46367  1.0000
  O   O46       1.0  0.4286899999999999  0.7793399999999999  0.4626  1.0000
  O   O47       1.0  0.3998200000000002  0.8846000000000005  0.59789  1.0000
  O   O48       1.0  0.35494999999999993  0.8745600000000001  0.43774  1.0000
  O   O49       1.0  0.29511000000000004  0.93074  0.61054  1.0000
  O   O50       1.0  0.33733  0.07857  0.62082  1.0000
  O   O51       1.0  0.48401  0.98281  0.61763  1.0000
  O   O52       1.0  0.5315799999999999  0.8375299999999999  0.30947  1.0000
  O   O53       1.0  0.38132  0.7855  0.36971  1.0000
  O   O54       1.0  0.60088  0.9212900000000003  0.45735999999999993  1.0000
