data_image0
_chemical_formula_structural       Zn16H224C360O56
_chemical_formula_sum              "Zn16 H224 C360 O56"
_cell_length_a       15.20256
_cell_length_b       24.24371
_cell_length_c       32.68673
_cell_angle_alpha    73.70844
_cell_angle_beta     76.61173
_cell_angle_gamma    71.73319

_space_group_name_H-M_alt    "P 1"
_space_group_IT_number       1

loop_
  _space_group_symop_operation_xyz
  'x, y, z'

loop_
  _atom_site_type_symbol
  _atom_site_label
  _atom_site_symmetry_multiplicity
  _atom_site_fract_x
  _atom_site_fract_y
  _atom_site_fract_z
  _atom_site_occupancy
  Zn  Zn1       1.0  0.59144  0.5936100000000001  0.9923099999999998  1.0000
  Zn  Zn2       1.0  0.9350600000000007  0.91029  0.6516899999999998  1.0000
  Zn  Zn3       1.0  0.08698000000000003  0.8218299999999998  0.60653  1.0000
  Zn  Zn4       1.0  0.5218  0.51278  0.94795  1.0000
  Zn  Zn5       1.0  0.17616000000000007  0.9069299999999999  0.50788  1.0000
  Zn  Zn6       1.0  0.4972800000000001  0.5897499999999998  0.84824  1.0000
  Zn  Zn7       1.0  0.5158699999999999  0.6786200000000001  0.8931  1.0000
  Zn  Zn8       1.0  0.9830600000000003  0.9872699999999999  0.55212  1.0000
  Zn  Zn9       1.0  0.40855  0.40639  0.007689999999999998  1.0000
  Zn  Zn10      1.0  0.06492999999999996  0.08971000000000001  0.34831  1.0000
  Zn  Zn11      1.0  0.9130100000000003  0.17817000000000005  0.3934699999999999  1.0000
  Zn  Zn12      1.0  0.47819  0.48721999999999993  0.05205  1.0000
  Zn  Zn13      1.0  0.82383  0.09307000000000007  0.4921199999999999  1.0000
  Zn  Zn14      1.0  0.50271  0.41025  0.15177  1.0000
  Zn  Zn15      1.0  0.48412000000000016  0.32138  0.10689999999999997  1.0000
  Zn  Zn16      1.0  0.016929999999999987  0.012730000000000007  0.44788  1.0000
  H   H1        1.0  0.35876  0.57386  0.74494  1.0000
  H   H2        1.0  0.5930400000000001  0.4681  0.67407  1.0000
  H   H3        1.0  0.19443000000000005  0.4546299999999999  0.73436  1.0000
  H   H4        1.0  0.04279999999999998  0.46151  0.78286  1.0000
  H   H5        1.0  0.13174000000000005  0.5455699999999999  0.86006  1.0000
  H   H6        1.0  0.28464000000000017  0.5365800000000001  0.8125599999999997  1.0000
  H   H7        1.0  0.9625500000000001  0.42850000000000005  0.8501299999999998  1.0000
  H   H8        1.0  0.8014400000000004  0.4460600000000001  0.8928  1.0000
  H   H9        1.0  0.8174200000000004  0.6158  0.90212  1.0000
  H   H10       1.0  0.9771800000000002  0.59884  0.85941  1.0000
  H   H11       1.0  0.4781199999999999  0.5981000000000001  0.7597799999999998  1.0000
  H   H12       1.0  0.5784300000000003  0.6645100000000002  0.7486099999999998  1.0000
  H   H13       1.0  0.7025399999999996  0.62518  0.62392  1.0000
  H   H14       1.0  0.6033000000000005  0.55761  0.6358599999999998  1.0000
  H   H15       1.0  0.6237899999999998  0.7462500000000001  0.71915  1.0000
  H   H16       1.0  0.73374  0.8082899999999998  0.7070399999999998  1.0000
  H   H17       1.0  0.9342800000000001  0.69789  0.6272899999999998  1.0000
  H   H18       1.0  0.8252200000000002  0.6352200000000002  0.6390899999999998  1.0000
  H   H19       1.0  0.6327200000000001  0.40653  0.638  1.0000
  H   H20       1.0  0.7208500000000002  0.3101600000000001  0.6218799999999998  1.0000
  H   H21       1.0  0.50649  0.23114999999999994  0.70425  1.0000
  H   H22       1.0  0.42147000000000007  0.3263400000000001  0.7231299999999998  1.0000
  H   H23       1.0  0.74548  0.23727000000000004  0.5907  1.0000
  H   H24       1.0  0.84289  0.13861  0.57888  1.0000
  H   H25       1.0  0.72151  0.05423999999999998  0.70387  1.0000
  H   H26       1.0  0.6265499999999999  0.15264000000000003  0.7169  1.0000
  H   H27       1.0  0.34531  0.40699  0.72969  1.0000
  H   H28       1.0  0.34737  0.221  0.14374  1.0000
  H   H29       1.0  0.28064  0.14301  0.05611999999999999  1.0000
  H   H30       1.0  0.49785  0.04185000000000001  0.13315999999999995  1.0000
  H   H31       1.0  0.61953  0.08215  0.13479  1.0000
  H   H32       1.0  0.72555  0.08356  0.18104  1.0000
  H   H33       1.0  0.48957  0.17588000000000004  0.2602099999999999  1.0000
  H   H34       1.0  0.38428  0.17707  0.21271  1.0000
  H   H35       1.0  0.78082  0.050020000000000016  0.24108  1.0000
  H   H36       1.0  0.8923500000000004  0.055810000000000005  0.28342999999999996  1.0000
  H   H37       1.0  0.70438  0.21850999999999995  0.31241  1.0000
  H   H38       1.0  0.5955900000000004  0.21577  0.26759  1.0000
  H   H39       1.0  0.1568200000000001  0.22092999999999996  0.15865  1.0000
  H   H40       1.0  0.010670000000000028  0.30081  0.14694999999999994  1.0000
  H   H41       1.0  0.12077000000000002  0.3474  0.01181  1.0000
  H   H42       1.0  0.26681  0.26691  0.02375  1.0000
  H   H43       1.0  0.022019999999999987  0.44052  0.02407  1.0000
  H   H44       1.0  0.8659600000000001  0.51018  0.01046  1.0000
  H   H45       1.0  0.7292900000000001  0.3866  0.10386  1.0000
  H   H46       1.0  0.8830600000000001  0.3172  0.11741  1.0000
  H   H47       1.0  0.26622  0.05473  0.06107999999999999  1.0000
  H   H48       1.0  0.29428  0.96793  0.03014  1.0000
  H   H49       1.0  0.58286  0.9141799999999999  0.048309999999999985  1.0000
  H   H50       1.0  0.55492  0.0003699999999999997  0.07948  1.0000
  H   H51       1.0  0.3689900000000001  0.92474  0.9706099999999998  1.0000
  H   H52       1.0  0.40595000000000003  0.83486  0.94024  1.0000
  H   H53       1.0  0.5865700000000001  0.7355899999999999  0.03436999999999999  1.0000
  H   H54       1.0  0.5531  0.82522  0.06384  1.0000
  H   H55       1.0  0.5846300000000004  0.39538  0.07975  1.0000
  H   H56       1.0  0.9875999999999999  0.08768000000000001  0.50117  1.0000
  H   H57       1.0  0.67745  0.9261000000000001  0.75501  1.0000
  H   H58       1.0  0.73543  0.03199000000000002  0.82581  1.0000
  H   H59       1.0  0.38331000000000004  0.045400000000000086  0.7654299999999998  1.0000
  H   H60       1.0  0.28699000000000013  0.03847000000000006  0.7168799999999997  1.0000
  H   H61       1.0  0.5369699999999998  0.95437  0.63982  1.0000
  H   H62       1.0  0.63349  0.9634300000000002  0.68735  1.0000
  H   H63       1.0  0.24072000000000005  0.07115000000000005  0.6494899999999999  1.0000
  H   H64       1.0  0.14023999999999998  0.05303000000000002  0.60673  1.0000
  H   H65       1.0  0.3354600000000001  0.88327  0.59812  1.0000
  H   H66       1.0  0.43553000000000014  0.90073  0.64076  1.0000
  H   H67       1.0  0.8359599999999999  0.90173  0.74025  1.0000
  H   H68       1.0  0.9913500000000002  0.8353499999999999  0.7515299999999998  1.0000
  H   H69       1.0  0.9518800000000004  0.8749600000000002  0.8761399999999998  1.0000
  H   H70       1.0  0.7970300000000003  0.9424400000000002  0.8641199999999998  1.0000
  H   H71       1.0  0.08866000000000004  0.75367  0.78096  1.0000
  H   H72       1.0  0.24883999999999995  0.69177  0.79261  1.0000
  H   H73       1.0  0.2606299999999998  0.80191  0.87232  1.0000
  H   H74       1.0  0.1003  0.86439  0.86106  1.0000
  H   H75       1.0  0.6773100000000003  0.09351000000000008  0.8620099999999998  1.0000
  H   H76       1.0  0.6527400000000003  0.18990999999999997  0.87815  1.0000
  H   H77       1.0  0.44154999999999994  0.26879  0.79573  1.0000
  H   H78       1.0  0.4708  0.1735600000000001  0.7768399999999998  1.0000
  H   H79       1.0  0.5736100000000001  0.26264000000000004  0.9092599999999997  1.0000
  H   H80       1.0  0.56096  0.3613  0.9211  1.0000
  H   H81       1.0  0.4802999999999999  0.44578  0.79599  1.0000
  H   H82       1.0  0.4963  0.34738000000000013  0.7829499999999998  1.0000
  H   H83       1.0  0.48188999999999993  0.09299000000000002  0.77024  1.0000
  H   H84       1.0  0.7123500000000001  0.27896999999999994  0.35634  1.0000
  H   H85       1.0  0.4802600000000001  0.3569800000000001  0.44386  1.0000
  H   H86       1.0  0.67282  0.45822  0.36675  1.0000
  H   H87       1.0  0.83663  0.4179  0.36526  1.0000
  H   H88       1.0  0.9901  0.41651  0.31907999999999986  1.0000
  H   H89       1.0  0.9256600000000003  0.3241599999999999  0.23983  1.0000
  H   H90       1.0  0.7742100000000001  0.3229600000000001  0.28722  1.0000
  H   H91       1.0  0.07176000000000002  0.45003  0.25911  1.0000
  H   H92       1.0  0.23092000000000007  0.44461  0.21641  1.0000
  H   H93       1.0  0.23481  0.28174  0.18752  1.0000
  H   H94       1.0  0.0789500000000001  0.28429  0.23251999999999995  1.0000
  H   H95       1.0  0.5366100000000001  0.27894  0.34132  1.0000
  H   H96       1.0  0.4582899999999999  0.19923000000000005  0.3530399999999999  1.0000
  H   H97       1.0  0.47993000000000025  0.15273000000000003  0.4881799999999999  1.0000
  H   H98       1.0  0.55764  0.23311  0.47632  1.0000
  H   H99       1.0  0.48710000000000003  0.05971  0.47596  1.0000
  H   H100      1.0  0.3867000000000002  0.9901099999999999  0.4896599999999999  1.0000
  H   H101      1.0  0.21995000000000006  0.11326  0.39607  1.0000
  H   H102      1.0  0.3176899999999999  0.18287999999999996  0.38257  1.0000
  H   H103      1.0  0.38219999999999993  0.44532  0.4389899999999999  1.0000
  H   H104      1.0  0.29255  0.53207  0.46989  1.0000
  H   H105      1.0  0.5453200000000001  0.58593  0.45181  1.0000
  H   H106      1.0  0.6347700000000001  0.49983999999999995  0.42062  1.0000
  H   H107      1.0  0.2641899999999999  0.5757299999999997  0.52932  1.0000
  H   H108      1.0  0.18055000000000004  0.6658  0.55933  1.0000
  H   H109      1.0  0.35596000000000005  0.7648399999999999  0.4652  1.0000
  H   H110      1.0  0.44217999999999996  0.67492  0.43618  1.0000
  H   H111      1.0  0.060820000000000055  0.10400000000000001  0.42020999999999986  1.0000
  H   H112      1.0  0.57558  0.41225  0.9990299999999999  1.0000
  H   H113      1.0  0.64123  0.42614  0.25506  1.0000
  H   H114      1.0  0.40695000000000014  0.5319  0.32593  1.0000
  H   H115      1.0  0.80556  0.54537  0.26564  1.0000
  H   H116      1.0  0.9571899999999999  0.53849  0.21714  1.0000
  H   H117      1.0  0.86825  0.45443  0.13993999999999995  1.0000
  H   H118      1.0  0.7153499999999999  0.46342  0.18743999999999994  1.0000
  H   H119      1.0  0.03743999999999992  0.5715000000000001  0.14986999999999995  1.0000
  H   H120      1.0  0.19855000000000003  0.55394  0.1072  1.0000
  H   H121      1.0  0.18257000000000012  0.3842  0.09788  1.0000
  H   H122      1.0  0.022810000000000084  0.40116  0.14059  1.0000
  H   H123      1.0  0.52187  0.4019  0.24021999999999993  1.0000
  H   H124      1.0  0.42156  0.33549  0.25139  1.0000
  H   H125      1.0  0.29745  0.37482  0.37608  1.0000
  H   H126      1.0  0.39669000000000004  0.4423900000000001  0.3641399999999999  1.0000
  H   H127      1.0  0.37618999999999997  0.25375  0.28085  1.0000
  H   H128      1.0  0.26624000000000003  0.19171000000000002  0.2929599999999999  1.0000
  H   H129      1.0  0.06571  0.30211  0.37272  1.0000
  H   H130      1.0  0.17476999999999998  0.36478  0.36091  1.0000
  H   H131      1.0  0.36727000000000015  0.5934699999999998  0.362  1.0000
  H   H132      1.0  0.27914  0.68984  0.37812  1.0000
  H   H133      1.0  0.49350000000000016  0.76885  0.29575  1.0000
  H   H134      1.0  0.5785200000000001  0.67366  0.27687  1.0000
  H   H135      1.0  0.2545200000000001  0.7627300000000001  0.4092999999999999  1.0000
  H   H136      1.0  0.15709999999999993  0.86139  0.42112  1.0000
  H   H137      1.0  0.27848000000000017  0.94576  0.2961299999999999  1.0000
  H   H138      1.0  0.37343999999999994  0.84735  0.2831  1.0000
  H   H139      1.0  0.65468  0.59301  0.27031  1.0000
  H   H140      1.0  0.6526200000000001  0.7789999999999999  0.85626  1.0000
  H   H141      1.0  0.71935  0.8569799999999999  0.94388  1.0000
  H   H142      1.0  0.50214  0.95815  0.8668399999999998  1.0000
  H   H143      1.0  0.38045999999999985  0.91785  0.86521  1.0000
  H   H144      1.0  0.27444  0.91644  0.81896  1.0000
  H   H145      1.0  0.51042  0.8241200000000001  0.73979  1.0000
  H   H146      1.0  0.6157099999999999  0.82293  0.7872899999999998  1.0000
  H   H147      1.0  0.2191700000000002  0.94998  0.75893  1.0000
  H   H148      1.0  0.10764000000000028  0.94419  0.7165699999999998  1.0000
  H   H149      1.0  0.29561  0.7814900000000001  0.68759  1.0000
  H   H150      1.0  0.40439999999999987  0.78423  0.73241  1.0000
  H   H151      1.0  0.8431699999999999  0.7790699999999999  0.84136  1.0000
  H   H152      1.0  0.9893199999999999  0.6991900000000002  0.8530499999999998  1.0000
  H   H153      1.0  0.8792200000000002  0.6526  0.9881899999999998  1.0000
  H   H154      1.0  0.7331800000000004  0.7330900000000001  0.9762499999999997  1.0000
  H   H155      1.0  0.97797  0.55948  0.97593  1.0000
  H   H156      1.0  0.13403000000000007  0.4898200000000001  0.9895399999999998  1.0000
  H   H157      1.0  0.2707  0.6134  0.89614  1.0000
  H   H158      1.0  0.11693000000000012  0.6828000000000001  0.8825899999999998  1.0000
  H   H159      1.0  0.7337700000000004  0.9452699999999999  0.93892  1.0000
  H   H160      1.0  0.7057100000000001  0.032070000000000015  0.96986  1.0000
  H   H161      1.0  0.41713  0.08582  0.95169  1.0000
  H   H162      1.0  0.44507000000000024  0.99963  0.92052  1.0000
  H   H163      1.0  0.631  0.07526  0.029389999999999993  1.0000
  H   H164      1.0  0.59404  0.16513000000000003  0.05975999999999999  1.0000
  H   H165      1.0  0.4134200000000002  0.26441  0.96563  1.0000
  H   H166      1.0  0.4468899999999999  0.17477999999999996  0.93616  1.0000
  H   H167      1.0  0.41536000000000006  0.60462  0.92025  1.0000
  H   H168      1.0  0.012390000000000066  0.91232  0.49883  1.0000
  H   H169      1.0  0.32254  0.07389999999999997  0.24499  1.0000
  H   H170      1.0  0.26456  0.96801  0.17419  1.0000
  H   H171      1.0  0.61668  0.9546  0.23457  1.0000
  H   H172      1.0  0.7130000000000002  0.96153  0.28312  1.0000
  H   H173      1.0  0.46301999999999993  0.04563000000000001  0.36018  1.0000
  H   H174      1.0  0.36650000000000016  0.03657  0.31265  1.0000
  H   H175      1.0  0.7592699999999999  0.9288399999999999  0.35051  1.0000
  H   H176      1.0  0.8597499999999999  0.94697  0.39327  1.0000
  H   H177      1.0  0.66453  0.11673000000000001  0.40188  1.0000
  H   H178      1.0  0.56446  0.09926999999999997  0.35924  1.0000
  H   H179      1.0  0.16403000000000004  0.09827000000000004  0.25974999999999987  1.0000
  H   H180      1.0  0.008640000000000007  0.16465000000000002  0.24846999999999994  1.0000
  H   H181      1.0  0.048110000000000014  0.12504  0.12385999999999997  1.0000
  H   H182      1.0  0.20296000000000003  0.05755999999999999  0.13588  1.0000
  H   H183      1.0  0.91133  0.24633  0.21904  1.0000
  H   H184      1.0  0.75115  0.30823000000000006  0.20739  1.0000
  H   H185      1.0  0.7393600000000002  0.19809  0.12769  1.0000
  H   H186      1.0  0.8996900000000003  0.13561  0.13893999999999995  1.0000
  H   H187      1.0  0.32268  0.90649  0.13798999999999995  1.0000
  H   H188      1.0  0.34725000000000006  0.81009  0.12185  1.0000
  H   H189      1.0  0.5584399999999999  0.73121  0.20427  1.0000
  H   H190      1.0  0.52919  0.82644  0.22317  1.0000
  H   H191      1.0  0.42638000000000004  0.73736  0.09074  1.0000
  H   H192      1.0  0.43903  0.6387  0.0789  1.0000
  H   H193      1.0  0.51969  0.55422  0.20401  1.0000
  H   H194      1.0  0.5036900000000001  0.6526199999999999  0.21705  1.0000
  H   H195      1.0  0.5181000000000001  0.90701  0.22976  1.0000
  H   H196      1.0  0.2876400000000001  0.7210300000000002  0.6436599999999998  1.0000
  H   H197      1.0  0.51973  0.64302  0.55614  1.0000
  H   H198      1.0  0.3271700000000002  0.5417800000000002  0.6332499999999998  1.0000
  H   H199      1.0  0.16336000000000014  0.5821  0.6347399999999997  1.0000
  H   H200      1.0  0.009890000000000154  0.58349  0.6809199999999997  1.0000
  H   H201      1.0  0.07433000000000002  0.6758400000000002  0.7601699999999998  1.0000
  H   H202      1.0  0.22577999999999998  0.67704  0.71278  1.0000
  H   H203      1.0  0.92823  0.54997  0.74089  1.0000
  H   H204      1.0  0.7690699999999999  0.55539  0.78359  1.0000
  H   H205      1.0  0.7651799999999999  0.7182600000000001  0.81248  1.0000
  H   H206      1.0  0.9210400000000002  0.71571  0.76748  1.0000
  H   H207      1.0  0.46337000000000006  0.72106  0.6586799999999998  1.0000
  H   H208      1.0  0.5417000000000001  0.8007700000000001  0.6469599999999998  1.0000
  H   H209      1.0  0.5200600000000001  0.84726  0.51182  1.0000
  H   H210      1.0  0.4423500000000002  0.76689  0.52368  1.0000
  H   H211      1.0  0.51289  0.94029  0.52404  1.0000
  H   H212      1.0  0.6132900000000001  0.009889999999999963  0.51034  1.0000
  H   H213      1.0  0.7800299999999999  0.88674  0.60393  1.0000
  H   H214      1.0  0.6823000000000002  0.8171199999999998  0.61743  1.0000
  H   H215      1.0  0.6177899999999998  0.55468  0.56101  1.0000
  H   H216      1.0  0.7074400000000001  0.46791999999999995  0.53011  1.0000
  H   H217      1.0  0.45467  0.41407  0.54819  1.0000
  H   H218      1.0  0.36522000000000004  0.50016  0.57938  1.0000
  H   H219      1.0  0.7358  0.42427  0.47068  1.0000
  H   H220      1.0  0.81944  0.33420000000000005  0.44067  1.0000
  H   H221      1.0  0.64403  0.23516000000000004  0.5348  1.0000
  H   H222      1.0  0.55781  0.32508  0.56382  1.0000
  H   H223      1.0  0.93917  0.89599  0.57979  1.0000
  H   H224      1.0  0.42441  0.58775  0.00097  1.0000
  C   C1        1.0  0.34252000000000016  0.49052  0.7407699999999998  1.0000
  C   C2        1.0  0.39158  0.53384  0.73244  1.0000
  C   C3        1.0  0.4810700000000001  0.5267400000000001  0.70736  1.0000
  C   C4        1.0  0.52145  0.4750400000000001  0.69105  1.0000
  C   C5        1.0  0.2506500000000001  0.4959700000000001  0.7692299999999997  1.0000
  C   C6        1.0  0.18157  0.47379000000000004  0.76225  1.0000
  C   C7        1.0  0.09588000000000002  0.4777600000000002  0.7895599999999998  1.0000
  C   C8        1.0  0.07496000000000015  0.5049  0.8247099999999998  1.0000
  C   C9        1.0  0.14451999999999995  0.5264000000000001  0.83214  1.0000
  C   C10       1.0  0.23081000000000013  0.5216999999999999  0.80509  1.0000
  C   C11       1.0  0.9814900000000001  0.5126  0.8516699999999998  1.0000
  C   C12       1.0  0.9305699999999998  0.46972  0.86122  1.0000
  C   C13       1.0  0.8409199999999999  0.4790700000000001  0.8852399999999998  1.0000
  C   C14       1.0  0.79964  0.53188  0.90013  1.0000
  C   C15       1.0  0.8499100000000002  0.5747199999999999  0.89092  1.0000
  C   C16       1.0  0.9396600000000003  0.5648600000000001  0.8672299999999997  1.0000
  C   C17       1.0  0.70402  0.54253  0.92563  1.0000
  C   C18       1.0  0.53485  0.5711500000000002  0.69923  1.0000
  C   C19       1.0  0.5269100000000005  0.6040999999999997  0.72976  1.0000
  C   C20       1.0  0.5837300000000001  0.64211  0.72326  1.0000
  C   C21       1.0  0.6508300000000001  0.64911  0.68579  1.0000
  C   C22       1.0  0.6553700000000001  0.6182900000000001  0.6543399999999998  1.0000
  C   C23       1.0  0.59906  0.5801900000000001  0.66096  1.0000
  C   C24       1.0  0.7152399999999999  0.68649  0.6794  1.0000
  C   C25       1.0  0.69173  0.73526  0.6989399999999998  1.0000
  C   C26       1.0  0.7532800000000005  0.7701699999999999  0.6923699999999998  1.0000
  C   C27       1.0  0.8410300000000002  0.7571100000000001  0.6661999999999999  1.0000
  C   C28       1.0  0.8656700000000003  0.7082599999999999  0.64695  1.0000
  C   C29       1.0  0.8039399999999999  0.67369  0.6534899999999998  1.0000
  C   C30       1.0  0.9075099999999999  0.7945  0.6575199999999998  1.0000
  C   C31       1.0  0.52116  0.3746499999999999  0.68358  1.0000
  C   C32       1.0  0.6049999999999999  0.36821  0.65371  1.0000
  C   C33       1.0  0.6546400000000003  0.31340000000000007  0.64386  1.0000
  C   C34       1.0  0.6224600000000001  0.26196  0.66273  1.0000
  C   C35       1.0  0.53571  0.26917  0.69036  1.0000
  C   C36       1.0  0.4868400000000002  0.3238100000000001  0.7006199999999998  1.0000
  C   C37       1.0  0.67807  0.20287000000000008  0.6547199999999997  1.0000
  C   C38       1.0  0.7406100000000002  0.19761000000000006  0.6159199999999998  1.0000
  C   C39       1.0  0.79502  0.14218999999999998  0.60894  1.0000
  C   C40       1.0  0.7889299999999999  0.08991  0.64049  1.0000
  C   C41       1.0  0.7262100000000001  0.09439000000000007  0.6791099999999998  1.0000
  C   C42       1.0  0.6720200000000004  0.15009  0.68608  1.0000
  C   C43       1.0  0.85184  0.03179000000000001  0.63239  1.0000
  C   C44       1.0  0.4739900000000001  0.43108  0.6981599999999999  1.0000
  C   C45       1.0  0.38377000000000006  0.4403599999999999  0.72274  1.0000
  C   C46       1.0  0.43228  0.13163000000000002  0.14065999999999995  1.0000
  C   C47       1.0  0.35900999999999994  0.18272000000000002  0.13006  1.0000
  C   C48       1.0  0.3035600000000001  0.1864  0.10019  1.0000
  C   C49       1.0  0.32258999999999993  0.13895  0.08017  1.0000
  C   C50       1.0  0.39266000000000006  0.08620000000000001  0.09165999999999998  1.0000
  C   C51       1.0  0.44644000000000006  0.08324  0.12219999999999998  1.0000
  C   C52       1.0  0.49402000000000007  0.12972  0.17009  1.0000
  C   C53       1.0  0.5908  0.10237  0.16251  1.0000
  C   C54       1.0  0.65051  0.10298  0.18872  1.0000
  C   C55       1.0  0.61599  0.13044  0.22401999999999994  1.0000
  C   C56       1.0  0.5188300000000002  0.15653  0.23211  1.0000
  C   C57       1.0  0.45918999999999993  0.15663000000000005  0.20559999999999995  1.0000
  C   C58       1.0  0.68007  0.13259000000000004  0.25083  1.0000
  C   C59       1.0  0.76481  0.08787000000000002  0.2557  1.0000
  C   C60       1.0  0.82716  0.09048000000000002  0.27968  1.0000
  C   C61       1.0  0.8059  0.13786  0.3001599999999999  1.0000
  C   C62       1.0  0.72105  0.18218  0.2962  1.0000
  C   C63       1.0  0.65947  0.17982999999999993  0.27165  1.0000
  C   C64       1.0  0.8726500000000001  0.13974000000000006  0.32608  1.0000
  C   C65       1.0  0.22149999999999997  0.23821  0.09199  1.0000
  C   C66       1.0  0.14922  0.24933  0.12663  1.0000
  C   C67       1.0  0.06672  0.29382  0.11985999999999997  1.0000
  C   C68       1.0  0.05435999999999993  0.3294900000000001  0.07841  1.0000
  C   C69       1.0  0.12864999999999996  0.32009  0.04411999999999999  1.0000
  C   C70       1.0  0.21063000000000012  0.27454  0.05071  1.0000
  C   C71       1.0  0.9637899999999999  0.3735  0.07128  1.0000
  C   C72       1.0  0.9578700000000001  0.42858  0.041349999999999984  1.0000
  C   C73       1.0  0.87095  0.4678300000000001  0.03388999999999999  1.0000
  C   C74       1.0  0.78789  0.45252  0.05574999999999999  1.0000
  C   C75       1.0  0.79339  0.39833  0.08636  1.0000
  C   C76       1.0  0.88003  0.35964  0.09428  1.0000
  C   C77       1.0  0.695  0.49095000000000005  0.04448999999999999  1.0000
  C   C78       1.0  0.40840000000000004  0.03447  0.07291  1.0000
  C   C79       1.0  0.3362  0.024380000000000002  0.05803  1.0000
  C   C80       1.0  0.35198999999999997  0.97535  0.04042  1.0000
  C   C81       1.0  0.44073000000000023  0.93423  0.03701  1.0000
  C   C82       1.0  0.51285  0.94426  0.05185  1.0000
  C   C83       1.0  0.49697999999999987  0.9931500000000001  0.06933  1.0000
  C   C84       1.0  0.45927000000000007  0.88163  0.01905  1.0000
  C   C85       1.0  0.41665000000000013  0.8833300000000001  0.9846299999999998  1.0000
  C   C86       1.0  0.43713  0.83346  0.96743  1.0000
  C   C87       1.0  0.4987400000000001  0.78006  0.98529  1.0000
  C   C88       1.0  0.54082  0.77764  0.01999  1.0000
  C   C89       1.0  0.5219900000000001  0.8278699999999999  0.03630999999999999  1.0000
  C   C90       1.0  0.5174900000000002  0.7247300000000001  0.96986  1.0000
  C   C91       1.0  0.57369  0.009449999999999986  0.75916  1.0000
  C   C92       1.0  0.6577699999999999  0.9661400000000001  0.7675099999999998  1.0000
  C   C93       1.0  0.7152000000000005  0.9732499999999998  0.7925899999999998  1.0000
  C   C94       1.0  0.6876599999999999  0.024989999999999984  0.80886  1.0000
  C   C95       1.0  0.51566  0.00401999999999999  0.73065  1.0000
  C   C96       1.0  0.41746000000000005  0.026210000000000008  0.73757  1.0000
  C   C97       1.0  0.3629899999999999  0.022190000000000015  0.71024  1.0000
  C   C98       1.0  0.40430000000000016  0.9949999999999999  0.67513  1.0000
  C   C99       1.0  0.50274  0.9735400000000001  0.6677399999999998  1.0000
  C   C100      1.0  0.5573400000000002  0.97829  0.6947899999999998  1.0000
  C   C101      1.0  0.34557  0.9870600000000002  0.6481899999999998  1.0000
  C   C102      1.0  0.26129  0.029840000000000002  0.6385  1.0000
  C   C103      1.0  0.2052  0.020209999999999978  0.61448  1.0000
  C   C104      1.0  0.23180000000000003  0.96718  0.59985  1.0000
  C   C105      1.0  0.3156900000000001  0.92444  0.6091999999999997  1.0000
  C   C106      1.0  0.37181000000000025  0.9346200000000001  0.6328199999999998  1.0000
  C   C107      1.0  0.17235000000000023  0.9564399999999998  0.57441  1.0000
  C   C108      1.0  0.80528  0.92883  0.8007699999999998  1.0000
  C   C109      1.0  0.8607500000000002  0.8957899999999999  0.77029  1.0000
  C   C110      1.0  0.9490200000000009  0.85775  0.77687  1.0000
  C   C111      1.0  0.9858  0.8508100000000001  0.8143299999999998  1.0000
  C   C112      1.0  0.9281900000000004  0.8817299999999999  0.8457199999999998  1.0000
  C   C113      1.0  0.8403799999999999  0.9198400000000001  0.8390399999999998  1.0000
  C   C114      1.0  0.08125999999999992  0.8134  0.82066  1.0000
  C   C115      1.0  0.12573999999999996  0.76471  0.80102  1.0000
  C   C116      1.0  0.21576000000000006  0.7298300000000001  0.8073399999999997  1.0000
  C   C117      1.0  0.26481  0.7428400000000001  0.83336  1.0000
  C   C118      1.0  0.22169999999999992  0.7915700000000001  0.8527399999999998  1.0000
  C   C119      1.0  0.1317300000000001  0.8260900000000001  0.8464799999999998  1.0000
  C   C120      1.0  0.36015000000000014  0.7053199999999998  0.8417  1.0000
  C   C121      1.0  0.57936  0.12532  0.81639  1.0000
  C   C122      1.0  0.6269100000000003  0.13179000000000007  0.8462899999999998  1.0000
  C   C123      1.0  0.6117600000000001  0.18662999999999996  0.85615  1.0000
  C   C124      1.0  0.54696  0.2380500000000001  0.8372599999999998  1.0000
  C   C125      1.0  0.49498999999999993  0.2308  0.80962  1.0000
  C   C126      1.0  0.51114  0.17614  0.79936  1.0000
  C   C127      1.0  0.53568  0.29714000000000024  0.8452199999999997  1.0000
  C   C128      1.0  0.5543100000000002  0.30235000000000006  0.8840499999999998  1.0000
  C   C129      1.0  0.5465100000000002  0.35774000000000006  0.8910399999999998  1.0000
  C   C130      1.0  0.51969  0.41004  0.85946  1.0000
  C   C131      1.0  0.5001599999999999  0.40559000000000006  0.82077  1.0000
  C   C132      1.0  0.50841  0.3499199999999999  0.81381  1.0000
  C   C133      1.0  0.51597  0.4682  0.86764  1.0000
  C   C134      1.0  0.60326  0.06889999999999999  0.80178  1.0000
  C   C135      1.0  0.5467900000000002  0.059609999999999996  0.7772  1.0000
  C   C136      1.0  0.70466  0.3684  0.35935  1.0000
  C   C137      1.0  0.67199  0.31727  0.36997  1.0000
  C   C138      1.0  0.5904200000000002  0.31359  0.39982  1.0000
  C   C139      1.0  0.54206  0.36107  0.41981999999999997  1.0000
  C   C140      1.0  0.5707099999999999  0.4138700000000001  0.40833  1.0000
  C   C141      1.0  0.6519299999999999  0.41681999999999997  0.37777  1.0000
  C   C142      1.0  0.7938900000000001  0.37029999999999996  0.32994999999999997  1.0000
  C   C143      1.0  0.8557800000000001  0.39763999999999994  0.33755  1.0000
  C   C144      1.0  0.9422300000000002  0.3970600000000001  0.3113599999999999  1.0000
  C   C145      1.0  0.9705000000000001  0.36955  0.27609  1.0000
  C   C146      1.0  0.9075  0.34348  0.2679499999999999  1.0000
  C   C147      1.0  0.8214999999999996  0.34337000000000006  0.29443  1.0000
  C   C148      1.0  0.06343000000000003  0.36747  0.24929  1.0000
  C   C149      1.0  0.10814000000000003  0.41227  0.24438999999999994  1.0000
  C   C150      1.0  0.19682  0.40981999999999996  0.22029  1.0000
  C   C151      1.0  0.2433800000000001  0.36253  0.19975999999999994  1.0000
  C   C152      1.0  0.1991300000000001  0.31802999999999987  0.20379  1.0000
  C   C153      1.0  0.11084000000000001  0.32028  0.22842  1.0000
  C   C154      1.0  0.33762000000000003  0.36096999999999996  0.17373  1.0000
  C   C155      1.0  0.5519300000000001  0.26178000000000007  0.4080299999999999  1.0000
  C   C156      1.0  0.5253700000000001  0.25065  0.37335  1.0000
  C   C157      1.0  0.48039000000000004  0.20626  0.3801199999999999  1.0000
  C   C158      1.0  0.46225000000000005  0.17066999999999996  0.42156  1.0000
  C   C159      1.0  0.4928900000000001  0.18003000000000002  0.45589  1.0000
  C   C160      1.0  0.53607  0.22549000000000008  0.4493099999999999  1.0000
  C   C161      1.0  0.40874  0.12662999999999996  0.42869  1.0000
  C   C162      1.0  0.42821000000000004  0.07163000000000004  0.45867999999999987  1.0000
  C   C163      1.0  0.37312  0.032389999999999995  0.46616  1.0000
  C   C164      1.0  0.29666  0.04751000000000001  0.44427  1.0000
  C   C165      1.0  0.27832000000000007  0.10163000000000004  0.4135799999999999  1.0000
  C   C166      1.0  0.33400000000000013  0.14043  0.4057  1.0000
  C   C167      1.0  0.23117000000000001  0.008910000000000026  0.4560899999999999  1.0000
  C   C168      1.0  0.5159399999999998  0.46560000000000007  0.4270999999999999  1.0000
  C   C169      1.0  0.41881000000000007  0.47568000000000005  0.4420099999999999  1.0000
  C   C170      1.0  0.36791000000000007  0.52471  0.45961  1.0000
  C   C171      1.0  0.41198  0.56591  0.46305  1.0000
  C   C172      1.0  0.5089200000000002  0.5558600000000001  0.4482299999999999  1.0000
  C   C173      1.0  0.5595  0.50699  0.43074  1.0000
  C   C174      1.0  0.3598600000000001  0.6186199999999997  0.48091  1.0000
  C   C175      1.0  0.28437  0.61716  0.51523  1.0000
  C   C176      1.0  0.23752999999999988  0.6672300000000001  0.53221  1.0000
  C   C177      1.0  0.26347  0.72069  0.51418  1.0000
  C   C178      1.0  0.33798000000000006  0.7227900000000002  0.47964  1.0000
  C   C179      1.0  0.3860100000000002  0.67237  0.4635799999999999  1.0000
  C   C180      1.0  0.21163000000000015  0.77628  0.52938  1.0000
  C   C181      1.0  0.65747  0.50948  0.25924  1.0000
  C   C182      1.0  0.6084099999999999  0.46615999999999996  0.26756  1.0000
  C   C183      1.0  0.51892  0.47325999999999996  0.29264  1.0000
  C   C184      1.0  0.4785400000000001  0.52496  0.30895  1.0000
  C   C185      1.0  0.7493399999999998  0.50403  0.23076999999999995  1.0000
  C   C186      1.0  0.8184199999999999  0.52621  0.23776  1.0000
  C   C187      1.0  0.9041100000000001  0.5222400000000003  0.21043999999999993  1.0000
  C   C188      1.0  0.92503  0.49510000000000004  0.17528999999999995  1.0000
  C   C189      1.0  0.8554700000000004  0.4736  0.16786  1.0000
  C   C190      1.0  0.7691800000000001  0.4783  0.19490999999999994  1.0000
  C   C191      1.0  0.018499999999999975  0.4874  0.14833  1.0000
  C   C192      1.0  0.06941999999999995  0.53028  0.13878  1.0000
  C   C193      1.0  0.15906999999999996  0.52093  0.11476  1.0000
  C   C194      1.0  0.20034999999999997  0.46812  0.09986999999999999  1.0000
  C   C195      1.0  0.15007999999999996  0.42528000000000005  0.10907999999999997  1.0000
  C   C196      1.0  0.06033  0.43514  0.13277  1.0000
  C   C197      1.0  0.29597000000000007  0.45747  0.07437  1.0000
  C   C198      1.0  0.46514000000000016  0.42885  0.30078  1.0000
  C   C199      1.0  0.47308  0.39589  0.27024  1.0000
  C   C200      1.0  0.4162600000000002  0.35789  0.27674  1.0000
  C   C201      1.0  0.3491600000000001  0.35089  0.31421  1.0000
  C   C202      1.0  0.3446199999999999  0.38171  0.34566  1.0000
  C   C203      1.0  0.40092999999999995  0.4198100000000002  0.3390399999999999  1.0000
  C   C204      1.0  0.28475000000000006  0.31350000000000006  0.3205999999999999  1.0000
  C   C205      1.0  0.30826000000000003  0.26474  0.30106  1.0000
  C   C206      1.0  0.24671000000000012  0.22983  0.30763  1.0000
  C   C207      1.0  0.15896000000000005  0.24288999999999997  0.3338  1.0000
  C   C208      1.0  0.13431999999999997  0.29174  0.35305  1.0000
  C   C209      1.0  0.19605000000000003  0.3263  0.3465099999999999  1.0000
  C   C210      1.0  0.09247999999999997  0.2055  0.34248  1.0000
  C   C211      1.0  0.4788299999999999  0.62535  0.31642  1.0000
  C   C212      1.0  0.3949900000000001  0.63179  0.34629  1.0000
  C   C213      1.0  0.34534999999999993  0.6866  0.35614  1.0000
  C   C214      1.0  0.3775300000000001  0.7380399999999999  0.3372699999999999  1.0000
  C   C215      1.0  0.4642800000000001  0.73083  0.30964  1.0000
  C   C216      1.0  0.5131500000000001  0.67619  0.29938  1.0000
  C   C217      1.0  0.32192000000000026  0.79713  0.34527999999999986  1.0000
  C   C218      1.0  0.2593799999999999  0.8023800000000002  0.38407999999999987  1.0000
  C   C219      1.0  0.20496999999999999  0.85781  0.39106  1.0000
  C   C220      1.0  0.21106000000000005  0.91009  0.35950999999999994  1.0000
  C   C221      1.0  0.27378  0.9056100000000001  0.32089  1.0000
  C   C222      1.0  0.32797  0.84991  0.31392  1.0000
  C   C223      1.0  0.1481499999999999  0.96821  0.36761  1.0000
  C   C224      1.0  0.526  0.56892  0.30184  1.0000
  C   C225      1.0  0.61622  0.55964  0.27726  1.0000
  C   C226      1.0  0.56771  0.8683699999999999  0.85934  1.0000
  C   C227      1.0  0.6409800000000002  0.81728  0.86994  1.0000
  C   C228      1.0  0.6964300000000004  0.8135999999999999  0.8998099999999998  1.0000
  C   C229      1.0  0.6774000000000001  0.8610500000000001  0.91983  1.0000
  C   C230      1.0  0.6073300000000004  0.9137900000000001  0.9083399999999998  1.0000
  C   C231      1.0  0.5535500000000001  0.9167600000000001  0.8777999999999998  1.0000
  C   C232      1.0  0.5059700000000004  0.87028  0.82991  1.0000
  C   C233      1.0  0.40919000000000016  0.89763  0.8374899999999998  1.0000
  C   C234      1.0  0.34947999999999996  0.89702  0.81128  1.0000
  C   C235      1.0  0.384  0.8695599999999999  0.77598  1.0000
  C   C236      1.0  0.4811600000000003  0.8434699999999999  0.7678899999999997  1.0000
  C   C237      1.0  0.5408000000000001  0.84337  0.7943999999999998  1.0000
  C   C238      1.0  0.3199199999999998  0.86741  0.74917  1.0000
  C   C239      1.0  0.23517999999999994  0.91213  0.7442999999999997  1.0000
  C   C240      1.0  0.17283  0.90952  0.72032  1.0000
  C   C241      1.0  0.19409000000000018  0.86214  0.69984  1.0000
  C   C242      1.0  0.2789400000000002  0.8178099999999999  0.7038  1.0000
  C   C243      1.0  0.3405200000000001  0.82017  0.72835  1.0000
  C   C244      1.0  0.1273400000000001  0.86026  0.6739299999999998  1.0000
  C   C245      1.0  0.77849  0.76179  0.90801  1.0000
  C   C246      1.0  0.8507700000000001  0.75067  0.8733699999999998  1.0000
  C   C247      1.0  0.9332699999999999  0.70618  0.88015  1.0000
  C   C248      1.0  0.9456300000000003  0.6705099999999999  0.9216  1.0000
  C   C249      1.0  0.8713400000000001  0.6799099999999999  0.95588  1.0000
  C   C250      1.0  0.7893599999999998  0.7254600000000001  0.9492899999999997  1.0000
  C   C251      1.0  0.03619999999999998  0.6265000000000001  0.92872  1.0000
  C   C252      1.0  0.042120000000000164  0.57142  0.9586499999999998  1.0000
  C   C253      1.0  0.12904000000000015  0.5321700000000001  0.9661099999999998  1.0000
  C   C254      1.0  0.21210000000000007  0.54748  0.9442499999999998  1.0000
  C   C255      1.0  0.20660000000000003  0.6016700000000001  0.9136399999999998  1.0000
  C   C256      1.0  0.1199600000000001  0.6403600000000002  0.9057199999999997  1.0000
  C   C257      1.0  0.30499000000000004  0.50905  0.9555099999999997  1.0000
  C   C258      1.0  0.5915899999999998  0.96552  0.92709  1.0000
  C   C259      1.0  0.6637900000000003  0.97562  0.94197  1.0000
  C   C260      1.0  0.6480000000000001  0.02465000000000007  0.9595799999999998  1.0000
  C   C261      1.0  0.5592600000000002  0.06577000000000009  0.9629899999999998  1.0000
  C   C262      1.0  0.48713999999999996  0.05574000000000001  0.94815  1.0000
  C   C263      1.0  0.50301  0.00684999999999999  0.93067  1.0000
  C   C264      1.0  0.5407200000000001  0.11836999999999999  0.98095  1.0000
  C   C265      1.0  0.58334  0.11667  0.01537  1.0000
  C   C266      1.0  0.56286  0.16654  0.03258  1.0000
  C   C267      1.0  0.50125  0.21993999999999997  0.014709999999999997  1.0000
  C   C268      1.0  0.45917  0.22236000000000006  0.9800099999999998  1.0000
  C   C269      1.0  0.478  0.1721300000000001  0.9636899999999998  1.0000
  C   C270      1.0  0.48249999999999993  0.27527  0.03014  1.0000
  C   C271      1.0  0.42630000000000007  0.99055  0.24084  1.0000
  C   C272      1.0  0.34221999999999997  0.03386000000000002  0.23248999999999995  1.0000
  C   C273      1.0  0.28479  0.026749999999999996  0.20742  1.0000
  C   C274      1.0  0.31233  0.97501  0.19114  1.0000
  C   C275      1.0  0.48432999999999976  0.9959800000000001  0.26935  1.0000
  C   C276      1.0  0.5825299999999999  0.97379  0.26243  1.0000
  C   C277      1.0  0.6370000000000005  0.9778  0.28976  1.0000
  C   C278      1.0  0.59569  0.005000000000000005  0.32487  1.0000
  C   C279      1.0  0.4972500000000001  0.026460000000000036  0.3322599999999999  1.0000
  C   C280      1.0  0.4426500000000001  0.021710000000000004  0.30521  1.0000
  C   C281      1.0  0.6544199999999999  0.012940000000000038  0.3518099999999999  1.0000
  C   C282      1.0  0.7386999999999999  0.97016  0.3615  1.0000
  C   C283      1.0  0.7947900000000001  0.9797900000000002  0.38551999999999986  1.0000
  C   C284      1.0  0.76819  0.03282000000000001  0.40015  1.0000
  C   C285      1.0  0.6843  0.07556000000000006  0.39079999999999987  1.0000
  C   C286      1.0  0.6281799999999998  0.06538000000000001  0.36718  1.0000
  C   C287      1.0  0.82764  0.04356000000000001  0.42559  1.0000
  C   C288      1.0  0.19470999999999997  0.07117  0.19923  1.0000
  C   C289      1.0  0.13923999999999997  0.10421000000000001  0.22971  1.0000
  C   C290      1.0  0.05097000000000001  0.14225  0.22313  1.0000
  C   C291      1.0  0.014190000000000012  0.14918999999999996  0.18567  1.0000
  C   C292      1.0  0.0718  0.11826  0.15428  1.0000
  C   C293      1.0  0.15961000000000009  0.08015999999999998  0.16096  1.0000
  C   C294      1.0  0.91873  0.18660000000000002  0.17934  1.0000
  C   C295      1.0  0.87425  0.23529  0.19898  1.0000
  C   C296      1.0  0.78423  0.27017  0.19266  1.0000
  C   C297      1.0  0.7351799999999998  0.25716  0.16664  1.0000
  C   C298      1.0  0.77829  0.20842000000000002  0.14726  1.0000
  C   C299      1.0  0.8682600000000003  0.17391000000000004  0.15351999999999993  1.0000
  C   C300      1.0  0.63984  0.29468  0.1583  1.0000
  C   C301      1.0  0.4206300000000001  0.8746700000000001  0.18361  1.0000
  C   C302      1.0  0.3730800000000001  0.86821  0.15370999999999999  1.0000
  C   C303      1.0  0.3882300000000001  0.81337  0.14385  1.0000
  C   C304      1.0  0.45303000000000004  0.76195  0.16273999999999994  1.0000
  C   C305      1.0  0.5050000000000001  0.7691899999999998  0.19038  1.0000
  C   C306      1.0  0.48885  0.82386  0.20064  1.0000
  C   C307      1.0  0.46431  0.70285  0.15478  1.0000
  C   C308      1.0  0.44568000000000013  0.6976499999999999  0.11595  1.0000
  C   C309      1.0  0.45348  0.64225  0.10895999999999997  1.0000
  C   C310      1.0  0.4803000000000002  0.58996  0.14054  1.0000
  C   C311      1.0  0.49983  0.59441  0.17923  1.0000
  C   C312      1.0  0.4915800000000004  0.6500799999999998  0.18619999999999995  1.0000
  C   C313      1.0  0.4840200000000002  0.5318  0.13236  1.0000
  C   C314      1.0  0.39672999999999997  0.9311  0.19822  1.0000
  C   C315      1.0  0.4532000000000001  0.9403900000000001  0.22279999999999994  1.0000
  C   C316      1.0  0.29533  0.6315999999999999  0.64065  1.0000
  C   C317      1.0  0.3279999999999999  0.68273  0.63003  1.0000
  C   C318      1.0  0.40957  0.68641  0.60018  1.0000
  C   C319      1.0  0.45793  0.63893  0.58018  1.0000
  C   C320      1.0  0.42928  0.58613  0.59167  1.0000
  C   C321      1.0  0.34806000000000004  0.58318  0.62223  1.0000
  C   C322      1.0  0.20610000000000003  0.6297  0.67006  1.0000
  C   C323      1.0  0.14420999999999998  0.60236  0.66245  1.0000
  C   C324      1.0  0.05776000000000002  0.6029400000000001  0.6886399999999998  1.0000
  C   C325      1.0  0.02949000000000008  0.63045  0.7239099999999998  1.0000
  C   C326      1.0  0.09249000000000006  0.6565200000000001  0.7320499999999998  1.0000
  C   C327      1.0  0.17849000000000004  0.65663  0.70557  1.0000
  C   C328      1.0  0.9365600000000001  0.63253  0.75071  1.0000
  C   C329      1.0  0.8918499999999999  0.5877199999999999  0.75561  1.0000
  C   C330      1.0  0.8031700000000002  0.59018  0.77971  1.0000
  C   C331      1.0  0.7566100000000003  0.6374700000000001  0.8002399999999997  1.0000
  C   C332      1.0  0.8008599999999999  0.6819700000000001  0.79621  1.0000
  C   C333      1.0  0.8891499999999999  0.6797200000000001  0.7715799999999998  1.0000
  C   C334      1.0  0.6623700000000001  0.6390300000000001  0.8262799999999998  1.0000
  C   C335      1.0  0.44804999999999995  0.7382199999999999  0.59197  1.0000
  C   C336      1.0  0.47462000000000004  0.74935  0.62665  1.0000
  C   C337      1.0  0.5195900000000001  0.79374  0.61989  1.0000
  C   C338      1.0  0.5377300000000005  0.82933  0.57844  1.0000
  C   C339      1.0  0.5071  0.81997  0.54411  1.0000
  C   C340      1.0  0.46392000000000005  0.7745100000000001  0.5506899999999998  1.0000
  C   C341      1.0  0.59125  0.87337  0.57131  1.0000
  C   C342      1.0  0.57178  0.9283700000000003  0.5413199999999998  1.0000
  C   C343      1.0  0.6268700000000001  0.9676099999999999  0.53384  1.0000
  C   C344      1.0  0.7033300000000001  0.95249  0.5557299999999997  1.0000
  C   C345      1.0  0.72167  0.89837  0.5864199999999998  1.0000
  C   C346      1.0  0.6659800000000001  0.85957  0.5943  1.0000
  C   C347      1.0  0.7688199999999998  0.99109  0.54392  1.0000
  C   C348      1.0  0.48405000000000015  0.53439  0.5728999999999997  1.0000
  C   C349      1.0  0.5811800000000004  0.5243199999999999  0.5579899999999998  1.0000
  C   C350      1.0  0.6320800000000005  0.47528  0.54039  1.0000
  C   C351      1.0  0.5880099999999999  0.43409  0.53695  1.0000
  C   C352      1.0  0.4910700000000001  0.4441300000000001  0.5517699999999998  1.0000
  C   C353      1.0  0.44049000000000044  0.49301  0.56926  1.0000
  C   C354      1.0  0.6401299999999999  0.38138000000000005  0.51909  1.0000
  C   C355      1.0  0.71562  0.38284  0.48477  1.0000
  C   C356      1.0  0.76246  0.33275999999999994  0.46779  1.0000
  C   C357      1.0  0.7365200000000002  0.27931  0.48581999999999986  1.0000
  C   C358      1.0  0.6620100000000001  0.27721000000000007  0.52036  1.0000
  C   C359      1.0  0.61398  0.3276199999999999  0.53643  1.0000
  C   C360      1.0  0.7883600000000001  0.22372000000000006  0.4706299999999999  1.0000
  O   O1        1.0  0.48556  0.55908  0.00167  1.0000
  O   O2        1.0  0.9157300000000004  0.03322000000000006  0.5997499999999998  1.0000
  O   O3        1.0  0.8390600000000001  0.98339  0.6595599999999998  1.0000
  O   O4        1.0  0.6651100000000003  0.49988000000000016  0.9394399999999999  1.0000
  O   O5        1.0  0.66556  0.59514  0.93328  1.0000
  O   O6        1.0  0.87904  0.84151  0.67319  1.0000
  O   O7        1.0  0.9866300000000003  0.7778  0.63445  1.0000
  O   O8        1.0  0.9910900000000002  0.89967  0.5910299999999998  1.0000
  O   O9        1.0  0.95123  0.09975000000000006  0.3251699999999999  1.0000
  O   O10       1.0  0.8477900000000002  0.1808  0.34732  1.0000
  O   O11       1.0  0.68817  0.54662  0.028059999999999995  1.0000
  O   O12       1.0  0.62965  0.46587  0.050669999999999986  1.0000
  O   O13       1.0  0.49482000000000015  0.72938  0.9334199999999998  1.0000
  O   O14       1.0  0.55355  0.6767299999999999  0.99564  1.0000
  O   O15       1.0  0.04477  0.9410800000000001  0.49881  1.0000
  O   O16       1.0  0.5480999999999999  0.46675000000000005  0.90048  1.0000
  O   O17       1.0  0.4822100000000005  0.5166  0.8403399999999998  1.0000
  O   O18       1.0  0.1061300000000002  0.99963  0.55961  1.0000
  O   O19       1.0  0.19236  0.90344  0.56762  1.0000
  O   O20       1.0  0.39329999999999987  0.6581000000000002  0.82622  1.0000
  O   O21       1.0  0.40068000000000004  0.7220800000000002  0.8642699999999998  1.0000
  O   O22       1.0  0.4821900000000001  0.60064  0.9089899999999997  1.0000
  O   O23       1.0  0.3747000000000002  0.40169999999999995  0.17382999999999996  1.0000
  O   O24       1.0  0.37542  0.31918  0.15316  1.0000
  O   O25       1.0  0.26320000000000016  0.9538599999999999  0.4743499999999999  1.0000
  O   O26       1.0  0.1476500000000001  0.033260000000000046  0.44857999999999987  1.0000
  O   O27       1.0  0.15940000000000015  0.7716600000000001  0.5662899999999997  1.0000
  O   O28       1.0  0.22327000000000005  0.8244499999999999  0.50305  1.0000
  O   O29       1.0  0.5144300000000002  0.44091  0.9983299999999998  1.0000
  O   O30       1.0  0.08426000000000002  0.9667799999999999  0.4002499999999999  1.0000
  O   O31       1.0  0.16093000000000007  0.01661000000000003  0.3404399999999999  1.0000
  O   O32       1.0  0.33488000000000007  0.50011  0.06057  1.0000
  O   O33       1.0  0.33443000000000006  0.40486  0.06672  1.0000
  O   O34       1.0  0.12095000000000002  0.15849  0.32681  1.0000
  O   O35       1.0  0.013359999999999974  0.22220000000000004  0.36555  1.0000
  O   O36       1.0  0.008900000000000033  0.10032000000000005  0.4089699999999999  1.0000
  O   O37       1.0  0.04875999999999994  0.90025  0.67483  1.0000
  O   O38       1.0  0.15220000000000006  0.8192000000000002  0.6526799999999998  1.0000
  O   O39       1.0  0.3118200000000001  0.45338000000000006  0.9719499999999998  1.0000
  O   O40       1.0  0.37034  0.5341300000000001  0.94933  1.0000
  O   O41       1.0  0.50517  0.27062  0.06657999999999997  1.0000
  O   O42       1.0  0.44644000000000006  0.32327  0.00436  1.0000
  O   O43       1.0  0.95522  0.058919999999999986  0.50119  1.0000
  O   O44       1.0  0.45189000000000007  0.53325  0.09951999999999997  1.0000
  O   O45       1.0  0.5177800000000002  0.4834  0.15966  1.0000
  O   O46       1.0  0.8938600000000004  0.00037000000000000455  0.44039  1.0000
  O   O47       1.0  0.80763  0.09655  0.43238  1.0000
  O   O48       1.0  0.60669  0.34190000000000004  0.17378  1.0000
  O   O49       1.0  0.59931  0.27791  0.13573  1.0000
  O   O50       1.0  0.5178000000000003  0.39936  0.09101  1.0000
  O   O51       1.0  0.6252899999999999  0.5983  0.82618  1.0000
  O   O52       1.0  0.6245700000000001  0.6808200000000002  0.84684  1.0000
  O   O53       1.0  0.73679  0.04614000000000008  0.5256499999999997  1.0000
  O   O54       1.0  0.8523400000000002  0.96673  0.5514199999999998  1.0000
  O   O55       1.0  0.8405900000000001  0.22834  0.4337099999999999  1.0000
  O   O56       1.0  0.7767200000000003  0.17555000000000007  0.4969599999999999  1.0000
