data_image0
_chemical_formula_structural       Ba18H216C264N12O108
_chemical_formula_sum              "Ba18 H216 C264 N12 O108"
_cell_length_a       19.62009
_cell_length_b       20.195399999999996
_cell_length_c       31.9346
_cell_angle_alpha    77.13452
_cell_angle_beta     83.84086
_cell_angle_gamma    61.06770000000001

_symmetry_space_group_name_H-M    'P 1'
_symmetry_Int_Tables_number       1

loop_
  _symmetry_equiv_pos_as_xyz
  'x,y,z'

loop_
  _atom_site_type_symbol
  _atom_site_label
  _atom_site_symmetry_multiplicity
  _atom_site_fract_x
  _atom_site_fract_y
  _atom_site_fract_z
  _atom_site_occupancy
  Ba  Ba1       1.0  0.5527999999999998  0.73554  0.07064  1.0000
  Ba  Ba2       1.0  0.7000299999999999  0.6793700000000001  0.17007  1.0000
  Ba  Ba3       1.0  0.62029  0.66022  0.29505  1.0000
  Ba  Ba4       1.0  0.6740600000000001  0.72389  0.39889  1.0000
  Ba  Ba5       1.0  0.6708000000000001  0.61942  0.52187  1.0000
  Ba  Ba6       1.0  0.7763599999999999  0.6049599999999999  0.6294300000000003  1.0000
  Ba  Ba7       1.0  0.6699100000000001  0.59776  0.75218  1.0000
  Ba  Ba8       1.0  0.64754  0.7254600000000001  0.84236  1.0000
  Ba  Ba9       1.0  0.6997900000000001  0.63113  0.9761000000000002  1.0000
  Ba  Ba10      1.0  0.44721  0.26445  0.92936  1.0000
  Ba  Ba11      1.0  0.29998  0.3206300000000001  0.82993  1.0000
  Ba  Ba12      1.0  0.37970999999999994  0.33978  0.70495  1.0000
  Ba  Ba13      1.0  0.32594000000000006  0.27611  0.60111  1.0000
  Ba  Ba14      1.0  0.3291999999999998  0.38058  0.4781300000000001  1.0000
  Ba  Ba15      1.0  0.22364999999999993  0.39503  0.3705700000000001  1.0000
  Ba  Ba16      1.0  0.33009  0.40223000000000003  0.24783  1.0000
  Ba  Ba17      1.0  0.35246  0.27453  0.15764  1.0000
  Ba  Ba18      1.0  0.3002199999999999  0.36886000000000013  0.0239  1.0000
  H   H1        1.0  0.10864999999999997  0.10087000000000004  0.14425  1.0000
  H   H2        1.0  0.05462000000000001  0.11806999999999997  0.09834  1.0000
  H   H3        1.0  0.01526999999999995  0.18122000000000005  0.13546000000000005  1.0000
  H   H4        1.0  0.7804  0.15947000000000003  0.18143000000000006  1.0000
  H   H5        1.0  0.78767  0.06634  0.19235  1.0000
  H   H6        1.0  0.7998499999999998  0.10468000000000001  0.23381  1.0000
  H   H7        1.0  0.051380000000000016  0.84266  0.24693  1.0000
  H   H8        1.0  0.11141999999999994  0.83467  0.20109  1.0000
  H   H9        1.0  0.12812999999999997  0.8661000000000001  0.24435  1.0000
  H   H10       1.0  0.16385999999999984  0.8977100000000001  0.15916  1.0000
  H   H11       1.0  0.15664999999999996  0.98891  0.13573  1.0000
  H   H12       1.0  0.2891299999999999  0.8853700000000001  0.26273  1.0000
  H   H13       1.0  0.43392  0.81185  0.2575400000000001  1.0000
  H   H14       1.0  0.41448  0.85816  0.12004  1.0000
  H   H15       1.0  0.2730699999999999  0.9265300000000001  0.1247  1.0000
  H   H16       1.0  0.94824  0.9125500000000001  0.27316  1.0000
  H   H17       1.0  0.8542600000000001  0.98274  0.25256  1.0000
  H   H18       1.0  0.81456  0.9099500000000001  0.29051  1.0000
  H   H19       1.0  0.73779  0.8400100000000001  0.3117  1.0000
  H   H20       1.0  0.8448700000000001  0.71126  0.21134000000000006  1.0000
  H   H21       1.0  0.92225  0.78154  0.18925  1.0000
  H   H22       1.0  0.9108700000000001  0.19133000000000003  0.10651  1.0000
  H   H23       1.0  0.8251799999999999  0.19506  0.13265  1.0000
  H   H24       1.0  0.8026899999999999  0.30138  0.08266  1.0000
  H   H25       1.0  0.71924  0.44096  0.05575  1.0000
  H   H26       1.0  0.7681799999999999  0.49115  0.16965  1.0000
  H   H27       1.0  0.8531299999999999  0.35273  0.19636  1.0000
  H   H28       1.0  0.79788  0.1297  0.42247  1.0000
  H   H29       1.0  0.81986  0.03211000000000001  0.43674  1.0000
  H   H30       1.0  0.81841  0.08087999999999997  0.47661  1.0000
  H   H31       1.0  0.17251999999999992  0.8491899999999999  0.4602100000000001  1.0000
  H   H32       1.0  0.11059999999999985  0.8614000000000004  0.50513  1.0000
  H   H33       1.0  0.09552000000000004  0.8256899999999999  0.4635800000000001  1.0000
  H   H34       1.0  0.11608999999999994  0.11198999999999999  0.3904100000000001  1.0000
  H   H35       1.0  0.04593  0.14642000000000002  0.3492  1.0000
  H   H36       1.0  0.02163999999999998  0.18741000000000002  0.39561  1.0000
  H   H37       1.0  0.91492  0.20934000000000005  0.36781  1.0000
  H   H38       1.0  0.8375100000000001  0.18652999999999995  0.37980000000000014  1.0000
  H   H39       1.0  0.8035599999999998  0.32459000000000016  0.35306  1.0000
  H   H40       1.0  0.73675  0.46539  0.34657  1.0000
  H   H41       1.0  0.7677099999999999  0.43910000000000005  0.48196  1.0000
  H   H42       1.0  0.8362699999999998  0.29672000000000015  0.48862  1.0000
  H   H43       1.0  0.98816  0.88395  0.51049  1.0000
  H   H44       1.0  0.89023  0.9533400000000001  0.4966700000000001  1.0000
  H   H45       1.0  0.8764800000000001  0.85755  0.5348  1.0000
  H   H46       1.0  0.8071799999999998  0.7799200000000001  0.55413  1.0000
  H   H47       1.0  0.85904  0.71683  0.43037  1.0000
  H   H48       1.0  0.93202  0.79209  0.41086  1.0000
  H   H49       1.0  0.19449999999999998  0.90836  0.4109700000000001  1.0000
  H   H50       1.0  0.17520000000000005  0.0007799999999999871  0.38138  1.0000
  H   H51       1.0  0.27741999999999994  0.97373  0.50872  1.0000
  H   H52       1.0  0.41826000000000013  0.8826499999999999  0.5272300000000002  1.0000
  H   H53       1.0  0.4483  0.79776  0.41133  1.0000
  H   H54       1.0  0.30857999999999963  0.8850800000000003  0.39319  1.0000
  H   H55       1.0  0.19550999999999996  0.99356  0.64274  1.0000
  H   H56       1.0  0.10957999999999997  0.04519999999999992  0.6117400000000002  1.0000
  H   H57       1.0  0.11421  0.07574000000000003  0.65816  1.0000
  H   H58       1.0  0.86524  0.054740000000000004  0.69144  1.0000
  H   H59       1.0  0.8744  0.96176  0.69571  1.0000
  H   H60       1.0  0.8831899999999998  0.99286  0.74167  1.0000
  H   H61       1.0  0.13663999999999998  0.7326500000000001  0.7347  1.0000
  H   H62       1.0  0.21797999999999995  0.74107  0.71129  1.0000
  H   H63       1.0  0.1890699999999999  0.75771  0.7641900000000003  1.0000
  H   H64       1.0  0.25187000000000004  0.90803  0.69068  1.0000
  H   H65       1.0  0.26043000000000005  0.81821  0.71858  1.0000
  H   H66       1.0  0.3716900000000001  0.8117199999999999  0.70943  1.0000
  H   H67       1.0  0.5115899999999999  0.7429200000000001  0.70063  1.0000
  H   H68       1.0  0.48402999999999996  0.7009000000000001  0.57884  1.0000
  H   H69       1.0  0.3398  0.7699499999999999  0.58763  1.0000
  H   H70       1.0  0.034880000000000036  0.79977  0.77598  1.0000
  H   H71       1.0  0.94051  0.8714400000000003  0.75653  1.0000
  H   H72       1.0  0.9913999999999997  0.7052600000000002  0.67259  1.0000
  H   H73       1.0  0.8945400000000001  0.6570700000000002  0.6784  1.0000
  H   H74       1.0  0.79952  0.7522900000000001  0.79156  1.0000
  H   H75       1.0  0.8950799999999998  0.7993100000000002  0.78678  1.0000
  H   H76       1.0  0.9914900000000001  0.08986  0.61614  1.0000
  H   H77       1.0  0.9089999999999999  0.08849000000000003  0.64336  1.0000
  H   H78       1.0  0.95213  0.26419  0.68711  1.0000
  H   H79       1.0  0.87484  0.39923  0.64928  1.0000
  H   H80       1.0  0.78185  0.32508  0.56449  1.0000
  H   H81       1.0  0.86008  0.18926999999999997  0.60134  1.0000
  H   H82       1.0  0.10550000000000007  0.09176999999999998  0.87903  1.0000
  H   H83       1.0  0.02659000000000001  0.12667999999999996  0.84408  1.0000
  H   H84       1.0  0.014800000000000013  0.16916999999999996  0.88917  1.0000
  H   H85       1.0  0.16415  0.83417  0.95816  1.0000
  H   H86       1.0  0.1089799999999999  0.8455700000000003  0.00569  1.0000
  H   H87       1.0  0.08677999999999997  0.8105  0.96624  1.0000
  H   H88       1.0  0.7867900000000001  0.1163499999999999  0.9346000000000002  1.0000
  H   H89       1.0  0.8124599999999998  0.018650000000000017  0.95566  1.0000
  H   H90       1.0  0.8165  0.07611999999999995  0.9886300000000002  1.0000
  H   H91       1.0  0.8957099999999999  0.18538999999999997  0.86377  1.0000
  H   H92       1.0  0.8204199999999999  0.17900000000000005  0.89796  1.0000
  H   H93       1.0  0.7703399999999999  0.29802  0.8619200000000002  1.0000
  H   H94       1.0  0.7005600000000001  0.43957  0.84223  1.0000
  H   H95       1.0  0.83252  0.4557399999999999  0.9348500000000002  1.0000
  H   H96       1.0  0.9055699999999999  0.31163000000000013  0.9546  1.0000
  H   H97       1.0  0.17702000000000004  0.8888399999999999  0.90296  1.0000
  H   H98       1.0  0.1561799999999999  0.9805400000000001  0.87172  1.0000
  H   H99       1.0  0.2899499999999999  0.95644  0.98487  1.0000
  H   H100      1.0  0.43221  0.86929  0.9929100000000002  1.0000
  H   H101      1.0  0.4307  0.77601  0.88477  1.0000
  H   H102      1.0  0.28867  0.8610700000000001  0.87688  1.0000
  H   H103      1.0  0.98953  0.8743  0.02036  1.0000
  H   H104      1.0  0.89273  0.95122  0.01447  1.0000
  H   H105      1.0  0.86948  0.87026  0.05882  1.0000
  H   H106      1.0  0.7804499999999998  0.81737  0.08991  1.0000
  H   H107      1.0  0.7798300000000001  0.75268  0.97084  1.0000
  H   H108      1.0  0.8697899999999998  0.80503  0.93905  1.0000
  H   H109      1.0  0.8913600000000003  0.8991299999999999  0.8557500000000002  1.0000
  H   H110      1.0  0.9453899999999998  0.88192  0.9016600000000002  1.0000
  H   H111      1.0  0.9847399999999997  0.8187800000000002  0.86454  1.0000
  H   H112      1.0  0.21960999999999997  0.8405200000000002  0.81857  1.0000
  H   H113      1.0  0.21232999999999985  0.9336600000000002  0.8076500000000001  1.0000
  H   H114      1.0  0.20015999999999995  0.8953200000000001  0.76619  1.0000
  H   H115      1.0  0.94863  0.15734000000000004  0.75307  1.0000
  H   H116      1.0  0.88859  0.16532  0.79892  1.0000
  H   H117      1.0  0.87187  0.13390000000000002  0.75565  1.0000
  H   H118      1.0  0.8361499999999998  0.10227999999999998  0.84085  1.0000
  H   H119      1.0  0.8433600000000002  0.011080000000000017  0.86427  1.0000
  H   H120      1.0  0.71088  0.11461999999999997  0.73727  1.0000
  H   H121      1.0  0.5660800000000001  0.18814  0.74246  1.0000
  H   H122      1.0  0.5855200000000002  0.14183  0.87997  1.0000
  H   H123      1.0  0.7269399999999998  0.07346  0.87531  1.0000
  H   H124      1.0  0.05176999999999999  0.08744000000000003  0.72684  1.0000
  H   H125      1.0  0.14574  0.017259999999999935  0.7474400000000002  1.0000
  H   H126      1.0  0.18545000000000003  0.09005  0.70949  1.0000
  H   H127      1.0  0.26222000000000006  0.15997999999999998  0.6883  1.0000
  H   H128      1.0  0.15512999999999993  0.28873  0.78866  1.0000
  H   H129      1.0  0.07776  0.21846  0.81075  1.0000
  H   H130      1.0  0.08914000000000004  0.80866  0.89349  1.0000
  H   H131      1.0  0.1748199999999999  0.8049400000000003  0.86736  1.0000
  H   H132      1.0  0.19730999999999982  0.6986200000000004  0.91735  1.0000
  H   H133      1.0  0.28075999999999995  0.5590300000000001  0.94425  1.0000
  H   H134      1.0  0.23182999999999998  0.50884  0.83035  1.0000
  H   H135      1.0  0.14686999999999997  0.64727  0.80365  1.0000
  H   H136      1.0  0.20211999999999986  0.87029  0.5775400000000003  1.0000
  H   H137      1.0  0.1801499999999999  0.9678800000000001  0.56326  1.0000
  H   H138      1.0  0.18158999999999992  0.9191099999999999  0.5233900000000002  1.0000
  H   H139      1.0  0.8274899999999997  0.15080000000000002  0.53979  1.0000
  H   H140      1.0  0.8894099999999999  0.13859  0.49487  1.0000
  H   H141      1.0  0.9044799999999998  0.1743099999999999  0.5364200000000002  1.0000
  H   H142      1.0  0.8839199999999998  0.8880000000000002  0.60959  1.0000
  H   H143      1.0  0.95407  0.8535700000000002  0.6508  1.0000
  H   H144      1.0  0.9783599999999999  0.8125800000000001  0.60439  1.0000
  H   H145      1.0  0.0850799999999999  0.7906600000000001  0.63219  1.0000
  H   H146      1.0  0.1625  0.81346  0.62021  1.0000
  H   H147      1.0  0.19645000000000004  0.6753999999999999  0.6469400000000002  1.0000
  H   H148      1.0  0.2632600000000001  0.5345999999999999  0.6534300000000002  1.0000
  H   H149      1.0  0.2322899999999998  0.5608900000000001  0.5180400000000002  1.0000
  H   H150      1.0  0.16374  0.70327  0.51138  1.0000
  H   H151      1.0  0.011850000000000001  0.11604  0.48952  1.0000
  H   H152      1.0  0.10978000000000003  0.04666  0.50334  1.0000
  H   H153      1.0  0.12351999999999995  0.14244000000000007  0.4652  1.0000
  H   H154      1.0  0.1928199999999999  0.22007  0.44587  1.0000
  H   H155      1.0  0.14097000000000004  0.28315999999999997  0.56964  1.0000
  H   H156      1.0  0.06797999999999996  0.20790000000000008  0.58914  1.0000
  H   H157      1.0  0.80551  0.09163  0.58903  1.0000
  H   H158      1.0  0.8248100000000002  0.99922  0.61863  1.0000
  H   H159      1.0  0.7225900000000001  0.02625999999999995  0.4912900000000001  1.0000
  H   H160      1.0  0.58174  0.11735000000000001  0.47277  1.0000
  H   H161      1.0  0.5516999999999999  0.20223000000000005  0.58867  1.0000
  H   H162      1.0  0.6914299999999999  0.11491000000000001  0.60681  1.0000
  H   H163      1.0  0.8044999999999998  0.006440000000000005  0.35726  1.0000
  H   H164      1.0  0.89043  0.9548000000000001  0.38826  1.0000
  H   H165      1.0  0.8858  0.92425  0.34184  1.0000
  H   H166      1.0  0.13476999999999997  0.9452500000000001  0.30856  1.0000
  H   H167      1.0  0.12561  0.03823000000000001  0.3043  1.0000
  H   H168      1.0  0.11681  0.0071299999999999975  0.25833  1.0000
  H   H169      1.0  0.8633699999999999  0.26735  0.26531  1.0000
  H   H170      1.0  0.78203  0.25893  0.28872  1.0000
  H   H171      1.0  0.8109399999999999  0.24229  0.23582000000000006  1.0000
  H   H172      1.0  0.7481299999999999  0.09196000000000001  0.30933  1.0000
  H   H173      1.0  0.7395699999999998  0.18178000000000002  0.28142  1.0000
  H   H174      1.0  0.62832  0.18827000000000008  0.29057  1.0000
  H   H175      1.0  0.48840999999999996  0.25707  0.29937  1.0000
  H   H176      1.0  0.5159700000000002  0.29908999999999997  0.42116  1.0000
  H   H177      1.0  0.6602100000000001  0.23004  0.41237  1.0000
  H   H178      1.0  0.96512  0.20022000000000004  0.22402  1.0000
  H   H179      1.0  0.05948999999999998  0.12856000000000004  0.24347  1.0000
  H   H180      1.0  0.008609999999999934  0.2947400000000001  0.32741  1.0000
  H   H181      1.0  0.1054599999999999  0.3429300000000001  0.3216100000000001  1.0000
  H   H182      1.0  0.20048  0.24771000000000004  0.20844  1.0000
  H   H183      1.0  0.10491999999999996  0.20068000000000003  0.21322  1.0000
  H   H184      1.0  0.00851000000000002  0.91013  0.38387  1.0000
  H   H185      1.0  0.09099999999999996  0.9115  0.35665  1.0000
  H   H186      1.0  0.047869999999999975  0.7358000000000001  0.3129  1.0000
  H   H187      1.0  0.12515999999999994  0.60077  0.35072  1.0000
  H   H188      1.0  0.21815999999999994  0.67492  0.43552  1.0000
  H   H189      1.0  0.13993  0.81072  0.3986600000000001  1.0000
  H   H190      1.0  0.8945099999999998  0.9082300000000001  0.12097  1.0000
  H   H191      1.0  0.9734199999999997  0.8733100000000001  0.15593  1.0000
  H   H192      1.0  0.9852099999999999  0.83083  0.11083  1.0000
  H   H193      1.0  0.83586  0.16583000000000006  0.04184  1.0000
  H   H194      1.0  0.89102  0.15443  0.99431  1.0000
  H   H195      1.0  0.9132300000000001  0.18950000000000006  0.03377  1.0000
  H   H196      1.0  0.21321999999999988  0.8836400000000001  0.06540000000000003  1.0000
  H   H197      1.0  0.18754000000000004  0.98134  0.04434  1.0000
  H   H198      1.0  0.1835099999999999  0.9238700000000001  0.01138  1.0000
  H   H199      1.0  0.1043  0.81461  0.13623  1.0000
  H   H200      1.0  0.17958999999999992  0.821  0.10205000000000003  1.0000
  H   H201      1.0  0.22966000000000003  0.70198  0.13808  1.0000
  H   H202      1.0  0.29945  0.56043  0.15777  1.0000
  H   H203      1.0  0.16748000000000002  0.54425  0.06516  1.0000
  H   H204      1.0  0.09442999999999997  0.6883700000000001  0.04541  1.0000
  H   H205      1.0  0.8229899999999999  0.11116000000000004  0.09705  1.0000
  H   H206      1.0  0.84382  0.019450000000000002  0.12828  1.0000
  H   H207      1.0  0.71006  0.04355  0.01513  1.0000
  H   H208      1.0  0.56779  0.13071000000000002  0.0071  1.0000
  H   H209      1.0  0.56931  0.22398000000000007  0.11523  1.0000
  H   H210      1.0  0.71134  0.13892  0.12312  1.0000
  H   H211      1.0  0.010480000000000008  0.12570000000000003  0.97965  1.0000
  H   H212      1.0  0.10727000000000002  0.04878000000000001  0.98553  1.0000
  H   H213      1.0  0.13052999999999998  0.12973000000000004  0.94118  1.0000
  H   H214      1.0  0.21956000000000006  0.18261999999999992  0.9101000000000002  1.0000
  H   H215      1.0  0.22018000000000001  0.24731000000000003  0.02917  1.0000
  H   H216      1.0  0.13022  0.19496  0.06096  1.0000
  C   C1        1.0  0.06118000000000001  0.99476  0.17708  1.0000
  C   C2        1.0  0.01434000000000001  0.07252  0.1585  1.0000
  C   C3        1.0  0.93291  0.10588000000000004  0.16418  1.0000
  C   C4        1.0  0.89943  0.06489000000000002  0.19204000000000004  1.0000
  C   C5        1.0  0.9484800000000001  0.9887599999999999  0.21347  1.0000
  C   C6        1.0  0.02902  0.9525600000000001  0.20522  1.0000
  C   C7        1.0  0.04998  0.12055  0.13267  1.0000
  C   C8        1.0  0.8125799999999999  0.10076000000000003  0.19988000000000006  1.0000
  C   C9        1.0  0.08206999999999996  0.86988  0.22570000000000004  1.0000
  C   C10       1.0  0.14563999999999994  0.95552  0.16514  1.0000
  C   C11       1.0  0.27173999999999987  0.9096100000000001  0.19448000000000004  1.0000
  C   C12       1.0  0.31784  0.87793  0.23178  1.0000
  C   C13       1.0  0.3983499999999999  0.83628  0.2287  1.0000
  C   C14       1.0  0.43437  0.82707  0.18832  1.0000
  C   C15       1.0  0.38767000000000007  0.86303  0.15147000000000005  1.0000
  C   C16       1.0  0.30702999999999997  0.90272  0.15404  1.0000
  C   C17       1.0  0.5190100000000001  0.77766  0.18363  1.0000
  C   C18       1.0  0.9137599999999999  0.9443900000000002  0.24365  1.0000
  C   C19       1.0  0.8717500000000001  0.85147  0.23753  1.0000
  C   C20       1.0  0.8214599999999997  0.86681  0.27296  1.0000
  C   C21       1.0  0.77883  0.8268300000000003  0.28516  1.0000
  C   C22       1.0  0.7852699999999999  0.7719100000000002  0.2626700000000001  1.0000
  C   C23       1.0  0.8374899999999997  0.7558400000000001  0.22796  1.0000
  C   C24       1.0  0.88086  0.7944  0.2156  1.0000
  C   C25       1.0  0.7364999999999999  0.7328800000000002  0.27445  1.0000
  C   C26       1.0  0.88411  0.18466  0.13809000000000005  1.0000
  C   C27       1.0  0.83352  0.31812  0.14146  1.0000
  C   C28       1.0  0.7964  0.34262  0.10149000000000002  1.0000
  C   C29       1.0  0.7497700000000002  0.42135  0.08616  1.0000
  C   C30       1.0  0.7390999999999999  0.47605000000000003  0.11009  1.0000
  C   C31       1.0  0.77723  0.4501800000000001  0.1499  1.0000
  C   C32       1.0  0.82463  0.37236  0.16534000000000004  1.0000
  C   C33       1.0  0.68607  0.55936  0.09473000000000001  1.0000
  C   C34       1.0  0.94669  0.10005000000000001  0.41161  1.0000
  C   C35       1.0  0.9204299999999999  0.04943999999999996  0.4361300000000001  1.0000
  C   C36       1.0  0.9755599999999999  0.9746600000000001  0.45579  1.0000
  C   C37       1.0  0.05596000000000006  0.94829  0.44889  1.0000
  C   C38       1.0  0.08134999999999994  0.9985900000000001  0.42300000000000004  1.0000
  C   C39       1.0  0.02707999999999998  0.07575  0.40641  1.0000
  C   C40       1.0  0.83479  0.07473000000000002  0.44316  1.0000
  C   C41       1.0  0.11194  0.86723  0.47009  1.0000
  C   C42       1.0  0.054559999999999984  0.13285000000000002  0.38413  1.0000
  C   C43       1.0  0.8889899999999998  0.18226  0.39328  1.0000
  C   C44       1.0  0.82579  0.3015300000000001  0.42145  1.0000
  C   C45       1.0  0.79711  0.3489100000000001  0.38127  1.0000
  C   C46       1.0  0.7593899999999998  0.42893000000000014  0.37768  1.0000
  C   C47       1.0  0.74928  0.46276000000000006  0.41332  1.0000
  C   C48       1.0  0.77642  0.41417  0.45369  1.0000
  C   C49       1.0  0.81418  0.33464000000000005  0.45772  1.0000
  C   C50       1.0  0.7133300000000001  0.54784  0.40888  1.0000
  C   C51       1.0  0.9483  0.9212  0.48354000000000014  1.0000
  C   C52       1.0  0.9077700000000001  0.8306300000000001  0.47107  1.0000
  C   C53       1.0  0.8735400000000002  0.8265499999999999  0.51187  1.0000
  C   C54       1.0  0.83445  0.7827400000000001  0.52274  1.0000
  C   C55       1.0  0.8273899999999998  0.74385  0.49353  1.0000
  C   C56       1.0  0.8627  0.74817  0.45293  1.0000
  C   C57       1.0  0.9032699999999998  0.7899300000000002  0.44185  1.0000
  C   C58       1.0  0.7825  0.70012  0.50441  1.0000
  C   C59       1.0  0.16644999999999985  0.9697100000000002  0.41259  1.0000
  C   C60       1.0  0.28349000000000013  0.9327999999999999  0.4509900000000001  1.0000
  C   C61       1.0  0.31523999999999996  0.93424  0.488  1.0000
  C   C62       1.0  0.39326  0.88435  0.49796  1.0000
  C   C63       1.0  0.44146  0.8337200000000001  0.47074  1.0000
  C   C64       1.0  0.41026000000000007  0.8357899999999999  0.43277  1.0000
  C   C65       1.0  0.3315300000000001  0.8847700000000001  0.42272  1.0000
  C   C66       1.0  0.52348  0.7763400000000001  0.48369  1.0000
  C   C67       1.0  0.14736999999999983  0.8974500000000003  0.6912  1.0000
  C   C68       1.0  0.09891  0.97395  0.6708  1.0000
  C   C69       1.0  0.01723  0.004549999999999966  0.67443  1.0000
  C   C70       1.0  0.9844500000000002  0.96087  0.70033  1.0000
  C   C71       1.0  0.0340799999999999  0.8838100000000001  0.7200500000000002  1.0000
  C   C72       1.0  0.11512000000000001  0.85082  0.7141300000000003  1.0000
  C   C73       1.0  0.13197000000000003  0.024029999999999902  0.6448000000000003  1.0000
  C   C74       1.0  0.8975400000000001  0.9942700000000001  0.70737  1.0000
  C   C75       1.0  0.16737999999999995  0.76643  0.73198  1.0000
  C   C76       1.0  0.23432000000000006  0.8641099999999999  0.69031  1.0000
  C   C77       1.0  0.3457999999999999  0.79441  0.64919  1.0000
  C   C78       1.0  0.3943599999999999  0.7872199999999999  0.68091  1.0000
  C   C79       1.0  0.47468999999999995  0.74721  0.67602  1.0000
  C   C80       1.0  0.50818  0.7142000000000001  0.63991  1.0000
  C   C81       1.0  0.45866  0.7236700000000001  0.60773  1.0000
  C   C82       1.0  0.3782300000000001  0.76292  0.61228  1.0000
  C   C83       1.0  0.59407  0.67129  0.63645  1.0000
  C   C84       1.0  0.0002500000000000464  0.83533  0.74692  1.0000
  C   C85       1.0  0.94761  0.7578700000000002  0.72812  1.0000
  C   C86       1.0  0.9481100000000001  0.7160299999999998  0.6980700000000002  1.0000
  C   C87       1.0  0.89394  0.6897400000000001  0.7014  1.0000
  C   C88       1.0  0.83817  0.70383  0.73452  1.0000
  C   C89       1.0  0.8400699999999999  0.7434500000000004  0.76487  1.0000
  C   C90       1.0  0.89426  0.7701700000000001  0.76222  1.0000
  C   C91       1.0  0.78022  0.67568  0.73741  1.0000
  C   C92       1.0  0.9662999999999999  0.08240999999999998  0.64808  1.0000
  C   C93       1.0  0.91206  0.21754  0.64649  1.0000
  C   C94       1.0  0.91538  0.2775  0.66001  1.0000
  C   C95       1.0  0.8719600000000001  0.35332  0.63848  1.0000
  C   C96       1.0  0.82386  0.37114  0.60366  1.0000
  C   C97       1.0  0.8199  0.3109199999999999  0.59111  1.0000
  C   C98       1.0  0.8637299999999999  0.23470999999999997  0.612  1.0000
  C   C99       1.0  0.777  0.45172  0.5797  1.0000
  C   C100      1.0  0.93713  0.08631000000000001  0.9158  1.0000
  C   C101      1.0  0.01666000000000001  0.05907  0.90516  1.0000
  C   C102      1.0  0.07066999999999989  0.9815000000000002  0.92054  1.0000
  C   C103      1.0  0.047499999999999855  0.9335400000000004  0.95081  1.0000
  C   C104      1.0  0.9687700000000001  0.9630299999999998  0.9631800000000003  1.0000
  C   C105      1.0  0.91234  0.03793000000000002  0.94419  1.0000
  C   C106      1.0  0.042399999999999986  0.11432000000000003  0.87795  1.0000
  C   C107      1.0  0.10507999999999977  0.8519700000000002  0.9708100000000002  1.0000
  C   C108      1.0  0.82776  0.06415999999999998  0.95592  1.0000
  C   C109      1.0  0.8806899999999999  0.16857000000000005  0.89718  1.0000
  C   C110      1.0  0.8432700000000001  0.2958100000000001  0.90946  1.0000
  C   C111      1.0  0.7856699999999999  0.33152999999999994  0.8775400000000002  1.0000
  C   C112      1.0  0.7456599999999999  0.41180000000000017  0.8667  1.0000
  C   C113      1.0  0.76124  0.45759000000000005  0.88723  1.0000
  C   C114      1.0  0.81878  0.42064999999999997  0.9194800000000002  1.0000
  C   C115      1.0  0.85978  0.34076  0.93046  1.0000
  C   C116      1.0  0.7194000000000002  0.54299  0.8750300000000002  1.0000
  C   C117      1.0  0.15295999999999996  0.9499200000000001  0.9042400000000003  1.0000
  C   C118      1.0  0.2795999999999999  0.9120600000000002  0.93184  1.0000
  C   C119      1.0  0.3212400000000001  0.9161600000000001  0.96347  1.0000
  C   C120      1.0  0.40060999999999997  0.8673200000000002  0.9677200000000002  1.0000
  C   C121      1.0  0.44099000000000005  0.81495  0.9401  1.0000
  C   C122      1.0  0.39965999999999985  0.81491  0.90694  1.0000
  C   C123      1.0  0.3192799999999999  0.8627100000000001  0.90269  1.0000
  C   C124      1.0  0.5245  0.75828  0.9479  1.0000
  C   C125      1.0  0.9432799999999999  0.9145300000000001  0.99698  1.0000
  C   C126      1.0  0.8750700000000002  0.8412100000000001  0.99657  1.0000
  C   C127      1.0  0.8505399999999999  0.84435  0.03941  1.0000
  C   C128      1.0  0.80064  0.81419  0.05697  1.0000
  C   C129      1.0  0.7748399999999999  0.7804700000000002  0.03278  1.0000
  C   C130      1.0  0.8003299999999999  0.7776300000000004  0.99002  1.0000
  C   C131      1.0  0.85005  0.8070500000000003  0.9721  1.0000
  C   C132      1.0  0.7204700000000002  0.74957  0.05127  1.0000
  C   C133      1.0  0.9388199999999999  0.005229999999999987  0.82293  1.0000
  C   C134      1.0  0.98567  0.92747  0.8415  1.0000
  C   C135      1.0  0.06709999999999992  0.8941100000000001  0.83582  1.0000
  C   C136      1.0  0.10057000000000005  0.9351  0.8079600000000002  1.0000
  C   C137      1.0  0.051520000000000024  0.011239999999999962  0.78653  1.0000
  C   C138      1.0  0.97099  0.04743000000000002  0.79478  1.0000
  C   C139      1.0  0.9500199999999999  0.8794400000000001  0.86733  1.0000
  C   C140      1.0  0.1874299999999999  0.8992300000000003  0.80012  1.0000
  C   C141      1.0  0.91794  0.13012  0.7743  1.0000
  C   C142      1.0  0.8543600000000001  0.044470000000000016  0.83487  1.0000
  C   C143      1.0  0.72827  0.09038  0.80552  1.0000
  C   C144      1.0  0.6821700000000002  0.12205999999999992  0.7682200000000002  1.0000
  C   C145      1.0  0.6016499999999999  0.16371  0.7713100000000003  1.0000
  C   C146      1.0  0.56563  0.17292999999999992  0.8116800000000002  1.0000
  C   C147      1.0  0.6123299999999999  0.13697  0.84854  1.0000
  C   C148      1.0  0.69298  0.09726999999999998  0.84596  1.0000
  C   C149      1.0  0.481  0.22232999999999997  0.81637  1.0000
  C   C150      1.0  0.08623999999999998  0.055610000000000014  0.75636  1.0000
  C   C151      1.0  0.12825999999999999  0.1485200000000001  0.76247  1.0000
  C   C152      1.0  0.17854000000000003  0.13318999999999998  0.7270400000000002  1.0000
  C   C153      1.0  0.22118000000000018  0.17316  0.71484  1.0000
  C   C154      1.0  0.21474  0.22809  0.73734  1.0000
  C   C155      1.0  0.1625099999999999  0.2441500000000001  0.77204  1.0000
  C   C156      1.0  0.11913999999999998  0.20559000000000002  0.7844  1.0000
  C   C157      1.0  0.26350000000000007  0.26711999999999997  0.72556  1.0000
  C   C158      1.0  0.11590000000000009  0.8153299999999999  0.86191  1.0000
  C   C159      1.0  0.16649  0.6818800000000002  0.85855  1.0000
  C   C160      1.0  0.20361  0.65738  0.8985100000000003  1.0000
  C   C161      1.0  0.2502399999999999  0.57864  0.91384  1.0000
  C   C162      1.0  0.2609  0.52395  0.88991  1.0000
  C   C163      1.0  0.22276999999999988  0.5498100000000004  0.8501  1.0000
  C   C164      1.0  0.17538000000000004  0.62763  0.8346600000000002  1.0000
  C   C165      1.0  0.31393999999999994  0.4406300000000001  0.90528  1.0000
  C   C166      1.0  0.05331000000000008  0.89994  0.58839  1.0000
  C   C167      1.0  0.07957000000000004  0.95055  0.5638800000000003  1.0000
  C   C168      1.0  0.024450000000000017  0.02532999999999999  0.54421  1.0000
  C   C169      1.0  0.94404  0.0517  0.55111  1.0000
  C   C170      1.0  0.9186599999999999  0.0014000000000000032  0.577  1.0000
  C   C171      1.0  0.9729300000000001  0.92424  0.59359  1.0000
  C   C172      1.0  0.16521999999999995  0.9252600000000001  0.55685  1.0000
  C   C173      1.0  0.88807  0.13275999999999996  0.52991  1.0000
  C   C174      1.0  0.9454399999999998  0.86714  0.61587  1.0000
  C   C175      1.0  0.11100999999999994  0.8177400000000001  0.60673  1.0000
  C   C176      1.0  0.17421999999999982  0.6984600000000002  0.5785500000000002  1.0000
  C   C177      1.0  0.20290000000000002  0.65108  0.61874  1.0000
  C   C178      1.0  0.24061999999999995  0.5710600000000001  0.6223200000000002  1.0000
  C   C179      1.0  0.25072  0.53723  0.5866800000000001  1.0000
  C   C180      1.0  0.22357999999999995  0.58582  0.54632  1.0000
  C   C181      1.0  0.18581999999999993  0.6653500000000001  0.5422800000000002  1.0000
  C   C182      1.0  0.28668  0.45214999999999994  0.59112  1.0000
  C   C183      1.0  0.0517  0.0788  0.51647  1.0000
  C   C184      1.0  0.09223999999999996  0.16936999999999997  0.5289300000000002  1.0000
  C   C185      1.0  0.12647000000000005  0.17344  0.48813  1.0000
  C   C186      1.0  0.16556  0.21724999999999997  0.47727  1.0000
  C   C187      1.0  0.17262000000000002  0.25614  0.50647  1.0000
  C   C188      1.0  0.1373  0.25181999999999993  0.5470700000000002  1.0000
  C   C189      1.0  0.09673  0.21006  0.55816  1.0000
  C   C190      1.0  0.2175  0.29987  0.49559  1.0000
  C   C191      1.0  0.83355  0.030279999999999998  0.58741  1.0000
  C   C192      1.0  0.7165200000000002  0.06718999999999992  0.5490200000000002  1.0000
  C   C193      1.0  0.68477  0.06574999999999999  0.51201  1.0000
  C   C194      1.0  0.60675  0.11565000000000003  0.50205  1.0000
  C   C195      1.0  0.55854  0.16626999999999997  0.52927  1.0000
  C   C196      1.0  0.5897399999999999  0.16421  0.56724  1.0000
  C   C197      1.0  0.6684699999999999  0.11522  0.57728  1.0000
  C   C198      1.0  0.47652000000000005  0.22365000000000002  0.51631  1.0000
  C   C199      1.0  0.8526399999999998  0.10255  0.3088000000000001  1.0000
  C   C200      1.0  0.90109  0.026049999999999972  0.3292000000000001  1.0000
  C   C201      1.0  0.98278  0.9954500000000001  0.3255800000000001  1.0000
  C   C202      1.0  0.01555999999999999  0.03913000000000001  0.29967  1.0000
  C   C203      1.0  0.96592  0.11618  0.27995  1.0000
  C   C204      1.0  0.8848800000000001  0.14917000000000002  0.28588  1.0000
  C   C205      1.0  0.8680399999999998  0.9759600000000002  0.3552  1.0000
  C   C206      1.0  0.10246  0.00572000000000001  0.29263  1.0000
  C   C207      1.0  0.83263  0.23357  0.26802  1.0000
  C   C208      1.0  0.7656900000000001  0.13589  0.3097  1.0000
  C   C209      1.0  0.65421  0.20559  0.35081  1.0000
  C   C210      1.0  0.60564  0.21277000000000007  0.31909  1.0000
  C   C211      1.0  0.5253100000000002  0.25278  0.32399  1.0000
  C   C212      1.0  0.49181999999999987  0.28579  0.3601  1.0000
  C   C213      1.0  0.54135  0.27632000000000007  0.39227000000000006  1.0000
  C   C214      1.0  0.62177  0.23708  0.38772  1.0000
  C   C215      1.0  0.4059400000000001  0.32869999999999994  0.3635500000000001  1.0000
  C   C216      1.0  0.9997499999999999  0.16466000000000006  0.25309  1.0000
  C   C217      1.0  0.05239999999999998  0.24212000000000003  0.27189  1.0000
  C   C218      1.0  0.05189999999999998  0.28396000000000005  0.30194  1.0000
  C   C219      1.0  0.10605999999999993  0.31025000000000014  0.29861  1.0000
  C   C220      1.0  0.16183  0.29617  0.26548  1.0000
  C   C221      1.0  0.15993000000000004  0.25653999999999993  0.23514  1.0000
  C   C222      1.0  0.10574  0.22982000000000002  0.23778  1.0000
  C   C223      1.0  0.21979  0.32431  0.26259  1.0000
  C   C224      1.0  0.033710000000000004  0.91758  0.35192  1.0000
  C   C225      1.0  0.08793999999999988  0.78245  0.35351000000000005  1.0000
  C   C226      1.0  0.08463000000000012  0.72249  0.33999  1.0000
  C   C227      1.0  0.12804999999999997  0.6466800000000001  0.36153  1.0000
  C   C228      1.0  0.17615  0.62886  0.39634  1.0000
  C   C229      1.0  0.18010000000000004  0.68907  0.4088900000000001  1.0000
  C   C230      1.0  0.13626999999999995  0.7652900000000001  0.388  1.0000
  C   C231      1.0  0.22299999999999986  0.5482700000000003  0.42031  1.0000
  C   C232      1.0  0.06288000000000007  0.91369  0.0842  1.0000
  C   C233      1.0  0.98334  0.94093  0.09485  1.0000
  C   C234      1.0  0.92934  0.01849  0.07946  1.0000
  C   C235      1.0  0.9525  0.06645000000000001  0.0492  1.0000
  C   C236      1.0  0.03123  0.03696  0.03683  1.0000
  C   C237      1.0  0.08766999999999997  0.9620600000000001  0.05581  1.0000
  C   C238      1.0  0.9576  0.8856700000000002  0.12205000000000003  1.0000
  C   C239      1.0  0.89492  0.14802  0.02919  1.0000
  C   C240      1.0  0.17225000000000001  0.93583  0.04408  1.0000
  C   C241      1.0  0.11932  0.83142  0.10282  1.0000
  C   C242      1.0  0.15673999999999996  0.70419  0.09054  1.0000
  C   C243      1.0  0.21433000000000005  0.66847  0.12246000000000003  1.0000
  C   C244      1.0  0.25434999999999985  0.5881900000000002  0.13331  1.0000
  C   C245      1.0  0.2387700000000001  0.5424099999999998  0.11278  1.0000
  C   C246      1.0  0.18123000000000006  0.57934  0.08052  1.0000
  C   C247      1.0  0.14022999999999994  0.65923  0.06954000000000003  1.0000
  C   C248      1.0  0.28061  0.4570100000000001  0.12497  1.0000
  C   C249      1.0  0.8470399999999999  0.05008  0.09577  1.0000
  C   C250      1.0  0.7204  0.08793  0.06816  1.0000
  C   C251      1.0  0.67876  0.08383  0.03653  1.0000
  C   C252      1.0  0.5994  0.13268  0.03228  1.0000
  C   C253      1.0  0.55902  0.18504000000000004  0.059900000000000016  1.0000
  C   C254      1.0  0.6003399999999999  0.18508000000000005  0.09306000000000003  1.0000
  C   C255      1.0  0.68073  0.13728000000000004  0.09731  1.0000
  C   C256      1.0  0.47550999999999993  0.24171  0.0521  1.0000
  C   C257      1.0  0.05671999999999998  0.08546000000000002  0.00303  1.0000
  C   C258      1.0  0.12492999999999999  0.15878000000000006  0.00343  1.0000
  C   C259      1.0  0.14945999999999998  0.15563999999999995  0.9606000000000002  1.0000
  C   C260      1.0  0.19935999999999993  0.18581  0.9430300000000003  1.0000
  C   C261      1.0  0.22515999999999994  0.21952999999999998  0.9672200000000002  1.0000
  C   C262      1.0  0.19968  0.22236  0.00998  1.0000
  C   C263      1.0  0.14996000000000004  0.19295  0.0279  1.0000
  C   C264      1.0  0.27952999999999983  0.2504300000000001  0.94873  1.0000
  N   N1        1.0  0.38445000000000007  0.7498  0.09868000000000003  1.0000
  N   N2        1.0  0.71554  0.49948  0.25831  1.0000
  N   N3        1.0  0.5366  0.82549  0.33102  1.0000
  N   N4        1.0  0.8267800000000001  0.45535000000000003  0.73011  1.0000
  N   N5        1.0  0.4896999999999999  0.7872800000000001  0.78822  1.0000
  N   N6        1.0  0.7904099999999998  0.6903200000000002  0.90232  1.0000
  N   N7        1.0  0.6155499999999999  0.25020000000000003  0.90132  1.0000
  N   N8        1.0  0.28447  0.50051  0.7417  1.0000
  N   N9        1.0  0.4634099999999998  0.17449999999999996  0.6689800000000002  1.0000
  N   N10       1.0  0.1732199999999999  0.5446400000000002  0.2699  1.0000
  N   N11       1.0  0.51031  0.21271000000000007  0.21178  1.0000
  N   N12       1.0  0.20960000000000004  0.30967  0.09768  1.0000
  O   O1        1.0  0.19261999999999999  0.9469500000000001  0.2003  1.0000
  O   O2        1.0  0.8783899999999999  0.24247  0.16041  1.0000
  O   O3        1.0  0.9132800000000001  0.88935  0.221  1.0000
  O   O4        1.0  0.5616300000000002  0.73424  0.21668  1.0000
  O   O5        1.0  0.54942  0.7777  0.14582000000000003  1.0000
  O   O6        1.0  0.7245400000000001  0.70329  0.24603  1.0000
  O   O7        1.0  0.70686  0.73007  0.31209  1.0000
  O   O8        1.0  0.65707  0.58288  0.05669  1.0000
  O   O9        1.0  0.66953  0.60591  0.12042  1.0000
  O   O10       1.0  0.86597  0.2226  0.42915  1.0000
  O   O11       1.0  0.9460199999999999  0.87273  0.45628000000000013  1.0000
  O   O12       1.0  0.20414999999999991  0.9795  0.44586  1.0000
  O   O13       1.0  0.6907900000000001  0.5920899999999999  0.3716100000000001  1.0000
  O   O14       1.0  0.70774  0.5761800000000001  0.442  1.0000
  O   O15       1.0  0.75688  0.68737  0.47324  1.0000
  O   O16       1.0  0.7703699999999999  0.6769000000000001  0.5439200000000002  1.0000
  O   O17       1.0  0.5683800000000001  0.73439  0.45639  1.0000
  O   O18       1.0  0.5459999999999999  0.76745  0.52107  1.0000
  O   O19       1.0  0.26592  0.83168  0.65194  1.0000
  O   O20       1.0  0.0007899999999999692  0.7843600000000001  0.72053  1.0000
  O   O21       1.0  0.95716  0.1437499999999999  0.6687300000000003  1.0000
  O   O22       1.0  0.63557  0.66008  0.66878  1.0000
  O   O23       1.0  0.6270000000000001  0.6462599999999998  0.6024800000000002  1.0000
  O   O24       1.0  0.7311399999999998  0.6866999999999999  0.76874  1.0000
  O   O25       1.0  0.7804699999999997  0.6401300000000002  0.7086500000000002  1.0000
  O   O26       1.0  0.7275499999999998  0.4647800000000001  0.55225  1.0000
  O   O27       1.0  0.78927  0.50551  0.58732  1.0000
  O   O28       1.0  0.8865499999999998  0.21756999999999993  0.9226300000000002  1.0000
  O   O29       1.0  0.2003699999999999  0.9575400000000001  0.93304  1.0000
  O   O30       1.0  0.9221799999999998  0.8703100000000003  0.97532  1.0000
  O   O31       1.0  0.68036  0.57608  0.8397600000000002  1.0000
  O   O32       1.0  0.7237000000000002  0.58279  0.9  1.0000
  O   O33       1.0  0.5670899999999996  0.7230200000000003  0.91855  1.0000
  O   O34       1.0  0.5523999999999999  0.74417  0.98553  1.0000
  O   O35       1.0  0.69697  0.75408  0.09013  1.0000
  O   O36       1.0  0.6969700000000001  0.72103  0.027510000000000003  1.0000
  O   O37       1.0  0.4474399999999999  0.6904800000000001  0.11443  1.0000
  O   O38       1.0  0.31929999999999986  0.75806  0.11223  1.0000
  O   O39       1.0  0.39049000000000006  0.80142  0.06866  1.0000
  O   O40       1.0  0.7202600000000001  0.55962  0.23574  1.0000
  O   O41       1.0  0.6598400000000002  0.51219  0.28543  1.0000
  O   O42       1.0  0.76427  0.4335700000000002  0.25396  1.0000
  O   O43       1.0  0.5109099999999998  0.8493299999999999  0.2935600000000001  1.0000
  O   O44       1.0  0.55671  0.8621600000000001  0.3499  1.0000
  O   O45       1.0  0.5458  0.75782  0.35188  1.0000
  O   O46       1.0  0.7742500000000001  0.49835  0.69995  1.0000
  O   O47       1.0  0.8025900000000001  0.45505999999999996  0.76877  1.0000
  O   O48       1.0  0.89625  0.4179900000000001  0.72065  1.0000
  O   O49       1.0  0.49887  0.82655  0.81127  1.0000
  O   O50       1.0  0.5513199999999999  0.72421  0.7814  1.0000
  O   O51       1.0  0.42558000000000024  0.8069299999999999  0.77316  1.0000
  O   O52       1.0  0.83179  0.6396899999999999  0.9332700000000003  1.0000
  O   O53       1.0  0.7176799999999999  0.7366800000000001  0.91026  1.0000
  O   O54       1.0  0.8150999999999999  0.6965200000000001  0.86465  1.0000
  O   O55       1.0  0.80739  0.05303999999999993  0.7997100000000003  1.0000
  O   O56       1.0  0.12162000000000009  0.75753  0.83959  1.0000
  O   O57       1.0  0.08673000000000003  0.11063999999999997  0.779  1.0000
  O   O58       1.0  0.43837999999999994  0.26574999999999993  0.78332  1.0000
  O   O59       1.0  0.4505899999999999  0.22228999999999996  0.8541800000000003  1.0000
  O   O60       1.0  0.27546999999999994  0.2967  0.75397  1.0000
  O   O61       1.0  0.29313999999999996  0.26993  0.68791  1.0000
  O   O62       1.0  0.3429400000000001  0.41711  0.94331  1.0000
  O   O63       1.0  0.33047000000000004  0.39409000000000005  0.87958  1.0000
  O   O64       1.0  0.13403999999999985  0.7774000000000001  0.57086  1.0000
  O   O65       1.0  0.05398  0.12727  0.54372  1.0000
  O   O66       1.0  0.7958600000000001  0.020490000000000046  0.55415  1.0000
  O   O67       1.0  0.30922000000000005  0.40791  0.62839  1.0000
  O   O68       1.0  0.29226  0.42382  0.558  1.0000
  O   O69       1.0  0.24311999999999995  0.31261999999999995  0.52676  1.0000
  O   O70       1.0  0.22963999999999984  0.32310000000000005  0.4560900000000001  1.0000
  O   O71       1.0  0.43162999999999996  0.2656  0.54361  1.0000
  O   O72       1.0  0.4539999999999999  0.23254  0.47893  1.0000
  O   O73       1.0  0.73409  0.16832  0.34807  1.0000
  O   O74       1.0  0.9992099999999999  0.21563  0.27947  1.0000
  O   O75       1.0  0.04284999999999995  0.85624  0.33127  1.0000
  O   O76       1.0  0.36444  0.33991000000000005  0.33122  1.0000
  O   O77       1.0  0.37300000000000005  0.35373999999999994  0.39753  1.0000
  O   O78       1.0  0.2688700000000001  0.3133  0.23127000000000006  1.0000
  O   O79       1.0  0.21954  0.3598600000000001  0.29136  1.0000
  O   O80       1.0  0.27246  0.53521  0.44775  1.0000
  O   O81       1.0  0.21072999999999995  0.49449000000000004  0.41269  1.0000
  O   O82       1.0  0.11345999999999996  0.7824200000000001  0.07738000000000003  1.0000
  O   O83       1.0  0.7996399999999999  0.042460000000000005  0.06697  1.0000
  O   O84       1.0  0.07781999999999999  0.12969  0.024680000000000007  1.0000
  O   O85       1.0  0.31965  0.42391000000000006  0.16025  1.0000
  O   O86       1.0  0.27629999999999993  0.4172  0.10001  1.0000
  O   O87       1.0  0.43292  0.27697000000000005  0.08145000000000002  1.0000
  O   O88       1.0  0.4476000000000001  0.25583  0.014480000000000003  1.0000
  O   O89       1.0  0.30304000000000003  0.24592000000000003  0.90987  1.0000
  O   O90       1.0  0.30302999999999997  0.27897  0.97249  1.0000
  O   O91       1.0  0.5525700000000001  0.3095200000000001  0.88557  1.0000
  O   O92       1.0  0.6806999999999997  0.24193999999999993  0.88778  1.0000
  O   O93       1.0  0.6095100000000001  0.19857000000000005  0.93134  1.0000
  O   O94       1.0  0.27974  0.44038  0.76427  1.0000
  O   O95       1.0  0.3401699999999998  0.4878100000000001  0.7145700000000003  1.0000
  O   O96       1.0  0.23572999999999997  0.56642  0.74604  1.0000
  O   O97       1.0  0.48910000000000003  0.15066999999999994  0.7064500000000002  1.0000
  O   O98       1.0  0.4433  0.13783  0.6501  1.0000
  O   O99       1.0  0.45420000000000005  0.24217999999999995  0.64812  1.0000
  O   O100      1.0  0.22574999999999998  0.50165  0.30006  1.0000
  O   O101      1.0  0.19741000000000009  0.5449399999999999  0.23123  1.0000
  O   O102      1.0  0.10375999999999999  0.58201  0.2793600000000001  1.0000
  O   O103      1.0  0.50113  0.17344  0.18873  1.0000
  O   O104      1.0  0.44867999999999997  0.27577999999999997  0.21861  1.0000
  O   O105      1.0  0.57442  0.19306000000000004  0.22684  1.0000
  O   O106      1.0  0.16822000000000004  0.36031  0.06674  1.0000
  O   O107      1.0  0.2823300000000001  0.26332  0.08974  1.0000
  O   O108      1.0  0.18490000000000004  0.3034700000000001  0.13535000000000005  1.0000
