data_image0
_chemical_formula_structural       Cu24H192C432O96
_chemical_formula_sum              "Cu24 H192 C432 O96"
_cell_length_a       38.16142
_cell_length_b       38.1598
_cell_length_c       38.16076
_cell_angle_alpha    60.01557000000001
_cell_angle_beta     60.0129
_cell_angle_gamma    60.01472

_space_group_name_H-M_alt    "P 1"
_space_group_IT_number       1

loop_
  _space_group_symop_operation_xyz
  'x, y, z'

loop_
  _atom_site_type_symbol
  _atom_site_label
  _atom_site_symmetry_multiplicity
  _atom_site_fract_x
  _atom_site_fract_y
  _atom_site_fract_z
  _atom_site_occupancy
  Cu  Cu1       1.0  0.7138699999999999  0.49998  0.28616  1.0000
  Cu  Cu2       1.0  0.77791  0.5  0.2221  1.0000
  Cu  Cu3       1.0  0.4999899999999998  0.71387  0.49996  1.0000
  Cu  Cu4       1.0  0.50001  0.77791  0.50001  1.0000
  Cu  Cu5       1.0  0.50002  0.28613  0.50001  1.0000
  Cu  Cu6       1.0  0.49998999999999993  0.22209  0.49998  1.0000
  Cu  Cu7       1.0  0.2861000000000001  0.5  0.71389  1.0000
  Cu  Cu8       1.0  0.22204999999999994  0.4999999999999999  0.77795  1.0000
  Cu  Cu9       1.0  0.4999999999999999  0.7138600000000002  0.28614  1.0000
  Cu  Cu10      1.0  0.5  0.77792  0.22209  1.0000
  Cu  Cu11      1.0  0.28614999999999996  0.50001  0.5  1.0000
  Cu  Cu12      1.0  0.22210000000000002  0.49997999999999987  0.49998  1.0000
  Cu  Cu13      1.0  0.7138699999999999  0.49999  0.49999  1.0000
  Cu  Cu14      1.0  0.7779199999999998  0.50001  0.50001  1.0000
  Cu  Cu15      1.0  0.4999999999999999  0.28614000000000006  0.71387  1.0000
  Cu  Cu16      1.0  0.49998999999999993  0.22209  0.77792  1.0000
  Cu  Cu17      1.0  0.50002  0.5000400000000002  0.28611  1.0000
  Cu  Cu18      1.0  0.4999999999999999  0.49999  0.22207  1.0000
  Cu  Cu19      1.0  0.71388  0.28611  0.50001  1.0000
  Cu  Cu20      1.0  0.7779399999999999  0.22204999999999997  0.50001  1.0000
  Cu  Cu21      1.0  0.28609999999999985  0.7138500000000002  0.50004  1.0000
  Cu  Cu22      1.0  0.22207  0.77793  0.50001  1.0000
  Cu  Cu23      1.0  0.49999000000000005  0.49998  0.71386  1.0000
  Cu  Cu24      1.0  0.5000099999999997  0.5000200000000001  0.7779  1.0000
  H   H1        1.0  0.7467200000000002  0.47646999999999995  0.14348  1.0000
  H   H2        1.0  0.70429  0.4647500000000001  0.0138  1.0000
  H   H3        1.0  0.74177  0.4623700000000002  0.94093  1.0000
  H   H4        1.0  0.47649999999999987  0.74668  0.63335  1.0000
  H   H5        1.0  0.46473  0.70432  0.81702  1.0000
  H   H6        1.0  0.46234000000000014  0.7418399999999999  0.85484  1.0000
  H   H7        1.0  0.63335  0.14335000000000003  0.47655  1.0000
  H   H8        1.0  0.81714  0.013810000000000013  0.46478  1.0000
  H   H9        1.0  0.85492  0.9409300000000004  0.46237  1.0000
  H   H10       1.0  0.14334000000000002  0.6333799999999999  0.74676  1.0000
  H   H11       1.0  0.013739999999999997  0.81712  0.70439  1.0000
  H   H12       1.0  0.9408500000000002  0.8548899999999999  0.74186  1.0000
  H   H13       1.0  0.63335  0.74668  0.14344  1.0000
  H   H14       1.0  0.81711  0.7043300000000002  0.01384  1.0000
  H   H15       1.0  0.85485  0.7418200000000001  0.94099  1.0000
  H   H16       1.0  0.1433899999999998  0.4765600000000002  0.63331  1.0000
  H   H17       1.0  0.013799999999999975  0.4647600000000002  0.8172  1.0000
  H   H18       1.0  0.9409400000000002  0.46236  0.85495  1.0000
  H   H19       1.0  0.74667  0.63338  0.47658  1.0000
  H   H20       1.0  0.7043099999999998  0.8171200000000001  0.46475  1.0000
  H   H21       1.0  0.74185  0.8549200000000001  0.46235  1.0000
  H   H22       1.0  0.4765799999999999  0.1434300000000001  0.74667  1.0000
  H   H23       1.0  0.46478  0.01375000000000003  0.70423  1.0000
  H   H24       1.0  0.4623599999999999  0.94092  0.74172  1.0000
  H   H25       1.0  0.4766299999999999  0.6333500000000002  0.14328  1.0000
  H   H26       1.0  0.4647499999999999  0.81714  0.01376  1.0000
  H   H27       1.0  0.4623500000000001  0.8548999999999999  0.9409  1.0000
  H   H28       1.0  0.7467099999999998  0.14340000000000003  0.63337  1.0000
  H   H29       1.0  0.70424  0.013780000000000035  0.81723  1.0000
  H   H30       1.0  0.7417200000000003  0.9409200000000001  0.85498  1.0000
  H   H31       1.0  0.14342000000000005  0.7466700000000001  0.47657  1.0000
  H   H32       1.0  0.013780000000000106  0.7042899999999999  0.46475  1.0000
  H   H33       1.0  0.94092  0.74177  0.46236  1.0000
  H   H34       1.0  0.6333499999999999  0.4766  0.74667  1.0000
  H   H35       1.0  0.8171299999999999  0.4647600000000002  0.7043  1.0000
  H   H36       1.0  0.8549300000000001  0.46236000000000005  0.74184  1.0000
  H   H37       1.0  0.2533500000000001  0.52338  0.36663  1.0000
  H   H38       1.0  0.2957199999999999  0.53523  0.18287  1.0000
  H   H39       1.0  0.25817999999999985  0.5376400000000002  0.14507  1.0000
  H   H40       1.0  0.52342  0.25333999999999995  0.85654  1.0000
  H   H41       1.0  0.5352299999999999  0.29572  0.98621  1.0000
  H   H42       1.0  0.53765  0.25825  0.05905  1.0000
  H   H43       1.0  0.36664999999999986  0.8566000000000003  0.25332  1.0000
  H   H44       1.0  0.18287999999999996  0.98619  0.29569  1.0000
  H   H45       1.0  0.14512  0.05904  0.25821  1.0000
  H   H46       1.0  0.8566599999999999  0.36667999999999995  0.5234  1.0000
  H   H47       1.0  0.9862100000000001  0.18284000000000009  0.53522  1.0000
  H   H48       1.0  0.05907000000000001  0.14507  0.53763  1.0000
  H   H49       1.0  0.36665  0.25332  0.52341  1.0000
  H   H50       1.0  0.18292000000000003  0.29566  0.53525  1.0000
  H   H51       1.0  0.14509999999999992  0.2581300000000001  0.53767  1.0000
  H   H52       1.0  0.85658  0.52345  0.25331  1.0000
  H   H53       1.0  0.9862300000000002  0.53524  0.29571  1.0000
  H   H54       1.0  0.05909000000000002  0.53765  0.25822  1.0000
  H   H55       1.0  0.25332999999999994  0.36668000000000006  0.85666  1.0000
  H   H56       1.0  0.29568999999999995  0.18286  0.98622  1.0000
  H   H57       1.0  0.2582  0.14507  0.05905  1.0000
  H   H58       1.0  0.5234799999999998  0.8566700000000002  0.36662  1.0000
  H   H59       1.0  0.5352399999999999  0.9862000000000001  0.18288  1.0000
  H   H60       1.0  0.53764  0.05906  0.1451  1.0000
  H   H61       1.0  0.5233400000000002  0.3666500000000001  0.25334  1.0000
  H   H62       1.0  0.53524  0.18295000000000008  0.29566  1.0000
  H   H63       1.0  0.53768  0.14512  0.25811  1.0000
  H   H64       1.0  0.25331  0.85657  0.52346  1.0000
  H   H65       1.0  0.29573999999999995  0.9862300000000002  0.53523  1.0000
  H   H66       1.0  0.25823  0.05908  0.53764  1.0000
  H   H67       1.0  0.8566700000000002  0.2533  0.36666  1.0000
  H   H68       1.0  0.98625  0.29567  0.18286  1.0000
  H   H69       1.0  0.05910999999999998  0.25817000000000007  0.1451  1.0000
  H   H70       1.0  0.36667999999999995  0.52333  0.85669  1.0000
  H   H71       1.0  0.18281999999999998  0.53519  0.98623  1.0000
  H   H72       1.0  0.14505999999999988  0.5376400000000002  0.05909  1.0000
  H   H73       1.0  0.25332  0.52338  0.85662  1.0000
  H   H74       1.0  0.2956999999999999  0.5352100000000002  0.98625  1.0000
  H   H75       1.0  0.2582  0.53766  0.0591  1.0000
  H   H76       1.0  0.52337  0.25336  0.36664  1.0000
  H   H77       1.0  0.53518  0.2958000000000001  0.18283  1.0000
  H   H78       1.0  0.53762  0.25825  0.14501  1.0000
  H   H79       1.0  0.36667999999999995  0.85661  0.52342  1.0000
  H   H80       1.0  0.18285999999999994  0.98616  0.53525  1.0000
  H   H81       1.0  0.14508999999999994  0.05903000000000004  0.53766  1.0000
  H   H82       1.0  0.8566399999999997  0.36663000000000007  0.25332  1.0000
  H   H83       1.0  0.98624  0.1828  0.29573  1.0000
  H   H84       1.0  0.059100000000000014  0.14502999999999996  0.25822  1.0000
  H   H85       1.0  0.36668999999999974  0.25334000000000007  0.85666  1.0000
  H   H86       1.0  0.18281000000000003  0.29573000000000005  0.98628  1.0000
  H   H87       1.0  0.14506  0.25821  0.05911  1.0000
  H   H88       1.0  0.8566199999999998  0.5234400000000001  0.36668  1.0000
  H   H89       1.0  0.9862100000000001  0.53523  0.18283  1.0000
  H   H90       1.0  0.05907000000000001  0.53763  0.14508  1.0000
  H   H91       1.0  0.25332  0.36661999999999995  0.52343  1.0000
  H   H92       1.0  0.2957699999999999  0.18281000000000008  0.5352  1.0000
  H   H93       1.0  0.25822999999999996  0.14502  0.53761  1.0000
  H   H94       1.0  0.5234099999999997  0.8566000000000003  0.25332  1.0000
  H   H95       1.0  0.53523  0.9863000000000001  0.29574  1.0000
  H   H96       1.0  0.53763  0.059139999999999984  0.25823  1.0000
  H   H97       1.0  0.5234700000000002  0.36667000000000005  0.8566  1.0000
  H   H98       1.0  0.53523  0.18281000000000003  0.9862  1.0000
  H   H99       1.0  0.5376499999999997  0.14508000000000004  0.05905  1.0000
  H   H100      1.0  0.2533199999999998  0.85654  0.3667  1.0000
  H   H101      1.0  0.29575999999999997  0.9862100000000001  0.18281  1.0000
  H   H102      1.0  0.25825999999999993  0.059059999999999994  0.14506  1.0000
  H   H103      1.0  0.8565899999999999  0.2533300000000001  0.52341  1.0000
  H   H104      1.0  0.98627  0.29571  0.53524  1.0000
  H   H105      1.0  0.05912000000000001  0.2582000000000001  0.53765  1.0000
  H   H106      1.0  0.36660000000000004  0.52355  0.25327  1.0000
  H   H107      1.0  0.18285999999999994  0.5352200000000001  0.29573  1.0000
  H   H108      1.0  0.14506999999999998  0.53763  0.25819  1.0000
  H   H109      1.0  0.74669  0.47652  0.6334  1.0000
  H   H110      1.0  0.70428  0.46476  0.81715  1.0000
  H   H111      1.0  0.7418000000000001  0.46236  0.85495  1.0000
  H   H112      1.0  0.4765300000000001  0.74672  0.14341  1.0000
  H   H113      1.0  0.4647699999999999  0.7042600000000002  0.0137  1.0000
  H   H114      1.0  0.46236  0.7417500000000001  0.94085  1.0000
  H   H115      1.0  0.6333299999999998  0.14341  0.7467  1.0000
  H   H116      1.0  0.81713  0.013780000000000035  0.70436  1.0000
  H   H117      1.0  0.85488  0.9409199999999999  0.74185  1.0000
  H   H118      1.0  0.14344000000000004  0.63331  0.47649  1.0000
  H   H119      1.0  0.013830000000000035  0.81717  0.46475  1.0000
  H   H120      1.0  0.9409499999999997  0.85492  0.46236  1.0000
  H   H121      1.0  0.6333699999999999  0.74671  0.47649  1.0000
  H   H122      1.0  0.8171499999999999  0.70425  0.46479  1.0000
  H   H123      1.0  0.85495  0.74178  0.46239  1.0000
  H   H124      1.0  0.14342999999999995  0.47659  0.74666  1.0000
  H   H125      1.0  0.013769999999999871  0.4647600000000002  0.70431  1.0000
  H   H126      1.0  0.9409100000000002  0.46236  0.7418  1.0000
  H   H127      1.0  0.74668  0.63329  0.14349  1.0000
  H   H128      1.0  0.7042  0.81718  0.01383  1.0000
  H   H129      1.0  0.7416799999999999  0.85493  0.94096  1.0000
  H   H130      1.0  0.4766299999999999  0.14337  0.63329  1.0000
  H   H131      1.0  0.46475999999999984  0.01380000000000002  0.81713  1.0000
  H   H132      1.0  0.46233000000000013  0.9409500000000001  0.85488  1.0000
  H   H133      1.0  0.47648000000000007  0.63339  0.74666  1.0000
  H   H134      1.0  0.46476000000000006  0.81717  0.70419  1.0000
  H   H135      1.0  0.46236999999999984  0.8549600000000004  0.74173  1.0000
  H   H136      1.0  0.7466599999999999  0.14337999999999998  0.47663  1.0000
  H   H137      1.0  0.70428  0.01372999999999999  0.46477  1.0000
  H   H138      1.0  0.7417900000000001  0.94088  0.46236  1.0000
  H   H139      1.0  0.14335  0.74672  0.63343  1.0000
  H   H140      1.0  0.013710000000000031  0.7042699999999998  0.81728  1.0000
  H   H141      1.0  0.94083  0.7417800000000001  0.85502  1.0000
  H   H142      1.0  0.63334  0.47652  0.14342  1.0000
  H   H143      1.0  0.8171799999999998  0.4647500000000001  0.01383  1.0000
  H   H144      1.0  0.85492  0.46237000000000017  0.94095  1.0000
  H   H145      1.0  0.63022  0.48811000000000004  0.25154  1.0000
  H   H146      1.0  0.48814000000000013  0.63012  0.63012  1.0000
  H   H147      1.0  0.63019  0.2515  0.48814  1.0000
  H   H148      1.0  0.25144999999999984  0.63018  0.63025  1.0000
  H   H149      1.0  0.6301400000000001  0.63017  0.25154  1.0000
  H   H150      1.0  0.25151  0.48816000000000004  0.63017  1.0000
  H   H151      1.0  0.63015  0.63017  0.48812  1.0000
  H   H152      1.0  0.4881499999999996  0.25152  0.63021  1.0000
  H   H153      1.0  0.48817999999999995  0.6302100000000003  0.25144  1.0000
  H   H154      1.0  0.63019  0.25149  0.63018  1.0000
  H   H155      1.0  0.2515  0.63018  0.48818  1.0000
  H   H156      1.0  0.63016  0.48816000000000004  0.63013  1.0000
  H   H157      1.0  0.36984  0.51192  0.36982  1.0000
  H   H158      1.0  0.51188  0.3698100000000001  0.74847  1.0000
  H   H159      1.0  0.36986  0.7484800000000003  0.3698  1.0000
  H   H160      1.0  0.7485099999999998  0.3698199999999999  0.51185  1.0000
  H   H161      1.0  0.36984  0.36987  0.51184  1.0000
  H   H162      1.0  0.7484999999999999  0.51185  0.36981  1.0000
  H   H163      1.0  0.36983  0.3698000000000001  0.74852  1.0000
  H   H164      1.0  0.51185  0.7485300000000003  0.36981  1.0000
  H   H165      1.0  0.51181  0.36988  0.36987  1.0000
  H   H166      1.0  0.36977999999999983  0.7484800000000001  0.51185  1.0000
  H   H167      1.0  0.7485199999999997  0.3697900000000002  0.36985  1.0000
  H   H168      1.0  0.3697899999999999  0.5118500000000001  0.74851  1.0000
  H   H169      1.0  0.7712599999999997  0.46191  0.88341  1.0000
  H   H170      1.0  0.46190999999999965  0.7712700000000003  0.8833  1.0000
  H   H171      1.0  0.8834299999999999  0.88343  0.46192  1.0000
  H   H172      1.0  0.8833499999999994  0.8833900000000001  0.77132  1.0000
  H   H173      1.0  0.8833100000000007  0.77125  0.88346  1.0000
  H   H174      1.0  0.8834199999999992  0.46193  0.88345  1.0000
  H   H175      1.0  0.77129  0.8833600000000001  0.46191  1.0000
  H   H176      1.0  0.4618900000000003  0.8833999999999999  0.77122  1.0000
  H   H177      1.0  0.46189999999999987  0.88342  0.88339  1.0000
  H   H178      1.0  0.7711899999999999  0.88343  0.88346  1.0000
  H   H179      1.0  0.8834100000000003  0.77126  0.4619  1.0000
  H   H180      1.0  0.8833800000000002  0.4618900000000001  0.77129  1.0000
  H   H181      1.0  0.22872  0.53811  0.11661  1.0000
  H   H182      1.0  0.5381299999999999  0.2287500000000001  0.11656  1.0000
  H   H183      1.0  0.11664000000000001  0.11656000000000001  0.22876  1.0000
  H   H184      1.0  0.11658000000000003  0.11654000000000003  0.53809  1.0000
  H   H185      1.0  0.11665000000000003  0.22871  0.53809  1.0000
  H   H186      1.0  0.11660999999999999  0.53809  0.22874  1.0000
  H   H187      1.0  0.22876000000000002  0.11657000000000001  0.11657999999999999  1.0000
  H   H188      1.0  0.53807  0.11658000000000004  0.11657  1.0000
  H   H189      1.0  0.5381099999999999  0.11667  0.2287  1.0000
  H   H190      1.0  0.22874000000000005  0.11657000000000001  0.53812  1.0000
  H   H191      1.0  0.11657999999999999  0.22869000000000003  0.1166  1.0000
  H   H192      1.0  0.11655999999999998  0.53812  0.11657  1.0000
  C   C1        1.0  0.7118899999999998  0.4873000000000002  0.22019999999999998  1.0000
  C   C2        1.0  0.69074  0.48249  0.19954  1.0000
  C   C3        1.0  0.71345  0.47770999999999997  0.15906  1.0000
  C   C4        1.0  0.7373800000000001  0.4641700000000001  0.99774  1.0000
  C   C5        1.0  0.75907  0.46282  0.95618  1.0000
  C   C6        1.0  0.48731  0.71183  0.58058  1.0000
  C   C7        1.0  0.48251000000000005  0.69069  0.62719  1.0000
  C   C8        1.0  0.4777299999999999  0.71341  0.64974  1.0000
  C   C9        1.0  0.46415999999999963  0.73741  0.80062  1.0000
  C   C10       1.0  0.46279999999999977  0.7591000000000003  0.82186  1.0000
  C   C11       1.0  0.58061  0.2201600000000001  0.48732  1.0000
  C   C12       1.0  0.62722  0.1994700000000001  0.48254  1.0000
  C   C13       1.0  0.64976  0.1589800000000001  0.47778  1.0000
  C   C14       1.0  0.8006999999999999  0.9977300000000001  0.4642  1.0000
  C   C15       1.0  0.82194  0.9561700000000001  0.46282  1.0000
  C   C16       1.0  0.22011999999999998  0.58063  0.71193  1.0000
  C   C17       1.0  0.19944000000000006  0.62725  0.69079  1.0000
  C   C18       1.0  0.15895999999999993  0.6498  0.7135  1.0000
  C   C19       1.0  0.99767  0.8006699999999999  0.73747  1.0000
  C   C20       1.0  0.9561000000000004  0.8219099999999999  0.75915  1.0000
  C   C21       1.0  0.5806199999999998  0.7119  0.22018  1.0000
  C   C22       1.0  0.62723  0.6907200000000002  0.19952  1.0000
  C   C23       1.0  0.6497899999999998  0.71342  0.15904  1.0000
  C   C24       1.0  0.80064  0.7374100000000001  0.99779  1.0000
  C   C25       1.0  0.8218699999999999  0.7591000000000003  0.95623  1.0000
  C   C26       1.0  0.22015999999999997  0.48734000000000005  0.5806  1.0000
  C   C27       1.0  0.19948999999999997  0.48255  0.62721  1.0000
  C   C28       1.0  0.15899999999999997  0.47778  0.64975  1.0000
  C   C29       1.0  0.9977399999999998  0.4641799999999999  0.80074  1.0000
  C   C30       1.0  0.95618  0.4628100000000002  0.82197  1.0000
  C   C31       1.0  0.7118500000000001  0.58061  0.48733  1.0000
  C   C32       1.0  0.6907  0.62723  0.48254  1.0000
  C   C33       1.0  0.7134099999999997  0.6497800000000002  0.47778  1.0000
  C   C34       1.0  0.7374  0.80069  0.46418  1.0000
  C   C35       1.0  0.7591000000000001  0.82193  0.46281  1.0000
  C   C36       1.0  0.4873300000000001  0.22017999999999996  0.71187  1.0000
  C   C37       1.0  0.48255999999999993  0.1995000000000001  0.69071  1.0000
  C   C38       1.0  0.4778000000000001  0.15901  0.71341  1.0000
  C   C39       1.0  0.4642  0.9977100000000001  0.73732  1.0000
  C   C40       1.0  0.46280999999999994  0.9561600000000003  0.75902  1.0000
  C   C41       1.0  0.48737  0.58062  0.22009  1.0000
  C   C42       1.0  0.4825900000000003  0.62723  0.19941  1.0000
  C   C43       1.0  0.4778299999999998  0.6497800000000002  0.15892  1.0000
  C   C44       1.0  0.46417999999999987  0.8006800000000003  0.99769  1.0000
  C   C45       1.0  0.4628099999999998  0.8219200000000004  0.95613  1.0000
  C   C46       1.0  0.7119099999999998  0.22015  0.58064  1.0000
  C   C47       1.0  0.6907399999999999  0.19948000000000002  0.62725  1.0000
  C   C48       1.0  0.7134499999999998  0.159  0.6498  1.0000
  C   C49       1.0  0.7373299999999995  0.9977300000000001  0.80077  1.0000
  C   C50       1.0  0.75901  0.95617  0.822  1.0000
  C   C51       1.0  0.22016  0.71188  0.48734  1.0000
  C   C52       1.0  0.19949000000000003  0.69071  0.48257  1.0000
  C   C53       1.0  0.15901999999999997  0.7134100000000001  0.47778  1.0000
  C   C54       1.0  0.99773  0.73738  0.46417  1.0000
  C   C55       1.0  0.9561700000000002  0.75907  0.46281  1.0000
  C   C56       1.0  0.5805999999999999  0.48735000000000006  0.71184  1.0000
  C   C57       1.0  0.6272099999999999  0.48257000000000005  0.6907  1.0000
  C   C58       1.0  0.64976  0.47781000000000007  0.71341  1.0000
  C   C59       1.0  0.8007099999999999  0.46418  0.73739  1.0000
  C   C60       1.0  0.8219399999999999  0.46281  0.75909  1.0000
  C   C61       1.0  0.2881599999999998  0.5126700000000002  0.41938  1.0000
  C   C62       1.0  0.3093  0.51747  0.37276  1.0000
  C   C63       1.0  0.28659999999999985  0.5222100000000003  0.35022  1.0000
  C   C64       1.0  0.2626299999999998  0.5358000000000003  0.19929  1.0000
  C   C65       1.0  0.24093000000000012  0.53718  0.17805  1.0000
  C   C66       1.0  0.5126700000000001  0.28814999999999996  0.77981  1.0000
  C   C67       1.0  0.51746  0.3093  0.80048  1.0000
  C   C68       1.0  0.5222199999999997  0.2865900000000002  0.84096  1.0000
  C   C69       1.0  0.53582  0.26263  0.00226  1.0000
  C   C70       1.0  0.5371899999999998  0.24093999999999996  0.04382  1.0000
  C   C71       1.0  0.41937999999999964  0.77985  0.28808  1.0000
  C   C72       1.0  0.3727799999999999  0.80051  0.30927  1.0000
  C   C73       1.0  0.35022000000000003  0.84099  0.28658  1.0000
  C   C74       1.0  0.19934  0.0022500000000000037  0.26261  1.0000
  C   C75       1.0  0.1781  0.043810000000000016  0.24092  1.0000
  C   C76       1.0  0.7798700000000002  0.41939  0.51266  1.0000
  C   C77       1.0  0.80054  0.37279  0.51744  1.0000
  C   C78       1.0  0.8410299999999999  0.35025  0.5221899999999999  1.0000
  C   C79       1.0  0.002280000000000011  0.19929  0.5358  1.0000
  C   C80       1.0  0.04383000000000002  0.17804999999999999  0.53718  1.0000
  C   C81       1.0  0.41939  0.2881600000000001  0.51266  1.0000
  C   C82       1.0  0.37279000000000007  0.3093  0.51744  1.0000
  C   C83       1.0  0.35025  0.28658  0.5222  1.0000
  C   C84       1.0  0.19934000000000002  0.26258  0.53582  1.0000
  C   C85       1.0  0.17808999999999997  0.24088000000000012  0.5372  1.0000
  C   C86       1.0  0.77983  0.51266  0.28814  1.0000
  C   C87       1.0  0.8005099999999998  0.51745  0.30929  1.0000
  C   C88       1.0  0.84099  0.52222  0.28658  1.0000
  C   C89       1.0  0.0022900000000000615  0.53581  0.26263  1.0000
  C   C90       1.0  0.043839999999999914  0.53719  0.24093  1.0000
  C   C91       1.0  0.28812  0.41938  0.77985  1.0000
  C   C92       1.0  0.30927999999999967  0.37277000000000016  0.80055  1.0000
  C   C93       1.0  0.28658  0.35024000000000016  0.84105  1.0000
  C   C94       1.0  0.26261  0.19931  0.00228  1.0000
  C   C95       1.0  0.24092000000000002  0.17806  0.04383  1.0000
  C   C96       1.0  0.5126800000000001  0.7798800000000002  0.41938  1.0000
  C   C97       1.0  0.5174599999999999  0.80056  0.37277  1.0000
  C   C98       1.0  0.52224  0.8410400000000001  0.35022  1.0000
  C   C99       1.0  0.53581  0.0022799999999999956  0.19933  1.0000
  C   C100      1.0  0.53719  0.043829999999999994  0.17808  1.0000
  C   C101      1.0  0.5126400000000001  0.41942000000000007  0.28815  1.0000
  C   C102      1.0  0.51738  0.37282000000000004  0.30931  1.0000
  C   C103      1.0  0.52212  0.35028  0.2866  1.0000
  C   C104      1.0  0.53581  0.19936  0.26257  1.0000
  C   C105      1.0  0.53721  0.17811  0.24087  1.0000
  C   C106      1.0  0.2880999999999999  0.7798300000000002  0.51269  1.0000
  C   C107      1.0  0.30928000000000005  0.8005  0.5174499999999999  1.0000
  C   C108      1.0  0.2865799999999999  0.8409800000000002  0.52223  1.0000
  C   C109      1.0  0.26265000000000005  0.0022699999999999895  0.53581  1.0000
  C   C110      1.0  0.24094999999999997  0.04382999999999999  0.53719  1.0000
  C   C111      1.0  0.77986  0.28808  0.41939  1.0000
  C   C112      1.0  0.8005499999999999  0.30925  0.37278  1.0000
  C   C113      1.0  0.84104  0.28656000000000004  0.35024  1.0000
  C   C114      1.0  0.0023099999999998838  0.26259000000000016  0.19931  1.0000
  C   C115      1.0  0.04386000000000001  0.24089  0.17808  1.0000
  C   C116      1.0  0.41938000000000003  0.51265  0.77985  1.0000
  C   C117      1.0  0.3727799999999999  0.51741  0.80055  1.0000
  C   C118      1.0  0.3502499999999999  0.5221400000000003  0.84105  1.0000
  C   C119      1.0  0.19927000000000003  0.53578  0.00229  1.0000
  C   C120      1.0  0.17804000000000006  0.53718  0.04384  1.0000
  C   C121      1.0  0.28812  0.51265  0.77986  1.0000
  C   C122      1.0  0.30928  0.51741  0.80054  1.0000
  C   C123      1.0  0.28658  0.52216  0.84103  1.0000
  C   C124      1.0  0.26260999999999995  0.53579  0.00231  1.0000
  C   C125      1.0  0.2409199999999999  0.5372000000000001  0.04385  1.0000
  C   C126      1.0  0.51264  0.28817  0.41939  1.0000
  C   C127      1.0  0.5173999999999999  0.30933000000000005  0.37279  1.0000
  C   C128      1.0  0.52215  0.28662  0.35024999999999995  1.0000
  C   C129      1.0  0.53578  0.26271  0.19924  1.0000
  C   C130      1.0  0.53718  0.241  0.17799  1.0000
  C   C131      1.0  0.41939000000000004  0.77981  0.51266  1.0000
  C   C132      1.0  0.37278  0.8004900000000001  0.5174499999999999  1.0000
  C   C133      1.0  0.3502499999999998  0.8409800000000001  0.52221  1.0000
  C   C134      1.0  0.19931  0.0022299999999999915  0.53582  1.0000
  C   C135      1.0  0.17807000000000003  0.04378  0.5372  1.0000
  C   C136      1.0  0.7798399999999999  0.41936000000000007  0.28815  1.0000
  C   C137      1.0  0.8005399999999998  0.37275  0.3093  1.0000
  C   C138      1.0  0.8410299999999999  0.35021  0.28658  1.0000
  C   C139      1.0  0.0022999999999999843  0.19925000000000004  0.26264  1.0000
  C   C140      1.0  0.04386000000000001  0.17800999999999997  0.24095  1.0000
  C   C141      1.0  0.41938000000000003  0.28812  0.77985  1.0000
  C   C142      1.0  0.37277  0.3092800000000001  0.80055  1.0000
  C   C143      1.0  0.3502399999999999  0.2865900000000002  0.84105  1.0000
  C   C144      1.0  0.19926999999999995  0.26264000000000004  0.00231  1.0000
  C   C145      1.0  0.17804  0.24093  0.04386  1.0000
  C   C146      1.0  0.7798399999999998  0.5126700000000002  0.41939  1.0000
  C   C147      1.0  0.8005099999999998  0.5174599999999999  0.37278  1.0000
  C   C148      1.0  0.841  0.52222  0.35024  1.0000
  C   C149      1.0  0.002270000000000007  0.53581  0.19929  1.0000
  C   C150      1.0  0.04382  0.53718  0.17806  1.0000
  C   C151      1.0  0.28814000000000006  0.41939  0.51267  1.0000
  C   C152      1.0  0.30929  0.37278  0.51744  1.0000
  C   C153      1.0  0.2865799999999999  0.35023  0.5222  1.0000
  C   C154      1.0  0.26267999999999997  0.19924  0.53579  1.0000
  C   C155      1.0  0.2409699999999999  0.17800000000000002  0.53717  1.0000
  C   C156      1.0  0.51266  0.77981  0.28817  1.0000
  C   C157      1.0  0.5174500000000001  0.80052  0.30929  1.0000
  C   C158      1.0  0.52221  0.84101  0.28657  1.0000
  C   C159      1.0  0.5357999999999999  0.0023299999999999996  0.26265  1.0000
  C   C160      1.0  0.53718  0.04389  0.24095  1.0000
  C   C161      1.0  0.5126899999999999  0.41939000000000004  0.77982  1.0000
  C   C162      1.0  0.5174799999999999  0.37278000000000017  0.80049  1.0000
  C   C163      1.0  0.5222399999999999  0.3502400000000002  0.84098  1.0000
  C   C164      1.0  0.53581  0.19928000000000007  0.00225  1.0000
  C   C165      1.0  0.53719  0.17806  0.0438  1.0000
  C   C166      1.0  0.2881500000000001  0.77977  0.41939  1.0000
  C   C167      1.0  0.3092999999999999  0.80047  0.37277  1.0000
  C   C168      1.0  0.2865799999999998  0.8409500000000002  0.35024  1.0000
  C   C169      1.0  0.26267  0.0022600000000000103  0.19927  1.0000
  C   C170      1.0  0.24097  0.043820000000000005  0.17804  1.0000
  C   C171      1.0  0.77983  0.28814  0.51267  1.0000
  C   C172      1.0  0.8005199999999998  0.3093  0.51744  1.0000
  C   C173      1.0  0.84101  0.2865900000000001  0.5222  1.0000
  C   C174      1.0  0.0023200000000000273  0.26262  0.53581  1.0000
  C   C175      1.0  0.04386999999999999  0.24091  0.53719  1.0000
  C   C176      1.0  0.4193899999999999  0.5127200000000002  0.28812  1.0000
  C   C177      1.0  0.37278  0.51752  0.30926  1.0000
  C   C178      1.0  0.35023000000000004  0.52229  0.28654  1.0000
  C   C179      1.0  0.19928999999999988  0.5358000000000003  0.26264  1.0000
  C   C180      1.0  0.17805  0.53718  0.24094  1.0000
  C   C181      1.0  0.7118699999999997  0.48733  0.58061  1.0000
  C   C182      1.0  0.6907200000000001  0.4825400000000001  0.62722  1.0000
  C   C183      1.0  0.71343  0.4777600000000001  0.64978  1.0000
  C   C184      1.0  0.73736  0.46418  0.80073  1.0000
  C   C185      1.0  0.75906  0.4628100000000002  0.82197  1.0000
  C   C186      1.0  0.48733  0.7118600000000002  0.22017  1.0000
  C   C187      1.0  0.48255  0.69073  0.19945  1.0000
  C   C188      1.0  0.47776999999999986  0.71345  0.15898  1.0000
  C   C189      1.0  0.46419000000000005  0.7373500000000001  0.99765  1.0000
  C   C190      1.0  0.4628100000000001  0.7590399999999999  0.95609  1.0000
  C   C191      1.0  0.5806299999999998  0.22017  0.71187  1.0000
  C   C192      1.0  0.62724  0.19948  0.69073  1.0000
  C   C193      1.0  0.6497799999999998  0.15901  0.71345  1.0000
  C   C194      1.0  0.8006699999999999  0.9977300000000001  0.73744  1.0000
  C   C195      1.0  0.8218900000000001  0.9561600000000003  0.75913  1.0000
  C   C196      1.0  0.22018999999999997  0.5806000000000001  0.48732  1.0000
  C   C197      1.0  0.19951000000000002  0.6272199999999999  0.48252  1.0000
  C   C198      1.0  0.15904000000000001  0.64975  0.47773  1.0000
  C   C199      1.0  0.99776  0.80072  0.46417  1.0000
  C   C200      1.0  0.9561999999999999  0.8219399999999999  0.46281  1.0000
  C   C201      1.0  0.5806099999999997  0.7118600000000004  0.48732  1.0000
  C   C202      1.0  0.62722  0.69073  0.48251  1.0000
  C   C203      1.0  0.6497700000000001  0.71345  0.47773  1.0000
  C   C204      1.0  0.80073  0.73734  0.46421  1.0000
  C   C205      1.0  0.8219699999999999  0.7590400000000002  0.46284  1.0000
  C   C206      1.0  0.22016999999999995  0.48735000000000006  0.71186  1.0000
  C   C207      1.0  0.19948999999999997  0.48257000000000005  0.6907  1.0000
  C   C208      1.0  0.15901000000000007  0.47780000000000006  0.7134  1.0000
  C   C209      1.0  0.9977099999999999  0.46418  0.7374  1.0000
  C   C210      1.0  0.95615  0.4628100000000002  0.7591  1.0000
  C   C211      1.0  0.71184  0.5806  0.22023  1.0000
  C   C212      1.0  0.6906999999999998  0.62722  0.19955  1.0000
  C   C213      1.0  0.71342  0.64975  0.15907  1.0000
  C   C214      1.0  0.73729  0.80073  0.99778  1.0000
  C   C215      1.0  0.7589800000000001  0.8219599999999999  0.95621  1.0000
  C   C216      1.0  0.4873500000000001  0.22017  0.5806  1.0000
  C   C217      1.0  0.48257  0.19949  0.62721  1.0000
  C   C218      1.0  0.4778300000000001  0.15899  0.64973  1.0000
  C   C219      1.0  0.46418  0.99774  0.80066  1.0000
  C   C220      1.0  0.4628  0.9561899999999999  0.8219  1.0000
  C   C221      1.0  0.4873100000000001  0.5806  0.71183  1.0000
  C   C222      1.0  0.4825099999999999  0.62721  0.69068  1.0000
  C   C223      1.0  0.4777299999999999  0.64977  0.7134  1.0000
  C   C224      1.0  0.46417999999999987  0.8007500000000001  0.73728  1.0000
  C   C225      1.0  0.46282  0.8219800000000002  0.75898  1.0000
  C   C226      1.0  0.71185  0.22016999999999998  0.48735  1.0000
  C   C227      1.0  0.6907  0.19948  0.48257  1.0000
  C   C228      1.0  0.71341  0.15898999999999996  0.47782  1.0000
  C   C229      1.0  0.7373699999999999  0.9976900000000001  0.4642  1.0000
  C   C230      1.0  0.7590700000000001  0.95613  0.46282  1.0000
  C   C231      1.0  0.22014999999999985  0.71188  0.58067  1.0000
  C   C232      1.0  0.19945000000000004  0.69075  0.62729  1.0000
  C   C233      1.0  0.15897000000000008  0.71346  0.64984  1.0000
  C   C234      1.0  0.9976499999999999  0.7373500000000002  0.80082  1.0000
  C   C235      1.0  0.9560799999999999  0.75905  0.82204  1.0000
  C   C236      1.0  0.5806199999999999  0.4873100000000001  0.22019  1.0000
  C   C237      1.0  0.6272400000000001  0.48250000000000004  0.19953  1.0000
  C   C238      1.0  0.64978  0.47772  0.15904  1.0000
  C   C239      1.0  0.8007199999999998  0.4641700000000001  0.99776  1.0000
  C   C240      1.0  0.8219399999999999  0.46282000000000006  0.9562  1.0000
  C   C241      1.0  0.64775  0.48441  0.22011  1.0000
  C   C242      1.0  0.6933  0.47497999999999996  0.13842  1.0000
  C   C243      1.0  0.7160599999999999  0.47064  0.09726  1.0000
  C   C244      1.0  0.73551  0.4676  0.0614  1.0000
  C   C245      1.0  0.7577000000000002  0.46511  0.01952  1.0000
  C   C246      1.0  0.8018899999999998  0.46234  0.93388  1.0000
  C   C247      1.0  0.8245999999999999  0.4617200000000001  0.8891  1.0000
  C   C248      1.0  0.48444  0.6477  0.64769  1.0000
  C   C249      1.0  0.47498999999999975  0.6932700000000003  0.69325  1.0000
  C   C250      1.0  0.47063999999999995  0.71605  0.716  1.0000
  C   C251      1.0  0.46761000000000014  0.73553  0.7354  1.0000
  C   C252      1.0  0.46511000000000013  0.75773  0.75759  1.0000
  C   C253      1.0  0.46233  0.80192  0.80182  1.0000
  C   C254      1.0  0.46171000000000006  0.82462  0.82454  1.0000
  C   C255      1.0  0.6477199999999999  0.22005000000000002  0.48447  1.0000
  C   C256      1.0  0.69326  0.13836  0.47507  1.0000
  C   C257      1.0  0.7160299999999999  0.09717999999999999  0.47073  1.0000
  C   C258      1.0  0.7354599999999999  0.061340000000000026  0.46767999999999993  1.0000
  C   C259      1.0  0.7576699999999998  0.01947000000000001  0.46516  1.0000
  C   C260      1.0  0.8019000000000001  0.9338499999999998  0.46234  1.0000
  C   C261      1.0  0.8246300000000002  0.88907  0.46172  1.0000
  C   C262      1.0  0.22000999999999993  0.64775  0.6478  1.0000
  C   C263      1.0  0.1383399999999999  0.6933200000000003  0.69335  1.0000
  C   C264      1.0  0.09716999999999998  0.71607  0.71613  1.0000
  C   C265      1.0  0.061319999999999965  0.73547  0.7356  1.0000
  C   C266      1.0  0.019439999999999933  0.7576500000000002  0.7578  1.0000
  C   C267      1.0  0.93378  0.8018699999999999  0.80198  1.0000
  C   C268      1.0  0.8889899999999997  0.8245900000000002  0.82467  1.0000
  C   C269      1.0  0.64771  0.64773  0.22011  1.0000
  C   C270      1.0  0.6932999999999998  0.69326  0.13843  1.0000
  C   C271      1.0  0.7160599999999999  0.71602  0.09728  1.0000
  C   C272      1.0  0.7354500000000002  0.7355100000000001  0.06143  1.0000
  C   C273      1.0  0.75762  0.75772  0.01955  1.0000
  C   C274      1.0  0.80181  0.8019200000000001  0.93391  1.0000
  C   C275      1.0  0.8245200000000003  0.82461  0.88913  1.0000
  C   C276      1.0  0.22007000000000002  0.48448  0.64771  1.0000
  C   C277      1.0  0.13838  0.47506  0.69326  1.0000
  C   C278      1.0  0.09720999999999985  0.47071000000000024  0.71603  1.0000
  C   C279      1.0  0.061360000000000026  0.46765999999999996  0.7355  1.0000
  C   C280      1.0  0.019489999999999907  0.4651300000000002  0.75771  1.0000
  C   C281      1.0  0.9338599999999999  0.4623300000000001  0.80193  1.0000
  C   C282      1.0  0.8890699999999999  0.46172  0.82464  1.0000
  C   C283      1.0  0.6477200000000002  0.6477299999999999  0.48444  1.0000
  C   C284      1.0  0.69327  0.6932900000000001  0.47502  1.0000
  C   C285      1.0  0.71604  0.71605  0.47067  1.0000
  C   C286      1.0  0.7354999999999999  0.7354800000000002  0.46764  1.0000
  C   C287      1.0  0.7577100000000001  0.75766  0.46514  1.0000
  C   C288      1.0  0.8019199999999999  0.8018800000000003  0.46234  1.0000
  C   C289      1.0  0.82463  0.8245900000000005  0.46172  1.0000
  C   C290      1.0  0.48446999999999996  0.22007  0.64772  1.0000
  C   C291      1.0  0.47508  0.13837  0.69324  1.0000
  C   C292      1.0  0.47074  0.09720000000000002  0.71599  1.0000
  C   C293      1.0  0.46769  0.061359999999999956  0.73542  1.0000
  C   C294      1.0  0.4651499999999999  0.019489999999999997  0.75763  1.0000
  C   C295      1.0  0.46231999999999995  0.93387  0.80185  1.0000
  C   C296      1.0  0.4617000000000001  0.8890800000000001  0.82457  1.0000
  C   C297      1.0  0.4845000000000001  0.64773  0.22  1.0000
  C   C298      1.0  0.4750599999999999  0.6933  0.13832  1.0000
  C   C299      1.0  0.4706999999999999  0.71607  0.09715  1.0000
  C   C300      1.0  0.46764999999999995  0.7354600000000002  0.06132  1.0000
  C   C301      1.0  0.46513  0.75766  0.01944  1.0000
  C   C302      1.0  0.46232999999999985  0.8018800000000001  0.9338099999999999  1.0000
  C   C303      1.0  0.46171000000000006  0.82461  0.8890199999999999  1.0000
  C   C304      1.0  0.64775  0.22005000000000008  0.64774  1.0000
  C   C305      1.0  0.69329  0.13838  0.69331  1.0000
  C   C306      1.0  0.71604  0.09722000000000001  0.71609  1.0000
  C   C307      1.0  0.7354600000000001  0.06137000000000003  0.73555  1.0000
  C   C308      1.0  0.75764  0.019499999999999962  0.75775  1.0000
  C   C309      1.0  0.8018399999999999  0.93386  0.80196  1.0000
  C   C310      1.0  0.82454  0.8890699999999999  0.82466  1.0000
  C   C311      1.0  0.22006999999999977  0.6477200000000002  0.48448  1.0000
  C   C312      1.0  0.13840000000000002  0.69326  0.47501  1.0000
  C   C313      1.0  0.09724000000000001  0.71602  0.47065  1.0000
  C   C314      1.0  0.0613899999999999  0.7354800000000002  0.46761  1.0000
  C   C315      1.0  0.019520000000000013  0.75769  0.46511  1.0000
  C   C316      1.0  0.93388  0.8019  0.46233  1.0000
  C   C317      1.0  0.8891000000000002  0.8246100000000001  0.46172  1.0000
  C   C318      1.0  0.6477200000000001  0.48447  0.64771  1.0000
  C   C319      1.0  0.6932699999999998  0.47505000000000014  0.69328  1.0000
  C   C320      1.0  0.7160299999999999  0.4707  0.71605  1.0000
  C   C321      1.0  0.73548  0.46764999999999995  0.7355  1.0000
  C   C322      1.0  0.7576799999999999  0.4651300000000002  0.7577  1.0000
  C   C323      1.0  0.8018899999999998  0.46233  0.80192  1.0000
  C   C324      1.0  0.8245999999999999  0.46171  0.82463  1.0000
  C   C325      1.0  0.35227999999999987  0.5155900000000002  0.35226  1.0000
  C   C326      1.0  0.3067299999999999  0.52498  0.3067  1.0000
  C   C327      1.0  0.28397  0.52932  0.28395  1.0000
  C   C328      1.0  0.26451999999999987  0.5323400000000003  0.26452  1.0000
  C   C329      1.0  0.2423200000000001  0.53485  0.24232  1.0000
  C   C330      1.0  0.19809999999999997  0.53767  0.1981  1.0000
  C   C331      1.0  0.17537999999999998  0.5383  0.1754  1.0000
  C   C332      1.0  0.5155600000000001  0.35228  0.77991  1.0000
  C   C333      1.0  0.52496  0.30674  0.8616  1.0000
  C   C334      1.0  0.5293000000000001  0.28397000000000006  0.9027699999999999  1.0000
  C   C335      1.0  0.5323400000000001  0.26451  0.93862  1.0000
  C   C336      1.0  0.53486  0.24230999999999997  0.98049  1.0000
  C   C337      1.0  0.53768  0.19811  0.06611  1.0000
  C   C338      1.0  0.5383  0.1754  0.11089  1.0000
  C   C339      1.0  0.35229  0.77992  0.35226  1.0000
  C   C340      1.0  0.30671  0.8616  0.30674  1.0000
  C   C341      1.0  0.28394  0.90276  0.28398  1.0000
  C   C342      1.0  0.2645399999999999  0.93861  0.26449  1.0000
  C   C343      1.0  0.24236000000000005  0.98048  0.24229  1.0000
  C   C344      1.0  0.19813999999999998  0.06612000000000001  0.19809  1.0000
  C   C345      1.0  0.17543  0.11090000000000001  0.1754  1.0000
  C   C346      1.0  0.77995  0.35229  0.51552  1.0000
  C   C347      1.0  0.86165  0.30674000000000007  0.52493  1.0000
  C   C348      1.0  0.90282  0.28398  0.52928  1.0000
  C   C349      1.0  0.93866  0.26453  0.53233  1.0000
  C   C350      1.0  0.98053  0.24232  0.53485  1.0000
  C   C351      1.0  0.06614999999999997  0.19808000000000003  0.53767  1.0000
  C   C352      1.0  0.11093999999999991  0.17536000000000007  0.53829  1.0000
  C   C353      1.0  0.3522800000000001  0.35229  0.51552  1.0000
  C   C354      1.0  0.30674  0.30672  0.52493  1.0000
  C   C355      1.0  0.2839900000000001  0.28395  0.52928  1.0000
  C   C356      1.0  0.26456999999999997  0.26447000000000004  0.53232  1.0000
  C   C357      1.0  0.24237  0.24226  0.53485  1.0000
  C   C358      1.0  0.19813999999999998  0.19805  0.53768  1.0000
  C   C359      1.0  0.17541000000000004  0.17536000000000002  0.5383  1.0000
  C   C360      1.0  0.7799399999999996  0.5155400000000003  0.35228  1.0000
  C   C361      1.0  0.8616199999999998  0.5249600000000002  0.30673  1.0000
  C   C362      1.0  0.9027899999999998  0.5293000000000002  0.28397  1.0000
  C   C363      1.0  0.9386399999999999  0.5323400000000003  0.26452  1.0000
  C   C364      1.0  0.9805099999999999  0.5348599999999999  0.24231  1.0000
  C   C365      1.0  0.06613  0.53768  0.1981  1.0000
  C   C366      1.0  0.11090999999999993  0.5383  0.17539  1.0000
  C   C367      1.0  0.35226999999999997  0.3522700000000001  0.77997  1.0000
  C   C368      1.0  0.30673000000000006  0.30674  0.86169  1.0000
  C   C369      1.0  0.2839699999999997  0.2839900000000002  0.90286  1.0000
  C   C370      1.0  0.26449999999999996  0.26455000000000006  0.93869  1.0000
  C   C371      1.0  0.24229999999999993  0.24233999999999994  0.98054  1.0000
  C   C372      1.0  0.19808999999999996  0.19809000000000004  0.06615  1.0000
  C   C373      1.0  0.1754  0.17537  0.11093  1.0000
  C   C374      1.0  0.51554  0.7799700000000002  0.35228  1.0000
  C   C375      1.0  0.52496  0.86165  0.30671  1.0000
  C   C376      1.0  0.52931  0.90282  0.28395  1.0000
  C   C377      1.0  0.5323399999999996  0.9386700000000004  0.26455  1.0000
  C   C378      1.0  0.53486  0.98054  0.24235  1.0000
  C   C379      1.0  0.53767  0.06616  0.19811  1.0000
  C   C380      1.0  0.53829  0.11095  0.17538  1.0000
  C   C381      1.0  0.5154800000000002  0.35232  0.3523  1.0000
  C   C382      1.0  0.52486  0.30677  0.30675  1.0000
  C   C383      1.0  0.52921  0.28402  0.28398  1.0000
  C   C384      1.0  0.53227  0.2646  0.26449  1.0000
  C   C385      1.0  0.53483  0.2424  0.24227  1.0000
  C   C386      1.0  0.53769  0.19816000000000003  0.19804  1.0000
  C   C387      1.0  0.53831  0.17543  0.17535  1.0000
  C   C388      1.0  0.35226  0.77992  0.51553  1.0000
  C   C389      1.0  0.3067399999999999  0.8616000000000001  0.52496  1.0000
  C   C390      1.0  0.2839900000000002  0.9027699999999999  0.52932  1.0000
  C   C391      1.0  0.26454999999999995  0.9386200000000001  0.53236  1.0000
  C   C392      1.0  0.24234000000000003  0.9804900000000001  0.53487  1.0000
  C   C393      1.0  0.19811000000000006  0.0661  0.53768  1.0000
  C   C394      1.0  0.1754  0.11089000000000002  0.5383  1.0000
  C   C395      1.0  0.7799699999999999  0.3522400000000001  0.35229  1.0000
  C   C396      1.0  0.8616599999999999  0.3067  0.30673  1.0000
  C   C397      1.0  0.90283  0.28393999999999997  0.28396  1.0000
  C   C398      1.0  0.9386700000000001  0.2644900000000002  0.26453  1.0000
  C   C399      1.0  0.98053  0.24228000000000002  0.24234  1.0000
  C   C400      1.0  0.0661599999999999  0.1980600000000001  0.19812  1.0000
  C   C401      1.0  0.11095  0.17535  0.17541  1.0000
  C   C402      1.0  0.35227  0.51551  0.77996  1.0000
  C   C403      1.0  0.30674000000000007  0.52487  0.86167  1.0000
  C   C404      1.0  0.28397999999999995  0.52922  0.90284  1.0000
  C   C405      1.0  0.26451999999999987  0.5322700000000001  0.93868  1.0000
  C   C406      1.0  0.24229999999999993  0.5348200000000001  0.98054  1.0000
  C   C407      1.0  0.19808  0.53768  0.06614  1.0000
  C   C408      1.0  0.17536999999999997  0.53831  0.11092  1.0000
  C   C409      1.0  0.8041000000000003  0.46170000000000005  0.86712  1.0000
  C   C410      1.0  0.46168999999999993  0.80411  0.86703  1.0000
  C   C411      1.0  0.86712  0.8671  0.46171  1.0000
  C   C412      1.0  0.8670300000000001  0.86708  0.80416  1.0000
  C   C413      1.0  0.867  0.8040900000000001  0.86715  1.0000
  C   C414      1.0  0.8670999999999999  0.46171  0.86713  1.0000
  C   C415      1.0  0.80412  0.86708  0.4617  1.0000
  C   C416      1.0  0.4616800000000001  0.8671099999999999  0.80405  1.0000
  C   C417      1.0  0.46168999999999966  0.8671100000000002  0.86706  1.0000
  C   C418      1.0  0.8040199999999997  0.8671000000000003  0.86715  1.0000
  C   C419      1.0  0.86712  0.8040900000000001  0.4617  1.0000
  C   C420      1.0  0.8670999999999999  0.46169  0.80413  1.0000
  C   C421      1.0  0.19587999999999997  0.53832  0.1329  1.0000
  C   C422      1.0  0.53833  0.19592000000000007  0.13286  1.0000
  C   C423      1.0  0.13294  0.13287  0.19591  1.0000
  C   C424      1.0  0.1329  0.13286  0.53831  1.0000
  C   C425      1.0  0.13293000000000002  0.19586  0.53831  1.0000
  C   C426      1.0  0.13289  0.53831  0.1959  1.0000
  C   C427      1.0  0.19593  0.13288  0.1329  1.0000
  C   C428      1.0  0.5383000000000001  0.1329  0.13288  1.0000
  C   C429      1.0  0.53832  0.13294  0.19586  1.0000
  C   C430      1.0  0.19589999999999982  0.13286  0.53832  1.0000
  C   C431      1.0  0.13291  0.19586  0.13291  1.0000
  C   C432      1.0  0.13287999999999997  0.53832  0.13289  1.0000
  O   O1        1.0  0.69011  0.4895  0.25809  1.0000
  O   O2        1.0  0.74982  0.4895  0.19818  1.0000
  O   O3        1.0  0.48952  0.6900399999999999  0.5622700000000002  1.0000
  O   O4        1.0  0.48949  0.74977  0.5625  1.0000
  O   O5        1.0  0.5623400000000001  0.25805  0.48949  1.0000
  O   O6        1.0  0.5624799999999999  0.19815000000000002  0.48951  1.0000
  O   O7        1.0  0.2580199999999999  0.5623400000000002  0.69016  1.0000
  O   O8        1.0  0.19810999999999998  0.5624999999999999  0.74986  1.0000
  O   O9        1.0  0.5623100000000001  0.69014  0.25807  1.0000
  O   O10       1.0  0.56252  0.74984  0.19817  1.0000
  O   O11       1.0  0.25806  0.4895  0.56232  1.0000
  O   O12       1.0  0.19814999999999994  0.48954000000000003  0.56247  1.0000
  O   O13       1.0  0.6900600000000001  0.5623  0.48954  1.0000
  O   O14       1.0  0.7497899999999997  0.5625100000000002  0.48952  1.0000
  O   O15       1.0  0.4895300000000001  0.25806000000000007  0.69009  1.0000
  O   O16       1.0  0.48949999999999994  0.19818  0.74981  1.0000
  O   O17       1.0  0.48951999999999996  0.56236  0.25799  1.0000
  O   O18       1.0  0.4895699999999999  0.56248  0.19808  1.0000
  O   O19       1.0  0.69015  0.25805  0.56234  1.0000
  O   O20       1.0  0.7498400000000001  0.19813  0.56252  1.0000
  O   O21       1.0  0.2580500000000001  0.69011  0.48951  1.0000
  O   O22       1.0  0.19813999999999993  0.7498100000000001  0.48954  1.0000
  O   O23       1.0  0.5622999999999999  0.48954999999999993  0.69006  1.0000
  O   O24       1.0  0.5625  0.48953  0.74978  1.0000
  O   O25       1.0  0.30994  0.51046  0.43769  1.0000
  O   O26       1.0  0.2502200000000001  0.51048  0.43748  1.0000
  O   O27       1.0  0.51047  0.30993  0.74192  1.0000
  O   O28       1.0  0.51048  0.25021  0.80182  1.0000
  O   O29       1.0  0.43768  0.74195  0.30983  1.0000
  O   O30       1.0  0.4374900000000004  0.80187  0.25015  1.0000
  O   O31       1.0  0.7419699999999999  0.43767  0.5105  1.0000
  O   O32       1.0  0.80188  0.4375200000000001  0.51046  1.0000
  O   O33       1.0  0.43770000000000003  0.30994  0.51046  1.0000
  O   O34       1.0  0.4374899999999999  0.25020999999999993  0.51049  1.0000
  O   O35       1.0  0.7419300000000001  0.51048  0.30992  1.0000
  O   O36       1.0  0.8018299999999999  0.51048  0.2502  1.0000
  O   O37       1.0  0.30989  0.43767000000000006  0.74195  1.0000
  O   O38       1.0  0.25017999999999996  0.43749000000000005  0.80185  1.0000
  O   O39       1.0  0.5104999999999998  0.7419800000000001  0.43765  1.0000
  O   O40       1.0  0.5104800000000002  0.8018800000000003  0.43752  1.0000
  O   O41       1.0  0.5104699999999999  0.43773  0.30991  1.0000
  O   O42       1.0  0.5104599999999997  0.43751000000000023  0.25021  1.0000
  O   O43       1.0  0.30985000000000007  0.74193  0.51054  1.0000
  O   O44       1.0  0.2501699999999998  0.80186  0.51048  1.0000
  O   O45       1.0  0.74195  0.30984  0.43768  1.0000
  O   O46       1.0  0.8018699999999999  0.25014999999999993  0.4375  1.0000
  O   O47       1.0  0.4376600000000003  0.51048  0.74196  1.0000
  O   O48       1.0  0.43751999999999996  0.51045  0.80186  1.0000
  O   O49       1.0  0.30988999999999994  0.51046  0.74197  1.0000
  O   O50       1.0  0.25017  0.51048  0.80186  1.0000
  O   O51       1.0  0.51045  0.30995  0.4377  1.0000
  O   O52       1.0  0.5104799999999999  0.25022000000000005  0.43749  1.0000
  O   O53       1.0  0.43765999999999994  0.7419100000000002  0.51049  1.0000
  O   O54       1.0  0.43751999999999985  0.8018300000000002  0.51045  1.0000
  O   O55       1.0  0.7419399999999999  0.43765  0.30993  1.0000
  O   O56       1.0  0.8018399999999999  0.43748000000000004  0.25021  1.0000
  O   O57       1.0  0.43767  0.30989  0.74196  1.0000
  O   O58       1.0  0.43749  0.25018  0.80185  1.0000
  O   O59       1.0  0.7419399999999999  0.5105  0.43767  1.0000
  O   O60       1.0  0.8018500000000001  0.51047  0.43752  1.0000
  O   O61       1.0  0.30992999999999993  0.4377  0.51045  1.0000
  O   O62       1.0  0.25019  0.43748  0.51052  1.0000
  O   O63       1.0  0.51042  0.74194  0.3099799999999999  1.0000
  O   O64       1.0  0.5104999999999998  0.80179  0.25022  1.0000
  O   O65       1.0  0.5105099999999999  0.43767000000000017  0.74193  1.0000
  O   O66       1.0  0.5104999999999996  0.4375200000000001  0.80183  1.0000
  O   O67       1.0  0.30993999999999994  0.7419  0.43769  1.0000
  O   O68       1.0  0.2502  0.8017600000000001  0.43749  1.0000
  O   O69       1.0  0.7419599999999997  0.30993000000000004  0.51044  1.0000
  O   O70       1.0  0.80182  0.25019000000000013  0.51051  1.0000
  O   O71       1.0  0.43771  0.51048  0.30992  1.0000
  O   O72       1.0  0.43749  0.51055  0.25017  1.0000
  O   O73       1.0  0.69008  0.48954000000000003  0.5623  1.0000
  O   O74       1.0  0.74981  0.48949000000000004  0.56252  1.0000
  O   O75       1.0  0.48957999999999985  0.69005  0.25803  1.0000
  O   O76       1.0  0.4894600000000001  0.7498199999999999  0.1982  1.0000
  O   O77       1.0  0.5623400000000001  0.25805999999999996  0.6901  1.0000
  O   O78       1.0  0.5625000000000001  0.19816  0.74981  1.0000
  O   O79       1.0  0.25808000000000003  0.56233  0.4895  1.0000
  O   O80       1.0  0.19816999999999999  0.56247  0.48954  1.0000
  O   O81       1.0  0.5623  0.69007  0.48953  1.0000
  O   O82       1.0  0.5625  0.7498  0.4895  1.0000
  O   O83       1.0  0.2580599999999999  0.48954000000000003  0.69008  1.0000
  O   O84       1.0  0.19815999999999998  0.48954000000000003  0.74979  1.0000
  O   O85       1.0  0.6900700000000002  0.56231  0.25812  1.0000
  O   O86       1.0  0.7497799999999999  0.56249  0.19822  1.0000
  O   O87       1.0  0.4895200000000001  0.25806999999999997  0.56233  1.0000
  O   O88       1.0  0.48955999999999994  0.19815000000000002  0.56247  1.0000
  O   O89       1.0  0.48953000000000024  0.56228  0.69004  1.0000
  O   O90       1.0  0.48948  0.56251  0.74977  1.0000
  O   O91       1.0  0.6900599999999998  0.25805  0.48957  1.0000
  O   O92       1.0  0.7498  0.19818000000000002  0.48951  1.0000
  O   O93       1.0  0.25801999999999997  0.69007  0.56237  1.0000
  O   O94       1.0  0.19817000000000004  0.74982  0.56254  1.0000
  O   O95       1.0  0.5623300000000001  0.48952  0.25807  1.0000
  O   O96       1.0  0.5625000000000001  0.4895  0.19818  1.0000
