data_image0
_chemical_formula_structural       Zn12H232C360N32O48
_chemical_formula_sum              "Zn12 H232 C360 N32 O48"
_cell_length_a       21.28625
_cell_length_b       21.28642
_cell_length_c       40.51737
_cell_angle_alpha    105.33463
_cell_angle_beta     105.24175000000001
_cell_angle_gamma    89.49299

_symmetry_space_group_name_H-M    'P 1'
_symmetry_Int_Tables_number       1

loop_
  _symmetry_equiv_pos_as_xyz
  'x,y,z'

loop_
  _atom_site_type_symbol
  _atom_site_label
  _atom_site_symmetry_multiplicity
  _atom_site_fract_x
  _atom_site_fract_y
  _atom_site_fract_z
  _atom_site_occupancy
  Zn  Zn1       1.0  0.036299999999999985  0.40728  0.82415  1.0000
  Zn  Zn2       1.0  0.87727  0.40787999999999996  0.81221  1.0000
  Zn  Zn3       1.0  0.69098  0.4687299999999999  0.791  1.0000
  Zn  Zn4       1.0  0.6658  0.53784  0.3242  1.0000
  Zn  Zn5       1.0  0.65275  0.6846799999999998  0.31249  1.0000
  Zn  Zn6       1.0  0.57032  0.84959  0.29129  1.0000
  Zn  Zn7       1.0  0.59293  0.9636699999999999  0.17582  1.0000
  Zn  Zn8       1.0  0.59205  0.12271999999999998  0.18781  1.0000
  Zn  Zn9       1.0  0.5313  0.30896999999999997  0.20897999999999997  1.0000
  Zn  Zn10      1.0  0.4620999999999999  0.33390999999999993  0.6755799999999998  1.0000
  Zn  Zn11      1.0  0.31562  0.34536  0.68776  1.0000
  Zn  Zn12      1.0  0.15064  0.4272799999999999  0.7089  1.0000
  H   H1        1.0  0.5483600000000001  0.49061999999999995  0.8770199999999999  1.0000
  H   H2        1.0  0.55654  0.39716999999999997  0.75371  1.0000
  H   H3        1.0  0.64419  0.5131799999999997  0.85504  1.0000
  H   H4        1.0  0.7864000000000002  0.8661199999999999  0.60554  1.0000
  H   H5        1.0  0.74812  0.8253699999999998  0.54042  1.0000
  H   H6        1.0  0.826  0.63377  0.6739  1.0000
  H   H7        1.0  0.45639  0.37425  0.76992  1.0000
  H   H8        1.0  0.13022999999999996  0.4726499999999999  0.79891  1.0000
  H   H9        1.0  0.84413  0.53376  0.76036  1.0000
  H   H10       1.0  0.8247300000000001  0.61824  0.72735  1.0000
  H   H11       1.0  0.03201000000000001  0.64279  0.74127  1.0000
  H   H12       1.0  0.05113000000000007  0.56129  0.77577  1.0000
  H   H13       1.0  0.24735  0.47243999999999997  0.80156  1.0000
  H   H14       1.0  0.80765  0.7132  0.63765  1.0000
  H   H15       1.0  0.27138000000000007  0.3535800000000001  0.8752300000000001  1.0000
  H   H16       1.0  0.9843299999999999  0.8238299999999998  0.70448  1.0000
  H   H17       1.0  0.0029599999999999475  0.74479  0.7408699999999999  1.0000
  H   H18       1.0  0.77367  0.58761  0.42860999999999994  1.0000
  H   H19       1.0  0.816  0.6273899999999999  0.49415  1.0000
  H   H20       1.0  0.76769  0.8221  0.48884999999999995  1.0000
  H   H21       1.0  0.7249  0.78145  0.42344  1.0000
  H   H22       1.0  0.8933000000000001  0.68307  0.54182  1.0000
  H   H23       1.0  0.93004  0.72261  0.60733  1.0000
  H   H24       1.0  0.15059999999999996  0.3564599999999999  0.86827  1.0000
  H   H25       1.0  0.019349999999999975  0.22656  0.7387  1.0000
  H   H26       1.0  0.9995999999999999  0.11050000000000003  0.70364  1.0000
  H   H27       1.0  0.85241  0.08558000000000009  0.75559  1.0000
  H   H28       1.0  0.87197  0.20191999999999996  0.78978  1.0000
  H   H29       1.0  0.93862  0.03368999999999996  0.66009  1.0000
  H   H30       1.0  0.92153  0.91743  0.62665  1.0000
  H   H31       1.0  0.85795  0.87272  0.71081  1.0000
  H   H32       1.0  0.87807  0.98798  0.74501  1.0000
  H   H33       1.0  0.3335900000000001  0.41325999999999996  0.76988  1.0000
  H   H34       1.0  0.38602999999999993  0.47817  0.78984  1.0000
  H   H35       1.0  0.8192  0.25987  0.73158  1.0000
  H   H36       1.0  0.7913800000000001  0.14715000000000003  0.69228  1.0000
  H   H37       1.0  0.59285  0.16222999999999999  0.69897  1.0000
  H   H38       1.0  0.62073  0.27581  0.73691  1.0000
  H   H39       1.0  0.76478  0.043759999999999986  0.69898  1.0000
  H   H40       1.0  0.73927  0.92797  0.66468  1.0000
  H   H41       1.0  0.55726  0.97756  0.60374  1.0000
  H   H42       1.0  0.58177  0.09387999999999999  0.63888  1.0000
  H   H43       1.0  0.67619  0.53405  0.69241  1.0000
  H   H44       1.0  0.65949  0.60768  0.65301  1.0000
  H   H45       1.0  0.64849  0.7691099999999998  0.7412  1.0000
  H   H46       1.0  0.6613300000000001  0.6935999999999999  0.7797  1.0000
  H   H47       1.0  0.6976999999999999  0.6850299999999999  0.63557  1.0000
  H   H48       1.0  0.68915  0.76402  0.59992  1.0000
  H   H49       1.0  0.58056  0.8856299999999998  0.6651099999999999  1.0000
  H   H50       1.0  0.58777  0.8060799999999999  0.70025  1.0000
  H   H51       1.0  0.6133800000000003  0.90704  0.40168  1.0000
  H   H52       1.0  0.621  0.9257199999999999  0.46533  1.0000
  H   H53       1.0  0.57957  0.7197  0.44765  1.0000
  H   H54       1.0  0.5688599999999999  0.70279  0.38336  1.0000
  H   H55       1.0  0.6730400000000001  0.92394  0.5149  1.0000
  H   H56       1.0  0.6851299999999999  0.9481399999999999  0.57881  1.0000
  H   H57       1.0  0.5633  0.77546  0.56127  1.0000
  H   H58       1.0  0.5497  0.7521299999999999  0.49694999999999995  1.0000
  H   H59       1.0  0.63592  0.07789999999999996  0.37706  1.0000
  H   H60       1.0  0.60663  0.94678  0.2538  1.0000
  H   H61       1.0  0.59116  0.9604  0.35513  1.0000
  H   H62       1.0  0.9902  0.56972  0.10576  1.0000
  H   H63       1.0  0.96552  0.54278  0.04058  1.0000
  H   H64       1.0  0.29026  0.59745  0.17371  1.0000
  H   H65       1.0  0.64604  0.06287000000000002  0.26996  1.0000
  H   H66       1.0  0.57568  0.41803  0.29885  1.0000
  H   H67       1.0  0.47598  0.66628  0.26045  1.0000
  H   H68       1.0  0.35863  0.6523899999999999  0.22718999999999998  1.0000
  H   H69       1.0  0.34861  0.45894999999999997  0.24145  1.0000
  H   H70       1.0  0.46441  0.4748299999999999  0.27605  1.0000
  H   H71       1.0  0.57889  0.30365  0.30152  1.0000
  H   H72       1.0  0.17474  0.57959  0.13754  1.0000
  H   H73       1.0  0.77101  0.35325999999999996  0.37508  1.0000
  H   H74       1.0  0.13085999999999995  0.46986  0.20461999999999997  1.0000
  H   H75       1.0  0.24613  0.48749999999999993  0.24095  1.0000
  H   H76       1.0  0.09053999999999991  0.40355  0.92847  1.0000
  H   H77       1.0  0.11643000000000006  0.42759  0.9940600000000002  1.0000
  H   H78       1.0  0.9167  0.47135999999999995  0.98894  1.0000
  H   H79       1.0  0.89184  0.44783  0.92341  1.0000
  H   H80       1.0  0.10888000000000002  0.39882  0.041789999999999994  1.0000
  H   H81       1.0  0.1353  0.42759999999999987  0.10731999999999998  1.0000
  H   H82       1.0  0.76088  0.46708  0.36818  1.0000
  H   H83       1.0  0.76204  0.46845999999999993  0.23879  1.0000
  H   H84       1.0  0.8431  0.45396  0.20376  1.0000
  H   H85       1.0  0.9188  0.65308  0.25575  1.0000
  H   H86       1.0  0.8367400000000002  0.6667899999999999  0.28998  1.0000
  H   H87       1.0  0.87656  0.47151999999999994  0.16025  1.0000
  H   H88       1.0  0.95946  0.45502999999999993  0.12678  1.0000
  H   H89       1.0  0.08804  0.60248  0.2108  1.0000
  H   H90       1.0  0.006790000000000012  0.61683  0.24502  1.0000
  H   H91       1.0  0.6055299999999999  0.18750999999999995  0.27018  1.0000
  H   H92       1.0  0.56178  0.15265  0.28989  1.0000
  H   H93       1.0  0.7219199999999999  0.66259  0.23181000000000002  1.0000
  H   H94       1.0  0.7949900000000001  0.65133  0.19221  1.0000
  H   H95       1.0  0.78643  0.85663  0.19907  1.0000
  H   H96       1.0  0.7108400000000001  0.8663499999999997  0.23716  1.0000
  H   H97       1.0  0.90506  0.6845099999999998  0.19895  1.0000
  H   H98       1.0  0.9863400000000001  0.67522  0.16442  1.0000
  H   H99       1.0  0.87626  0.7965799999999998  0.10343  1.0000
  H   H100      1.0  0.79532  0.8077299999999998  0.13882  1.0000
  H   H101      1.0  0.40796  0.76725  0.19223  1.0000
  H   H102      1.0  0.29521  0.74374  0.15281  1.0000
  H   H103      1.0  0.22102  0.84288  0.24078  1.0000
  H   H104      1.0  0.33483  0.86925  0.27925  1.0000
  H   H105      1.0  0.2006  0.68784  0.13547  1.0000
  H   H106      1.0  0.08625  0.66054  0.09969  1.0000
  H   H107      1.0  0.02884000000000001  0.83398  0.16453  1.0000
  H   H108      1.0  0.14321000000000006  0.86216  0.19979  1.0000
  H   H109      1.0  0.74436  0.5376499999999999  0.90152  1.0000
  H   H110      1.0  0.78927  0.59398  0.96512  1.0000
  H   H111      1.0  0.9772600000000001  0.61753  0.9469600000000001  1.0000
  H   H112      1.0  0.93019  0.5634999999999999  0.88289  1.0000
  H   H113      1.0  0.8406800000000001  0.59189  0.01483  1.0000
  H   H114      1.0  0.88076  0.6435499999999998  0.07869  1.0000
  H   H115      1.0  0.03582  0.74712  0.06053  1.0000
  H   H116      1.0  0.99446  0.69661  0.99626  1.0000
  H   H117      1.0  0.50935  0.45149999999999996  0.12301  1.0000
  H   H118      1.0  0.603  0.44348  0.24623  1.0000
  H   H119      1.0  0.4868  0.35570999999999997  0.14498  1.0000
  H   H120      1.0  0.13372  0.21356999999999998  0.39454  1.0000
  H   H121      1.0  0.17453  0.25192  0.45967  1.0000
  H   H122      1.0  0.366  0.17403999999999994  0.32609999999999995  1.0000
  H   H123      1.0  0.6258  0.54354  0.23006  1.0000
  H   H124      1.0  0.52743  0.8698999999999998  0.20109  1.0000
  H   H125      1.0  0.46619  0.15600999999999998  0.23969999999999997  1.0000
  H   H126      1.0  0.3815700000000001  0.17534  0.27272  1.0000
  H   H127      1.0  0.35725  0.9679599999999999  0.25867999999999997  1.0000
  H   H128      1.0  0.43888000000000005  0.94894  0.22418  1.0000
  H   H129      1.0  0.52764  0.7528  0.19846999999999998  1.0000
  H   H130      1.0  0.28651  0.19242  0.36239  1.0000
  H   H131      1.0  0.64662  0.72842  0.12476  1.0000
  H   H132      1.0  0.17602  0.015609999999999978  0.29547  1.0000
  H   H133      1.0  0.25517  0.9969799999999999  0.25906  1.0000
  H   H134      1.0  0.41237  0.22615999999999997  0.57113  1.0000
  H   H135      1.0  0.37245  0.18403000000000003  0.50558  1.0000
  H   H136      1.0  0.17795000000000005  0.23243  0.51123  1.0000
  H   H137      1.0  0.21870000000000003  0.27484  0.57668  1.0000
  H   H138      1.0  0.31667  0.10660000000000004  0.45802  1.0000
  H   H139      1.0  0.2771  0.06979000000000002  0.3925  1.0000
  H   H140      1.0  0.64377  0.84918  0.13169  1.0000
  H   H141      1.0  0.7732699999999999  0.9806799999999999  0.26124  1.0000
  H   H142      1.0  0.88926  0.00045000000000000703  0.29631  1.0000
  H   H143      1.0  0.91444  0.14753999999999998  0.2444  1.0000
  H   H144      1.0  0.79823  0.12796999999999997  0.21022  1.0000
  H   H145      1.0  0.9660700000000001  0.06144999999999999  0.33991  1.0000
  H   H146      1.0  0.08223  0.07852999999999999  0.37333  1.0000
  H   H147      1.0  0.12719  0.14201  0.28922  1.0000
  H   H148      1.0  0.012029999999999999  0.12191  0.25503  1.0000
  H   H149      1.0  0.58708  0.66613  0.23029999999999998  1.0000
  H   H150      1.0  0.52173  0.6142800000000002  0.21021  1.0000
  H   H151      1.0  0.74005  0.18085  0.26837  1.0000
  H   H152      1.0  0.8526400000000001  0.20871999999999996  0.3077  1.0000
  H   H153      1.0  0.83779  0.40724  0.30102  1.0000
  H   H154      1.0  0.72426  0.37933  0.26306  1.0000
  H   H155      1.0  0.95608  0.2352  0.301  1.0000
  H   H156      1.0  0.07176  0.26062  0.33535  1.0000
  H   H157      1.0  0.022170000000000016  0.44279999999999997  0.39637  1.0000
  H   H158      1.0  0.90596  0.41836999999999996  0.36119  1.0000
  H   H159      1.0  0.46577  0.32391  0.3076  1.0000
  H   H160      1.0  0.39204999999999995  0.3406199999999999  0.34700999999999993  1.0000
  H   H161      1.0  0.23083  0.35147  0.25887  1.0000
  H   H162      1.0  0.3064  0.33863000000000004  0.22035  1.0000
  H   H163      1.0  0.31465  0.30225  0.36438  1.0000
  H   H164      1.0  0.23559  0.31076  0.40004999999999996  1.0000
  H   H165      1.0  0.11415999999999997  0.41943999999999987  0.33502  1.0000
  H   H166      1.0  0.19379999999999994  0.41226  0.29985999999999996  1.0000
  H   H167      1.0  0.09305  0.3865899999999999  0.59851  1.0000
  H   H168      1.0  0.07433000000000001  0.37903999999999993  0.5349  1.0000
  H   H169      1.0  0.28021  0.42045  0.55239  1.0000
  H   H170      1.0  0.29732  0.43073  0.61659  1.0000
  H   H171      1.0  0.07590000000000004  0.32711  0.48524  1.0000
  H   H172      1.0  0.05164000000000005  0.31499  0.42135  1.0000
  H   H173      1.0  0.22423999999999997  0.43673  0.43872999999999995  1.0000
  H   H174      1.0  0.24767  0.45039  0.50305  1.0000
  H   H175      1.0  0.92238  0.36422  0.62306  1.0000
  H   H176      1.0  0.05297000000000001  0.39225999999999994  0.74621  1.0000
  H   H177      1.0  0.040040000000000006  0.40840999999999994  0.6451  1.0000
  H   H178      1.0  0.4304199999999999  0.009979999999999944  0.8943699999999999  1.0000
  H   H179      1.0  0.4572999999999998  0.03462999999999994  0.9595399999999998  1.0000
  H   H180      1.0  0.40245  0.7098499999999999  0.82628  1.0000
  H   H181      1.0  0.93667  0.35357999999999995  0.72998  1.0000
  H   H182      1.0  0.58168  0.424  0.70111  1.0000
  H   H183      1.0  0.3336799999999999  0.5239199999999999  0.7396199999999999  1.0000
  H   H184      1.0  0.34754  0.6414099999999998  0.77279  1.0000
  H   H185      1.0  0.54089  0.6512  0.75838  1.0000
  H   H186      1.0  0.52507  0.53533  0.72384  1.0000
  H   H187      1.0  0.6961199999999999  0.4210099999999999  0.6984599999999999  1.0000
  H   H188      1.0  0.42036999999999997  0.82546  0.86248  1.0000
  H   H189      1.0  0.64694  0.22870999999999997  0.62482  1.0000
  H   H190      1.0  0.53011  0.86913  0.79532  1.0000
  H   H191      1.0  0.51243  0.75378  0.75897  1.0000
  H   H192      1.0  0.59637  0.9093299999999997  0.07137  1.0000
  H   H193      1.0  0.5722  0.88346  0.005769999999999999  1.0000
  H   H194      1.0  0.52866  0.08336  0.01115  1.0000
  H   H195      1.0  0.55235  0.10820999999999999  0.0767  1.0000
  H   H196      1.0  0.6012  0.8911899999999999  0.9581  1.0000
  H   H197      1.0  0.5724699999999999  0.86481  0.8925599999999999  1.0000
  H   H198      1.0  0.53307  0.23866  0.63174  1.0000
  H   H199      1.0  0.53154  0.23737000000000005  0.76115  1.0000
  H   H200      1.0  0.54589  0.15674  0.7964  1.0000
  H   H201      1.0  0.34697  0.08072999999999998  0.7445  1.0000
  H   H202      1.0  0.33321  0.16255  0.71017  1.0000
  H   H203      1.0  0.52837  0.12351999999999991  0.83982  1.0000
  H   H204      1.0  0.5449399999999999  0.04065  0.8732799999999998  1.0000
  H   H205      1.0  0.39762  0.91182  0.78931  1.0000
  H   H206      1.0  0.38328  0.9930099999999998  0.7551  1.0000
  H   H207      1.0  0.8123000000000001  0.39454999999999996  0.72977  1.0000
  H   H208      1.0  0.84715  0.43831  0.71006  1.0000
  H   H209      1.0  0.33758  0.2778599999999999  0.76854  1.0000
  H   H210      1.0  0.34888  0.20466999999999996  0.80807  1.0000
  H   H211      1.0  0.14349999999999993  0.21297999999999986  0.80121  1.0000
  H   H212      1.0  0.13385000000000008  0.28855  0.76314  1.0000
  H   H213      1.0  0.31570000000000004  0.09466999999999992  0.80117  1.0000
  H   H214      1.0  0.32483  0.013209999999999927  0.83554  1.0000
  H   H215      1.0  0.20338  0.12320999999999997  0.89667  1.0000
  H   H216      1.0  0.19241000000000008  0.20435999999999993  0.86145  1.0000
  H   H217      1.0  0.23243999999999998  0.59143  0.80744  1.0000
  H   H218      1.0  0.25585  0.7043199999999997  0.84673  1.0000
  H   H219      1.0  0.15661000000000003  0.7778999999999999  0.75875  1.0000
  H   H220      1.0  0.13027  0.6641  0.72036  1.0000
  H   H221      1.0  0.31182  0.7987299999999999  0.86405  1.0000
  H   H222      1.0  0.33919000000000005  0.91303  0.90001  1.0000
  H   H223      1.0  0.16608  0.9708299999999999  0.83533  1.0000
  H   H224      1.0  0.13783999999999993  0.8565  0.7998799999999999  1.0000
  H   H225      1.0  0.4623900000000001  0.25555  0.09849  1.0000
  H   H226      1.0  0.40609000000000006  0.21070999999999998  0.034899999999999994  1.0000
  H   H227      1.0  0.38234000000000007  0.022619999999999994  0.05286  1.0000
  H   H228      1.0  0.43640999999999996  0.06962  0.11694  1.0000
  H   H229      1.0  0.40775000000000006  0.15922999999999998  0.9850000000000001  1.0000
  H   H230      1.0  0.35618  0.11884999999999993  0.92118  1.0000
  H   H231      1.0  0.2527999999999999  0.9638199999999996  0.9394799999999999  1.0000
  H   H232      1.0  0.30325  0.0055  0.00373  1.0000
  C   C1        1.0  0.54841  0.4702499999999999  0.84941  1.0000
  C   C2        1.0  0.55205  0.4186899999999999  0.78045  1.0000
  C   C3        1.0  0.9158200000000001  0.68339  0.71009  1.0000
  C   C4        1.0  0.6013  0.48273  0.83752  1.0000
  C   C5        1.0  0.8101999999999999  0.8263999999999999  0.59152  1.0000
  C   C6        1.0  0.49429  0.43118  0.82522  1.0000
  C   C7        1.0  0.43864  0.4181999999999999  0.83782  1.0000
  C   C8        1.0  0.89465  0.77341  0.66873  1.0000
  C   C9        1.0  0.7893  0.8036599999999998  0.55465  1.0000
  C   C10       1.0  0.86076  0.6754  0.68074  1.0000
  C   C11       1.0  0.4963699999999999  0.40521999999999997  0.7899  1.0000
  C   C12       1.0  0.16269  0.44604  0.81516  1.0000
  C   C13       1.0  0.95949  0.4877099999999999  0.78697  1.0000
  C   C14       1.0  0.94875  0.54081  0.76921  1.0000
  C   C15       1.0  0.88482  0.55731  0.75558  1.0000
  C   C16       1.0  0.8742099999999999  0.60461  0.73706  1.0000
  C   C17       1.0  0.92696  0.6358899999999998  0.73135  1.0000
  C   C18       1.0  0.9907800000000001  0.62005  0.74589  1.0000
  C   C19       1.0  0.0016999999999999244  0.5736099999999998  0.7649099999999999  1.0000
  C   C20       1.0  0.26956  0.41276  0.83901  1.0000
  C   C21       1.0  0.22877999999999996  0.44664999999999994  0.81724  1.0000
  C   C22       1.0  0.85032  0.7195099999999998  0.66023  1.0000
  C   C23       1.0  0.24107999999999996  0.3801899999999999  0.8581299999999998  1.0000
  C   C24       1.0  0.9501  0.7818499999999998  0.6978  1.0000
  C   C25       1.0  0.96029  0.7374099999999999  0.71812  1.0000
  C   C26       1.0  0.71711  0.65673  0.38263  1.0000
  C   C27       1.0  0.74683  0.68197  0.42171  1.0000
  C   C28       1.0  0.7732900000000001  0.63901  0.44203  1.0000
  C   C29       1.0  0.7972400000000001  0.66163  0.47878  1.0000
  C   C30       1.0  0.7950799999999999  0.7278599999999998  0.49659  1.0000
  C   C31       1.0  0.76918  0.77061  0.47588  1.0000
  C   C32       1.0  0.74559  0.7482299999999998  0.4390899999999999  1.0000
  C   C33       1.0  0.8181299999999999  0.75147  0.53571  1.0000
  C   C34       1.0  0.8689  0.72258  0.55557  1.0000
  C   C35       1.0  0.89027  0.745  0.59247  1.0000
  C   C36       1.0  0.8612200000000001  0.79744  0.61092  1.0000
  C   C37       1.0  0.17449999999999993  0.38148999999999994  0.85422  1.0000
  C   C38       1.0  0.3396  0.41068  0.8434  1.0000
  C   C39       1.0  0.95546  0.29168  0.78653  1.0000
  C   C40       1.0  0.94681  0.22148000000000004  0.76646  1.0000
  C   C41       1.0  0.9827600000000001  0.19524  0.74207  1.0000
  C   C42       1.0  0.97106  0.13018  0.72226  1.0000
  C   C43       1.0  0.9239500000000002  0.08908999999999997  0.7266  1.0000
  C   C44       1.0  0.88943  0.11582999999999999  0.75183  1.0000
  C   C45       1.0  0.90014  0.18097  0.77118  1.0000
  C   C46       1.0  0.91095  0.020290000000000002  0.70562  1.0000
  C   C47       1.0  0.92185  0.99865  0.6717  1.0000
  C   C48       1.0  0.91168  0.93325  0.65249  1.0000
  C   C49       1.0  0.88947  0.8867299999999999  0.66657  1.0000
  C   C50       1.0  0.8759299999999999  0.9080299999999998  0.69982  1.0000
  C   C51       1.0  0.88711  0.97334  0.71893  1.0000
  C   C52       1.0  0.73869  0.34246  0.7611  1.0000
  C   C53       1.0  0.72201  0.27497  0.73705  1.0000
  C   C54       1.0  0.7696599999999999  0.23838  0.72403  1.0000
  C   C55       1.0  0.75398  0.17491999999999994  0.70226  1.0000
  C   C56       1.0  0.6902999999999999  0.1461199999999999  0.6930199999999999  1.0000
  C   C57       1.0  0.64227  0.18372  0.70551  1.0000
  C   C58       1.0  0.6579  0.24717999999999998  0.72719  1.0000
  C   C59       1.0  0.67498  0.07746  0.67165  1.0000
  C   C60       1.0  0.7190299999999998  0.029660000000000006  0.67831  1.0000
  C   C61       1.0  0.70487  0.9644  0.65906  1.0000
  C   C62       1.0  0.64632  0.94548  0.63217  1.0000
  C   C63       1.0  0.6022  0.9925699999999998  0.62494  1.0000
  C   C64       1.0  0.61627  0.057640000000000025  0.64467  1.0000
  C   C65       1.0  0.6761899999999998  0.56565  0.7627499999999999  1.0000
  C   C66       1.0  0.66919  0.60907  0.73855  1.0000
  C   C67       1.0  0.66962  0.58556  0.70282  1.0000
  C   C68       1.0  0.66098  0.62737  0.68088  1.0000
  C   C69       1.0  0.6525  0.69428  0.69396  1.0000
  C   C70       1.0  0.65294  0.71739  0.73004  1.0000
  C   C71       1.0  0.6607799999999999  0.67564  0.75185  1.0000
  C   C72       1.0  0.64442  0.73945  0.67125  1.0000
  C   C73       1.0  0.67093  0.7283299999999999  0.64193  1.0000
  C   C74       1.0  0.66651  0.77279  0.62174  1.0000
  C   C75       1.0  0.63476  0.8306399999999998  0.63028  1.0000
  C   C76       1.0  0.6065  0.8417  0.65886  1.0000
  C   C77       1.0  0.61133  0.79693  0.67879  1.0000
  C   C78       1.0  0.5869  0.7943699999999999  0.35016  1.0000
  C   C79       1.0  0.59054  0.8037  0.38837  1.0000
  C   C80       1.0  0.60573  0.86638  0.41198999999999997  1.0000
  C   C81       1.0  0.6108599999999998  0.8764  0.4478599999999999  1.0000
  C   C82       1.0  0.60176  0.8241199999999999  0.4618  1.0000
  C   C83       1.0  0.58588  0.7614  0.43781  1.0000
  C   C84       1.0  0.58019  0.75135  0.4017  1.0000
  C   C85       1.0  0.6098  0.83629  0.50029  1.0000
  C   C86       1.0  0.64751  0.8916099999999998  0.52455  1.0000
  C   C87       1.0  0.65521  0.9052799999999999  0.56089  1.0000
  C   C88       1.0  0.62524  0.86354  0.57485  1.0000
  C   C89       1.0  0.58772  0.80771  0.55106  1.0000
  C   C90       1.0  0.58049  0.79465  0.51467  1.0000
  C   C91       1.0  0.6288  0.050359999999999995  0.34945  1.0000
  C   C92       1.0  0.61178  0.97788  0.28054  1.0000
  C   C93       1.0  0.27672  0.54387  0.21003  1.0000
  C   C94       1.0  0.60437  0.98567  0.33759  1.0000
  C   C95       1.0  0.01565  0.53171  0.09169  1.0000
  C   C96       1.0  0.64386  0.08032  0.32524  1.0000
  C   C97       1.0  0.66939  0.14852999999999997  0.33778  1.0000
  C   C98       1.0  0.14556  0.5237899999999999  0.16877  1.0000
  C   C99       1.0  0.001350000000000001  0.51573  0.0548  1.0000
  C   C100      1.0  0.25548  0.56958  0.18063  1.0000
  C   C101      1.0  0.6347499999999999  0.042949999999999995  0.28995  1.0000
  C   C102      1.0  0.61856  0.40197  0.31514  1.0000
  C   C103      1.0  0.54841  0.5777499999999999  0.28732  1.0000
  C   C104      1.0  0.47782  0.5706  0.26936  1.0000
  C   C105      1.0  0.44772  0.62077  0.25559  1.0000
  C   C106      1.0  0.38205  0.61267  0.23697  1.0000
  C   C107      1.0  0.34533  0.55409  0.23129999999999998  1.0000
  C   C108      1.0  0.37573999999999996  0.50488  0.24596000000000004  1.0000
  C   C109      1.0  0.44104  0.5132299999999999  0.26507  1.0000
  C   C110      1.0  0.67576  0.31883  0.33896  1.0000
  C   C111      1.0  0.62021  0.33790999999999993  0.3172  1.0000
  C   C112      1.0  0.19096  0.55953  0.16016  1.0000
  C   C113      1.0  0.72727  0.36647  0.35803  1.0000
  C   C114      1.0  0.16613  0.49738  0.19788  1.0000
  C   C115      1.0  0.2308  0.50746  0.21817  1.0000
  C   C116      1.0  0.9756399999999997  0.41315999999999997  0.8825299999999999  1.0000
  C   C117      1.0  0.98946  0.4234799999999999  0.9216899999999999  1.0000
  C   C118      1.0  0.05268999999999994  0.4176  0.942  1.0000
  C   C119      1.0  0.06683999999999994  0.4309699999999999  0.9787699999999999  1.0000
  C   C120      1.0  0.018520000000000123  0.45131  0.99663  1.0000
  C   C121      1.0  0.95513  0.4565199999999998  0.9759299999999999  1.0000
  C   C122      1.0  0.9406500000000001  0.44272  0.93908  1.0000
  C   C123      1.0  0.034300000000000004  0.4677499999999999  0.03579  1.0000
  C   C124      1.0  0.08319  0.43691  0.0556  1.0000
  C   C125      1.0  0.09787  0.45242999999999994  0.09251  1.0000
  C   C126      1.0  0.06392000000000002  0.49988  0.11101999999999998  1.0000
  C   C127      1.0  0.72188  0.4291899999999999  0.35415  1.0000
  C   C128      1.0  0.68236  0.25314  0.34334  1.0000
  C   C129      1.0  0.74394  0.5798199999999999  0.28668  1.0000
  C   C130      1.0  0.79414  0.56872  0.26655  1.0000
  C   C131      1.0  0.79643  0.50864  0.24214000000000002  1.0000
  C   C132      1.0  0.8418999999999999  0.50097  0.2224  1.0000
  C   C133      1.0  0.8871700000000001  0.5525199999999999  0.22673  1.0000
  C   C134      1.0  0.88516  0.6120299999999997  0.25196  1.0000
  C   C135      1.0  0.83919  0.62023  0.27129  1.0000
  C   C136      1.0  0.93516  0.54472  0.20572  1.0000
  C   C137      1.0  0.92314  0.49988  0.17183  1.0000
  C   C138      1.0  0.96944  0.4907099999999999  0.15261  1.0000
  C   C139      1.0  0.03001  0.52688  0.16665  1.0000
  C   C140      1.0  0.04175000000000001  0.57362  0.19985  1.0000
  C   C141      1.0  0.99542  0.5817099999999998  0.21896999999999997  1.0000
  C   C142      1.0  0.66871  0.7720199999999999  0.26156  1.0000
  C   C143      1.0  0.7120900000000001  0.76522  0.23735000000000003  1.0000
  C   C144      1.0  0.73579  0.70466  0.22424999999999998  1.0000
  C   C145      1.0  0.77734  0.69871  0.20234  1.0000
  C   C146      1.0  0.79687  0.7532499999999999  0.19310999999999998  1.0000
  C   C147      1.0  0.77165  0.81367  0.20565  1.0000
  C   C148      1.0  0.7298299999999998  0.81953  0.2274  1.0000
  C   C149      1.0  0.84422  0.7472099999999999  0.17167  1.0000
  C   C150      1.0  0.8985300000000002  0.7096100000000001  0.17824  1.0000
  C   C151      1.0  0.94446  0.70422  0.15885  1.0000
  C   C152      1.0  0.93661  0.73578  0.13186  1.0000
  C   C153      1.0  0.88246  0.7729299999999999  0.12472  1.0000
  C   C154      1.0  0.83721  0.77887  0.1446  1.0000
  C   C155      1.0  0.44582000000000005  0.83805  0.26256  1.0000
  C   C156      1.0  0.37852  0.8203699999999999  0.23824000000000004  1.0000
  C   C157      1.0  0.36671  0.7839999999999999  0.20259  1.0000
  C   C158      1.0  0.3031  0.77027  0.18063  1.0000
  C   C159      1.0  0.24906  0.79159  0.19363  1.0000
  C   C160      1.0  0.26168  0.8274299999999999  0.22963999999999998  1.0000
  C   C161      1.0  0.32507  0.8417899999999998  0.25145  1.0000
  C   C162      1.0  0.18131999999999995  0.77667  0.17094999999999996  1.0000
  C   C163      1.0  0.16348  0.7208699999999999  0.14169  1.0000
  C   C164      1.0  0.09899999999999999  0.70502  0.12143  1.0000
  C   C165      1.0  0.04947999999999999  0.7451599999999998  0.12983999999999998  1.0000
  C   C166      1.0  0.06669  0.8019699999999998  0.15836  1.0000
  C   C167      1.0  0.1312  0.8171799999999999  0.17837  1.0000
  C   C168      1.0  0.8053499999999999  0.51147  0.84995  1.0000
  C   C169      1.0  0.83416  0.5469099999999999  0.88801  1.0000
  C   C170      1.0  0.7952200000000001  0.5557199999999999  0.91176  1.0000
  C   C171      1.0  0.82107  0.58665  0.94757  1.0000
  C   C172      1.0  0.88721  0.60971  0.96139  1.0000
  C   C173      1.0  0.92578  0.6013599999999999  0.9372299999999999  1.0000
  C   C174      1.0  0.89977  0.57063  0.90118  1.0000
  C   C175      1.0  0.9135799999999998  0.6402499999999998  0.9998699999999999  1.0000
  C   C176      1.0  0.88267  0.62695  0.02431  1.0000
  C   C177      1.0  0.9055500000000001  0.6555  0.060629999999999996  1.0000
  C   C178      1.0  0.96128  0.69923  0.07442999999999998  1.0000
  C   C179      1.0  0.99325  0.71274  0.05048  1.0000
  C   C180      1.0  0.96969  0.68369  0.0141  1.0000
  C   C181      1.0  0.52971  0.45150999999999997  0.1506  1.0000
  C   C182      1.0  0.58135  0.44793  0.21952  1.0000
  C   C183      1.0  0.31647  0.08416999999999997  0.2899  1.0000
  C   C184      1.0  0.51725  0.3986199999999999  0.16249  1.0000
  C   C185      1.0  0.1734  0.18976  0.40852  1.0000
  C   C186      1.0  0.56878  0.50567  0.17479  1.0000
  C   C187      1.0  0.58179  0.5613  0.1622  1.0000
  C   C188      1.0  0.22637  0.10533999999999999  0.33125  1.0000
  C   C189      1.0  0.19618000000000002  0.2106899999999999  0.44537999999999994  1.0000
  C   C190      1.0  0.32438999999999996  0.13926999999999995  0.31926999999999994  1.0000
  C   C191      1.0  0.59475  0.50363  0.21008  1.0000
  C   C192      1.0  0.55407  0.8373799999999998  0.18483  1.0000
  C   C193      1.0  0.51235  0.04073  0.21306  1.0000
  C   C194      1.0  0.45923  0.051359999999999996  0.23081000000000002  1.0000
  C   C195      1.0  0.44266  0.1153  0.24447999999999998  1.0000
  C   C196      1.0  0.3953  0.12587  0.26299  1.0000
  C   C197      1.0  0.36404  0.07307  0.26865  1.0000
  C   C198      1.0  0.37998  0.009240000000000009  0.2541  1.0000
  C   C199      1.0  0.42649  0.99836  0.23508999999999997  1.0000
  C   C200      1.0  0.58737  0.7303999999999999  0.16102  1.0000
  C   C201      1.0  0.55345  0.77129  0.18277  1.0000
  C   C202      1.0  0.28024  0.14972999999999997  0.33978  1.0000
  C   C203      1.0  0.61999  0.75878  0.14187  1.0000
  C   C204      1.0  0.21799  0.04985999999999999  0.30215  1.0000
  C   C205      1.0  0.26248  0.039659999999999966  0.28183  1.0000
  C   C206      1.0  0.343  0.28177  0.61733  1.0000
  C   C207      1.0  0.318  0.25268  0.5782  1.0000
  C   C208      1.0  0.36097  0.22650999999999996  0.55779  1.0000
  C   C209      1.0  0.33828  0.20273999999999998  0.52103  1.0000
  C   C210      1.0  0.27207  0.20493  0.50333  1.0000
  C   C211      1.0  0.22939999999999997  0.23081  0.52413  1.0000
  C   C212      1.0  0.25181  0.25413  0.56092  1.0000
  C   C213      1.0  0.24837  0.18184999999999996  0.46423  1.0000
  C   C214      1.0  0.27717999999999987  0.13098999999999997  0.4443099999999999  1.0000
  C   C215      1.0  0.25472  0.10957999999999997  0.40742  1.0000
  C   C216      1.0  0.20231  0.13868  0.38906  1.0000
  C   C217      1.0  0.61869  0.82536  0.14576  1.0000
  C   C218      1.0  0.58942  0.66035  0.15665  1.0000
  C   C219      1.0  0.70836  0.044580000000000015  0.21344  1.0000
  C   C220      1.0  0.77851  0.05322000000000001  0.23353000000000002  1.0000
  C   C221      1.0  0.80463  0.01727999999999999  0.25789  1.0000
  C   C222      1.0  0.86964  0.028980000000000006  0.27771  1.0000
  C   C223      1.0  0.91081  0.07608999999999999  0.27341  1.0000
  C   C224      1.0  0.88418  0.11055  0.24818000000000004  1.0000
  C   C225      1.0  0.81909  0.09983999999999997  0.22881999999999997  1.0000
  C   C226      1.0  0.97957  0.0891  0.2944  1.0000
  C   C227      1.0  0.001130000000000007  0.07821  0.3283  1.0000
  C   C228      1.0  0.06648  0.08836  0.3475  1.0000
  C   C229      1.0  0.11304999999999998  0.11051999999999998  0.33343  1.0000
  C   C230      1.0  0.09184000000000003  0.12404999999999998  0.3002  1.0000
  C   C231      1.0  0.026570000000000017  0.11289999999999999  0.2811  1.0000
  C   C232      1.0  0.65755  0.26136  0.23886  1.0000
  C   C233      1.0  0.725  0.27805  0.26291  1.0000
  C   C234      1.0  0.76154  0.23041  0.27593  1.0000
  C   C235      1.0  0.8249300000000002  0.24611  0.29771  1.0000
  C   C236      1.0  0.85377  0.30979999999999996  0.30696999999999997  1.0000
  C   C237      1.0  0.81625  0.35782  0.29447  1.0000
  C   C238      1.0  0.75284  0.34217  0.27279  1.0000
  C   C239      1.0  0.92238  0.32508  0.32837  1.0000
  C   C240      1.0  0.97016  0.28097  0.32171  1.0000
  C   C241      1.0  0.03536  0.29507  0.34099  1.0000
  C   C242      1.0  0.05426  0.35365  0.36791  1.0000
  C   C243      1.0  0.007180000000000013  0.39784  0.37515  1.0000
  C   C244      1.0  0.94217  0.38381  0.35539  1.0000
  C   C245      1.0  0.43432  0.32381  0.23725999999999997  1.0000
  C   C246      1.0  0.39085  0.33082  0.26147  1.0000
  C   C247      1.0  0.41429000000000005  0.33043999999999996  0.29719  1.0000
  C   C248      1.0  0.37243  0.33907999999999994  0.31914  1.0000
  C   C249      1.0  0.30555  0.34752  0.30608  1.0000
  C   C250      1.0  0.28253  0.34705  0.27002  1.0000
  C   C251      1.0  0.32432000000000005  0.3392  0.24819  1.0000
  C   C252      1.0  0.26033  0.35559  0.32879  1.0000
  C   C253      1.0  0.27138  0.32904  0.35807  1.0000
  C   C254      1.0  0.22686999999999996  0.33342  0.37826  1.0000
  C   C255      1.0  0.16907  0.3652099999999999  0.36977  1.0000
  C   C256      1.0  0.15808  0.39349  0.34123  1.0000
  C   C257      1.0  0.20288  0.38869  0.32129  1.0000
  C   C258      1.0  0.20576000000000003  0.41151999999999994  0.64984  1.0000
  C   C259      1.0  0.19644  0.40885999999999995  0.61172  1.0000
  C   C260      1.0  0.13371  0.39415  0.58817  1.0000
  C   C261      1.0  0.12363  0.38927999999999996  0.55233  1.0000
  C   C262      1.0  0.17583  0.39839  0.53832  1.0000
  C   C263      1.0  0.23854  0.4141699999999999  0.56227  1.0000
  C   C264      1.0  0.24871000000000001  0.41944999999999993  0.59835  1.0000
  C   C265      1.0  0.16358000000000006  0.39033  0.49982  1.0000
  C   C266      1.0  0.10824000000000002  0.35263  0.47558  1.0000
  C   C267      1.0  0.09450000000000007  0.34489999999999993  0.4392400000000001  1.0000
  C   C268      1.0  0.13619  0.37482  0.42523  1.0000
  C   C269      1.0  0.19201  0.41234  0.44898  1.0000
  C   C270      1.0  0.20513999999999996  0.41959999999999986  0.48536999999999997  1.0000
  C   C271      1.0  0.9497999999999999  0.37109  0.65064  1.0000
  C   C272      1.0  0.021960000000000063  0.3874099999999999  0.7195  1.0000
  C   C273      1.0  0.45605999999999997  0.72327  0.78991  1.0000
  C   C274      1.0  0.014570000000000012  0.39517999999999986  0.66256  1.0000
  C   C275      1.0  0.4683899999999999  0.9845099999999998  0.90839  1.0000
  C   C276      1.0  0.91962  0.356  0.67477  1.0000
  C   C277      1.0  0.85141  0.33057  0.66216  1.0000
  C   C278      1.0  0.47621999999999987  0.85449  0.8312299999999999  1.0000
  C   C279      1.0  0.48433999999999994  0.9987699999999998  0.94528  1.0000
  C   C280      1.0  0.43035  0.74459  0.81935  1.0000
  C   C281      1.0  0.9568  0.36483  0.71004  1.0000
  C   C282      1.0  0.59789  0.38116999999999995  0.68479  1.0000
  C   C283      1.0  0.42216  0.45119  0.71294  1.0000
  C   C284      1.0  0.42933  0.52193  0.73069  1.0000
  C   C285      1.0  0.37916000000000005  0.55219  0.74444  1.0000
  C   C286      1.0  0.38724  0.61794  0.76299  1.0000
  C   C287      1.0  0.44582000000000005  0.65461  0.76862  1.0000
  C   C288      1.0  0.4949799999999999  0.6240799999999999  0.75391  1.0000
  C   C289      1.0  0.48665  0.55869  0.73485  1.0000
  C   C290      1.0  0.68114  0.32406  0.66097  1.0000
  C   C291      1.0  0.66196  0.37961  0.68277  1.0000
  C   C292      1.0  0.44043  0.8091499999999998  0.83984  1.0000
  C   C293      1.0  0.63364  0.27243000000000006  0.64189  1.0000
  C   C294      1.0  0.5026  0.8338699999999999  0.80208  1.0000
  C   C295      1.0  0.4924799999999999  0.7691599999999998  0.78176  1.0000
  C   C296      1.0  0.58678  0.02427  0.11745  1.0000
  C   C297      1.0  0.57652  0.01048999999999999  0.07828999999999998  1.0000
  C   C298      1.0  0.58239  0.9472299999999999  0.057909999999999996  1.0000
  C   C299      1.0  0.569  0.93311  0.02114  1.0000
  C   C300      1.0  0.54869  0.9814899999999999  0.0033500000000000005  1.0000
  C   C301      1.0  0.54358  0.04492  0.024129999999999995  1.0000
  C   C302      1.0  0.5573999999999998  0.05937  0.06097  1.0000
  C   C303      1.0  0.5322400000000002  0.96575  0.96421  1.0000
  C   C304      1.0  0.56312  0.9168699999999995  0.9443299999999999  1.0000
  C   C305      1.0  0.54765  0.90223  0.90743  1.0000
  C   C306      1.0  0.50021  0.9361999999999999  0.8890099999999999  1.0000
  C   C307      1.0  0.57089  0.27774  0.64575  1.0000
  C   C308      1.0  0.74683  0.31757  0.65658  1.0000
  C   C309      1.0  0.4205699999999999  0.2546399999999999  0.7128999999999999  1.0000
  C   C310      1.0  0.4314  0.20495000000000005  0.73332  1.0000
  C   C311      1.0  0.4913699999999999  0.20297999999999997  0.75782  1.0000
  C   C312      1.0  0.49896  0.15786000000000006  0.77772  1.0000
  C   C313      1.0  0.4474499999999999  0.11259  0.77342  1.0000
  C   C314      1.0  0.38794  0.11442999999999999  0.74823  1.0000
  C   C315      1.0  0.37979  0.16014999999999996  0.72879  1.0000
  C   C316      1.0  0.4552899999999999  0.06470000000000001  0.79441  1.0000
  C   C317      1.0  0.5000899999999998  0.07688000000000002  0.82827  1.0000
  C   C318      1.0  0.50928  0.030629999999999977  0.84748  1.0000
  C   C319      1.0  0.47314999999999996  0.9700199999999999  0.83342  1.0000
  C   C320      1.0  0.4264200000000001  0.95815  0.80024  1.0000
  C   C321      1.0  0.4183300000000001  0.004429999999999947  0.78114  1.0000
  C   C322      1.0  0.22808  0.33005  0.7386  1.0000
  C   C323      1.0  0.23502999999999993  0.28731000000000007  0.76303  1.0000
  C   C324      1.0  0.2956200000000001  0.26388  0.77616  1.0000
  C   C325      1.0  0.3015299999999999  0.22234999999999983  0.79802  1.0000
  C   C326      1.0  0.24693  0.20276999999999998  0.80719  1.0000
  C   C327      1.0  0.18648000000000003  0.22789  0.79468  1.0000
  C   C328      1.0  0.18065000000000006  0.26963  0.77295  1.0000
  C   C329      1.0  0.25292  0.1554  0.82854  1.0000
  C   C330      1.0  0.29053  0.10110000000000006  0.82187  1.0000
  C   C331      1.0  0.29582  0.05508999999999993  0.84116  1.0000
  C   C332      1.0  0.26418  0.0628999999999999  0.86814  1.0000
  C   C333      1.0  0.22704999999999997  0.1170599999999999  0.8753799999999999  1.0000
  C   C334      1.0  0.22120000000000012  0.16240000000000002  0.8556000000000001  1.0000
  C   C335      1.0  0.16168  0.55258  0.73726  1.0000
  C   C336      1.0  0.17917  0.6203300000000002  0.76137  1.0000
  C   C337      1.0  0.2155900000000001  0.63255  0.79702  1.0000
  C   C338      1.0  0.22933999999999993  0.6962799999999999  0.81891  1.0000
  C   C339      1.0  0.2080599999999999  0.75026  0.80591  1.0000
  C   C340      1.0  0.17215000000000003  0.7373199999999999  0.7699099999999999  1.0000
  C   C341      1.0  0.15774  0.67377  0.74814  1.0000
  C   C342      1.0  0.2231  0.81811  0.82863  1.0000
  C   C343      1.0  0.2788399999999998  0.8358899999999998  0.8578999999999999  1.0000
  C   C344      1.0  0.2947400000000001  0.9003700000000002  0.8782900000000001  1.0000
  C   C345      1.0  0.2547  0.94999  0.86999  1.0000
  C   C346      1.0  0.19799  0.93289  0.84144  1.0000
  C   C347      1.0  0.1827499999999999  0.86838  0.82132  1.0000
  C   C348      1.0  0.48853  0.19459  0.15001  1.0000
  C   C349      1.0  0.45308  0.16572999999999996  0.11192999999999999  1.0000
  C   C350      1.0  0.44429  0.20468  0.08822  1.0000
  C   C351      1.0  0.41335  0.17886  0.0524  1.0000
  C   C352      1.0  0.39018  0.11273  0.03853  1.0000
  C   C353      1.0  0.39855  0.07412  0.06264  1.0000
  C   C354      1.0  0.4293  0.10009999999999997  0.09869999999999998  1.0000
  C   C355      1.0  0.35957  0.08632  5e-05  1.0000
  C   C356      1.0  0.37280000000000013  0.11714999999999999  0.97557  1.0000
  C   C357      1.0  0.34429  0.09409999999999986  0.9392499999999999  1.0000
  C   C358      1.0  0.30064999999999986  0.03826999999999991  0.9254999999999999  1.0000
  C   C359      1.0  0.28715999999999997  0.006419999999999969  0.9494899999999998  1.0000
  C   C360      1.0  0.3161699999999999  0.03015999999999999  0.98586  1.0000
  N   N1        1.0  0.8826200000000001  0.81969  0.64853  1.0000
  N   N2        1.0  0.1351900000000001  0.41357999999999995  0.8329  1.0000
  N   N3        1.0  0.37449  0.42588999999999994  0.8219199999999999  1.0000
  N   N4        1.0  0.44273  0.39979  0.86733  1.0000
  N   N5        1.0  0.38067999999999996  0.39356  0.8702600000000001  1.0000
  N   N6        1.0  0.34934  0.45117999999999997  0.79271  1.0000
  N   N7        1.0  0.60348  0.45699999999999996  0.80362  1.0000
  N   N8        1.0  0.63239  0.87882  0.61172  1.0000
  N   N9        1.0  0.07916  0.51573  0.14862  1.0000
  N   N10       1.0  0.66848  0.4472999999999999  0.3329  1.0000
  N   N11       1.0  0.6455099999999999  0.19691999999999998  0.32201  1.0000
  N   N12       1.0  0.71764  0.17374  0.3671  1.0000
  N   N13       1.0  0.72671  0.23869  0.37001  1.0000
  N   N14       1.0  0.59067  0.19307  0.29307  1.0000
  N   N15       1.0  0.59633  0.94962  0.30371  1.0000
  N   N16       1.0  0.98284  0.7289  0.11129999999999998  1.0000
  N   N17       1.0  0.18005  0.11733000000000002  0.35145  1.0000
  N   N18       1.0  0.58657  0.8647699999999999  0.16707  1.0000
  N   N19       1.0  0.5742599999999999  0.62553  0.17816999999999997  1.0000
  N   N20       1.0  0.60008  0.55711  0.13263  1.0000
  N   N21       1.0  0.60637  0.61915  0.1297  1.0000
  N   N22       1.0  0.54913  0.6508  0.20746  1.0000
  N   N23       1.0  0.54302  0.39647  0.19637  1.0000
  N   N24       1.0  0.12088  0.36760999999999994  0.38836  1.0000
  N   N25       1.0  0.4843500000000001  0.9209199999999998  0.8514100000000001  1.0000
  N   N26       1.0  0.55265  0.33118999999999993  0.66697  1.0000
  N   N27       1.0  0.80299  0.35447  0.67793  1.0000
  N   N28       1.0  0.8262999999999999  0.2823  0.63282  1.0000
  N   N29       1.0  0.76135  0.27321  0.6299  1.0000
  N   N30       1.0  0.80675  0.40938  0.70689  1.0000
  N   N31       1.0  0.05046999999999998  0.40276999999999996  0.6964  1.0000
  N   N32       1.0  0.27098  0.016639999999999988  0.88863  1.0000
  O   O1        1.0  0.0160799999999999  0.4862899999999999  0.8080999999999999  1.0000
  O   O2        1.0  0.9128  0.44482  0.77945  1.0000
  O   O3        1.0  0.91179  0.3148499999999999  0.8015099999999998  1.0000
  O   O4        1.0  0.006980000000000004  0.32406  0.78697  1.0000
  O   O5        1.0  0.71426  0.5942  0.36997  1.0000
  O   O6        1.0  0.69545  0.6976299999999999  0.36514  1.0000
  O   O7        1.0  0.5781099999999999  0.7374599999999999  0.3285699999999999  1.0000
  O   O8        1.0  0.5933099999999999  0.84698  0.3411  1.0000
  O   O9        1.0  0.7971199999999999  0.36731  0.76887  1.0000
  O   O10       1.0  0.6921100000000001  0.37164  0.77172  1.0000
  O   O11       1.0  0.68841  0.50474  0.7501  1.0000
  O   O12       1.0  0.6698000000000001  0.5872000000000002  0.79348  1.0000
  O   O13       1.0  0.5707400000000001  0.54252  0.30862  1.0000
  O   O14       1.0  0.58392  0.6167  0.27968  1.0000
  O   O15       1.0  0.73603  0.6381399999999999  0.30212  1.0000
  O   O16       1.0  0.71151  0.52867  0.28681  1.0000
  O   O17       1.0  0.025589999999999943  0.40338  0.86984  1.0000
  O   O18       1.0  0.91729  0.41623  0.86493  1.0000
  O   O19       1.0  0.8411200000000002  0.49801999999999996  0.82857  1.0000
  O   O20       1.0  0.74372  0.49616999999999994  0.8408299999999999  1.0000
  O   O21       1.0  0.6541499999999999  0.7210499999999999  0.26997999999999994  1.0000
  O   O22       1.0  0.64788  0.8283  0.27152  1.0000
  O   O23       1.0  0.49433  0.81288  0.25017  1.0000
  O   O24       1.0  0.45444  0.87567  0.2931  1.0000
  O   O25       1.0  0.5139400000000002  0.9841199999999998  0.1919  1.0000
  O   O26       1.0  0.55504  0.08766999999999998  0.22062000000000004  1.0000
  O   O27       1.0  0.68524  0.08819999999999997  0.19845  1.0000
  O   O28       1.0  0.6759399999999998  0.99309  0.213  1.0000
  O   O29       1.0  0.40556000000000003  0.28568  0.62992  1.0000
  O   O30       1.0  0.3019  0.30173  0.63496  1.0000
  O   O31       1.0  0.26272  0.4190099999999999  0.67124  1.0000
  O   O32       1.0  0.15314  0.4060099999999999  0.65904  1.0000
  O   O33       1.0  0.6327  0.20289999999999997  0.23102000000000003  1.0000
  O   O34       1.0  0.62837  0.30795000000000006  0.22828  1.0000
  O   O35       1.0  0.49520000000000003  0.31160999999999994  0.24986999999999998  1.0000
  O   O36       1.0  0.4128  0.33017999999999986  0.20654  1.0000
  O   O37       1.0  0.45733000000000007  0.4287899999999999  0.6915499999999999  1.0000
  O   O38       1.0  0.38342  0.41580999999999996  0.7208  1.0000
  O   O39       1.0  0.36213  0.2635199999999999  0.69816  1.0000
  O   O40       1.0  0.4718  0.28558  0.71186  1.0000
  O   O41       1.0  0.59667  0.9743299999999999  0.1301  1.0000
  O   O42       1.0  0.58358  0.08262999999999997  0.13509  1.0000
  O   O43       1.0  0.50189  0.15891  0.1714  1.0000
  O   O44       1.0  0.50392  0.25622  0.15911  1.0000
  O   O45       1.0  0.27893000000000007  0.34563999999999995  0.7303999999999999  1.0000
  O   O46       1.0  0.17132999999999998  0.34943  0.72814  1.0000
  O   O47       1.0  0.18726  0.50451  0.74988  1.0000
  O   O48       1.0  0.12394999999999996  0.5430899999999999  0.7067399999999999  1.0000
