data_image0
_chemical_formula_structural       Zn12H240C376N16O48
_chemical_formula_sum              "Zn12 H240 C376 N16 O48"
_cell_length_a       21.51355
_cell_length_b       21.509960000000003
_cell_length_c       44.98912
_cell_angle_alpha    80.74974
_cell_angle_beta     80.69682
_cell_angle_gamma    61.41168

_symmetry_space_group_name_H-M    'P 1'
_symmetry_Int_Tables_number       1

loop_
  _symmetry_equiv_pos_as_xyz
  'x,y,z'

loop_
  _atom_site_type_symbol
  _atom_site_label
  _atom_site_symmetry_multiplicity
  _atom_site_fract_x
  _atom_site_fract_y
  _atom_site_fract_z
  _atom_site_occupancy
  Zn  Zn1       1.0  0.9530300000000002  0.9066600000000004  0.9740299999999997  1.0000
  Zn  Zn2       1.0  0.97702  0.8768  0.31906  1.0000
  Zn  Zn3       1.0  0.9595099999999999  0.8690300000000001  0.39355999999999997  1.0000
  Zn  Zn4       1.0  0.9066400000000001  0.9529500000000001  0.47391999999999995  1.0000
  Zn  Zn5       1.0  0.87736  0.97623  0.8188899999999999  1.0000
  Zn  Zn6       1.0  0.8691200000000001  0.9594600000000002  0.8936999999999998  1.0000
  Zn  Zn7       1.0  0.09334999999999999  0.047050000000000015  0.52609  1.0000
  Zn  Zn8       1.0  0.12263  0.023770000000000003  0.18111  1.0000
  Zn  Zn9       1.0  0.13087  0.04054  0.1063  1.0000
  Zn  Zn10      1.0  0.04697  0.09334  0.02597  1.0000
  Zn  Zn11      1.0  0.022970000000000015  0.12320000000000003  0.6809399999999999  1.0000
  Zn  Zn12      1.0  0.04049  0.13097000000000003  0.60644  1.0000
  H   H1        1.0  0.9430299999999997  0.9875700000000001  0.26641  1.0000
  H   H2        1.0  0.016719999999999957  0.7698000000000002  0.27545  1.0000
  H   H3        1.0  0.018469999999999924  0.97104  0.11111  1.0000
  H   H4        1.0  0.83614  0.12328000000000008  0.9913399999999998  1.0000
  H   H5        1.0  0.4055399999999999  0.76597  0.92211  1.0000
  H   H6        1.0  0.9483000000000001  0.007760000000000001  0.0718  1.0000
  H   H7        1.0  0.7824600000000002  0.35467999999999994  0.98256  1.0000
  H   H8        1.0  0.1703999999999999  0.8808400000000001  0.95062  1.0000
  H   H9        1.0  0.8475  0.14524000000000006  0.89454  1.0000
  H   H10       1.0  0.30218  0.8212  0.9479  1.0000
  H   H11       1.0  0.93682  0.01069  0.017759999999999998  1.0000
  H   H12       1.0  0.5309399999999999  0.5231600000000001  0.97353  1.0000
  H   H13       1.0  0.83665  0.69886  0.9067799999999999  1.0000
  H   H14       1.0  0.9543499999999998  0.80074  0.17984  1.0000
  H   H15       1.0  0.77474  0.25417  0.99166  1.0000
  H   H16       1.0  0.6786  0.3704400000000001  0.9054299999999997  1.0000
  H   H17       1.0  0.7894600000000003  0.27668000000000004  0.8940799999999998  1.0000
  H   H18       1.0  0.30607000000000006  0.6185  0.9495899999999998  1.0000
  H   H19       1.0  0.9471700000000001  0.99443  0.21009999999999995  1.0000
  H   H20       1.0  0.8976599999999999  0.77188  0.90725  1.0000
  H   H21       1.0  0.5361000000000005  0.7062100000000001  0.9204399999999999  1.0000
  H   H22       1.0  0.5712900000000001  0.6972599999999999  0.9728299999999999  1.0000
  H   H23       1.0  0.40014000000000016  0.5829400000000001  0.9748799999999997  1.0000
  H   H24       1.0  0.17336000000000007  0.67892  0.9558599999999998  1.0000
  H   H25       1.0  0.7511700000000001  0.5398  0.9231699999999999  1.0000
  H   H26       1.0  0.9532200000000001  0.8067100000000001  0.12472  1.0000
  H   H27       1.0  0.71167  0.4852300000000001  0.9846499999999999  1.0000
  H   H28       1.0  0.63808  0.7631699999999999  0.97302  1.0000
  H   H29       1.0  0.6086  0.50046  0.9073899999999999  1.0000
  H   H30       1.0  0.81949  0.6037600000000001  0.9248899999999998  1.0000
  H   H31       1.0  0.7852499999999999  0.8384600000000002  0.99344  1.0000
  H   H32       1.0  0.02051999999999997  0.9641700000000001  0.16588  1.0000
  H   H33       1.0  0.7212600000000001  0.7684100000000001  0.9927299999999999  1.0000
  H   H34       1.0  0.02328999999999997  0.76706  0.21969999999999998  1.0000
  H   H35       1.0  0.020289999999999985  0.78069  0.07938  1.0000
  H   H36       1.0  0.00585999999999995  0.7936700000000001  0.02428  1.0000
  H   H37       1.0  0.9059100000000001  0.74118  0.30754  1.0000
  H   H38       1.0  0.8378500000000001  0.09769  0.29963999999999996  1.0000
  H   H39       1.0  0.7721100000000001  0.22936999999999996  0.29725  1.0000
  H   H40       1.0  0.7966399999999999  0.21789  0.39148  1.0000
  H   H41       1.0  0.79178  0.66582  0.4009799999999999  1.0000
  H   H42       1.0  0.86434  0.08656  0.39335  1.0000
  H   H43       1.0  0.8628299999999999  0.7271  0.40422  1.0000
  H   H44       1.0  0.8361700000000001  0.67897  0.30398  1.0000
  H   H45       1.0  0.6050300000000002  0.6374200000000001  0.38013  1.0000
  H   H46       1.0  0.7452799999999998  0.4484400000000001  0.37215999999999994  1.0000
  H   H47       1.0  0.19631999999999997  0.8331300000000001  0.30856999999999996  1.0000
  H   H48       1.0  0.3087700000000001  0.62451  0.38299999999999995  1.0000
  H   H49       1.0  0.3276  0.76614  0.30661999999999995  1.0000
  H   H50       1.0  0.6678400000000001  0.32894  0.31189  1.0000
  H   H51       1.0  0.4253500000000003  0.7396  0.32314999999999994  1.0000
  H   H52       1.0  0.17768  0.69265  0.38451  1.0000
  H   H53       1.0  0.54188  0.4885500000000001  0.3667299999999999  1.0000
  H   H54       1.0  0.5554  0.6746100000000002  0.32152  1.0000
  H   H55       1.0  0.8304100000000001  0.57298  0.31336  1.0000
  H   H56       1.0  0.80779  0.31763  0.37328  1.0000
  H   H57       1.0  0.6057  0.45974  0.31085  1.0000
  H   H58       1.0  0.41235999999999995  0.55188  0.3663699999999999  1.0000
  H   H59       1.0  0.75358  0.51936  0.30870999999999993  1.0000
  H   H60       1.0  0.68114  0.69132  0.38466  1.0000
  H   H61       1.0  0.98729  0.94308  0.76606  1.0000
  H   H62       1.0  0.7696700000000001  0.017110000000000018  0.77531  1.0000
  H   H63       1.0  0.9710600000000001  0.018370000000000015  0.61089  1.0000
  H   H64       1.0  0.12303999999999998  0.83598  0.49123  1.0000
  H   H65       1.0  0.7660600000000002  0.40506  0.4220399999999999  1.0000
  H   H66       1.0  0.007680000000000094  0.9484799999999998  0.57138  1.0000
  H   H67       1.0  0.3549900000000001  0.7825600000000003  0.4825999999999999  1.0000
  H   H68       1.0  0.8812599999999998  0.17052000000000006  0.45052999999999993  1.0000
  H   H69       1.0  0.14591999999999997  0.84675  0.39437  1.0000
  H   H70       1.0  0.82112  0.3023  0.44798  1.0000
  H   H71       1.0  0.010320000000000057  0.9370699999999998  0.51735  1.0000
  H   H72       1.0  0.5232200000000001  0.5308  0.47354  1.0000
  H   H73       1.0  0.6989  0.8363100000000001  0.4069399999999999  1.0000
  H   H74       1.0  0.8004100000000001  0.9545  0.67956  1.0000
  H   H75       1.0  0.2538400000000001  0.7752599999999998  0.49163999999999997  1.0000
  H   H76       1.0  0.37061000000000033  0.67866  0.40545  1.0000
  H   H77       1.0  0.27724999999999994  0.78925  0.39407  1.0000
  H   H78       1.0  0.61882  0.3054100000000001  0.44962999999999986  1.0000
  H   H79       1.0  0.9942  0.94726  0.7097699999999999  1.0000
  H   H80       1.0  0.7719300000000001  0.8973999999999999  0.40729  1.0000
  H   H81       1.0  0.70638  0.5356600000000002  0.4203899999999999  1.0000
  H   H82       1.0  0.6973600000000001  0.57105  0.47281  1.0000
  H   H83       1.0  0.5829100000000003  0.39993999999999996  0.47489  1.0000
  H   H84       1.0  0.6796200000000001  0.17266000000000004  0.45582  1.0000
  H   H85       1.0  0.5400200000000001  0.75093  0.4232499999999999  1.0000
  H   H86       1.0  0.8066600000000003  0.9533300000000001  0.6244199999999999  1.0000
  H   H87       1.0  0.4854800000000002  0.71147  0.4846299999999999  1.0000
  H   H88       1.0  0.76305  0.63797  0.47317  1.0000
  H   H89       1.0  0.50053  0.6084  0.40737999999999996  1.0000
  H   H90       1.0  0.6037800000000001  0.8193299999999999  0.42511999999999994  1.0000
  H   H91       1.0  0.83867  0.78533  0.4934199999999999  1.0000
  H   H92       1.0  0.9641000000000002  0.020490000000000005  0.66563  1.0000
  H   H93       1.0  0.7686200000000001  0.72117  0.4928399999999999  1.0000
  H   H94       1.0  0.7666  0.023730000000000036  0.71958  1.0000
  H   H95       1.0  0.78049  0.02075000000000005  0.5792099999999999  1.0000
  H   H96       1.0  0.7933700000000001  0.006320000000000007  0.52408  1.0000
  H   H97       1.0  0.74144  0.90572  0.80749  1.0000
  H   H98       1.0  0.09757000000000002  0.83936  0.7995999999999999  1.0000
  H   H99       1.0  0.22923999999999997  0.77309  0.7971099999999999  1.0000
  H   H100      1.0  0.21805999999999992  0.79623  0.89146  1.0000
  H   H101      1.0  0.66588  0.79222  0.90108  1.0000
  H   H102      1.0  0.08681000000000012  0.86454  0.8934799999999999  1.0000
  H   H103      1.0  0.7274699999999998  0.86309  0.9041299999999998  1.0000
  H   H104      1.0  0.67915  0.83586  0.80402  1.0000
  H   H105      1.0  0.6371700000000006  0.6052900000000001  0.8801999999999999  1.0000
  H   H106      1.0  0.4480700000000001  0.7456499999999999  0.87218  1.0000
  H   H107      1.0  0.83287  0.19593  0.8089699999999999  1.0000
  H   H108      1.0  0.62375  0.30946  0.88315  1.0000
  H   H109      1.0  0.76585  0.32731000000000005  0.8067899999999999  1.0000
  H   H110      1.0  0.32925  0.6676900000000002  0.8117699999999999  1.0000
  H   H111      1.0  0.7394400000000002  0.42530999999999997  0.82321  1.0000
  H   H112      1.0  0.69208  0.17834000000000003  0.8850799999999998  1.0000
  H   H113      1.0  0.48845  0.54244  0.8669799999999999  1.0000
  H   H114      1.0  0.6747000000000002  0.5554100000000002  0.8215599999999997  1.0000
  H   H115      1.0  0.57305  0.83067  0.81362  1.0000
  H   H116      1.0  0.3173000000000001  0.8080999999999999  0.87319  1.0000
  H   H117      1.0  0.45998999999999995  0.60562  0.81086  1.0000
  H   H118      1.0  0.5515599999999999  0.4128800000000001  0.8665999999999999  1.0000
  H   H119      1.0  0.5191600000000005  0.7541400000000001  0.8089299999999999  1.0000
  H   H120      1.0  0.69128  0.68123  0.88476  1.0000
  H   H121      1.0  0.012709999999999994  0.05692  0.23394  1.0000
  H   H122      1.0  0.23033  0.98289  0.22469  1.0000
  H   H123      1.0  0.02893  0.98163  0.38911  1.0000
  H   H124      1.0  0.8769500000000002  0.16402  0.50877  1.0000
  H   H125      1.0  0.23393000000000005  0.59494  0.57796  1.0000
  H   H126      1.0  0.99231  0.05152  0.42862  1.0000
  H   H127      1.0  0.645  0.21744000000000002  0.5174  1.0000
  H   H128      1.0  0.11873000000000004  0.8294799999999999  0.54947  1.0000
  H   H129      1.0  0.8540799999999998  0.15325  0.60563  1.0000
  H   H130      1.0  0.17888000000000004  0.6977000000000001  0.5520199999999998  1.0000
  H   H131      1.0  0.98967  0.06293000000000004  0.4826499999999999  1.0000
  H   H132      1.0  0.47676999999999997  0.4692  0.52646  1.0000
  H   H133      1.0  0.30108999999999997  0.16369000000000006  0.59306  1.0000
  H   H134      1.0  0.19958000000000006  0.04550000000000001  0.32043999999999995  1.0000
  H   H135      1.0  0.7461500000000001  0.22474  0.50836  1.0000
  H   H136      1.0  0.6293799999999999  0.32134  0.59455  1.0000
  H   H137      1.0  0.72274  0.21074999999999997  0.60593  1.0000
  H   H138      1.0  0.38116999999999995  0.6945900000000002  0.55037  1.0000
  H   H139      1.0  0.0058000000000000065  0.05274000000000001  0.29022999999999993  1.0000
  H   H140      1.0  0.22806000000000004  0.10260000000000004  0.5927099999999998  1.0000
  H   H141      1.0  0.29361  0.46433  0.5796099999999998  1.0000
  H   H142      1.0  0.30262999999999995  0.42895  0.52719  1.0000
  H   H143      1.0  0.41708000000000006  0.6000599999999999  0.52511  1.0000
  H   H144      1.0  0.32038000000000005  0.82734  0.5441799999999999  1.0000
  H   H145      1.0  0.45997  0.24906999999999996  0.57675  1.0000
  H   H146      1.0  0.19334  0.046669999999999996  0.37558  1.0000
  H   H147      1.0  0.5145099999999999  0.28853  0.51537  1.0000
  H   H148      1.0  0.23694  0.3620300000000001  0.52684  1.0000
  H   H149      1.0  0.4994600000000001  0.39160000000000006  0.5926199999999999  1.0000
  H   H150      1.0  0.39621  0.18066000000000002  0.57488  1.0000
  H   H151      1.0  0.16132  0.21467000000000003  0.50658  1.0000
  H   H152      1.0  0.03589999999999986  0.9795100000000002  0.33436999999999995  1.0000
  H   H153      1.0  0.23137999999999997  0.27883  0.50716  1.0000
  H   H154      1.0  0.23338999999999985  0.9762600000000001  0.28042  1.0000
  H   H155      1.0  0.21950999999999998  0.97925  0.42079  1.0000
  H   H156      1.0  0.20662000000000005  0.99368  0.4759199999999999  1.0000
  H   H157      1.0  0.25854999999999995  0.09427000000000002  0.19251  1.0000
  H   H158      1.0  0.90243  0.16064  0.2004  1.0000
  H   H159      1.0  0.7707500000000003  0.22691000000000003  0.20289  1.0000
  H   H160      1.0  0.78193  0.20377000000000003  0.10854  1.0000
  H   H161      1.0  0.33411  0.20778000000000002  0.09891999999999998  1.0000
  H   H162      1.0  0.91318  0.13546  0.10652  1.0000
  H   H163      1.0  0.27252  0.1369  0.09588  1.0000
  H   H164      1.0  0.32084000000000007  0.16413  0.19598  1.0000
  H   H165      1.0  0.3628200000000001  0.39471  0.1198  1.0000
  H   H166      1.0  0.55192  0.25435  0.12782  1.0000
  H   H167      1.0  0.16712000000000016  0.80407  0.19103999999999996  1.0000
  H   H168      1.0  0.37624000000000013  0.69054  0.11684999999999998  1.0000
  H   H169      1.0  0.23414000000000004  0.67269  0.19321  1.0000
  H   H170      1.0  0.67075  0.3323  0.18823  1.0000
  H   H171      1.0  0.26056  0.57469  0.17679  1.0000
  H   H172      1.0  0.3079200000000001  0.8216599999999998  0.11491999999999998  1.0000
  H   H173      1.0  0.5115400000000002  0.45756  0.13301999999999997  1.0000
  H   H174      1.0  0.32530000000000003  0.44459  0.17844  1.0000
  H   H175      1.0  0.42694  0.16932  0.18637999999999996  1.0000
  H   H176      1.0  0.6826900000000001  0.19189000000000003  0.12681  1.0000
  H   H177      1.0  0.5400000000000004  0.39438  0.18913999999999997  1.0000
  H   H178      1.0  0.44842999999999994  0.58712  0.13339999999999996  1.0000
  H   H179      1.0  0.48083  0.24586  0.19107  1.0000
  H   H180      1.0  0.30871  0.31877  0.11523999999999998  1.0000
  H   H181      1.0  0.05696000000000002  0.012430000000000023  0.7335899999999999  1.0000
  H   H182      1.0  0.98327  0.23020000000000002  0.7245499999999999  1.0000
  H   H183      1.0  0.9815200000000001  0.028960000000000027  0.8888899999999998  1.0000
  H   H184      1.0  0.16386  0.8767099999999999  0.00866  1.0000
  H   H185      1.0  0.59445  0.23403000000000004  0.07789  1.0000
  H   H186      1.0  0.05169  0.99224  0.9282  1.0000
  H   H187      1.0  0.21752999999999995  0.64531  0.017439999999999997  1.0000
  H   H188      1.0  0.82959  0.11916  0.04938  1.0000
  H   H189      1.0  0.15250000000000022  0.8547599999999999  0.10546  1.0000
  H   H190      1.0  0.69781  0.1788  0.0521  1.0000
  H   H191      1.0  0.06318000000000017  0.98931  0.9822399999999998  1.0000
  H   H192      1.0  0.4690500000000001  0.47684000000000004  0.026469999999999997  1.0000
  H   H193      1.0  0.16334  0.30114  0.09321999999999998  1.0000
  H   H194      1.0  0.04565000000000008  0.19926000000000002  0.8201599999999998  1.0000
  H   H195      1.0  0.22525  0.74583  0.00834  1.0000
  H   H196      1.0  0.32139  0.62956  0.09456999999999999  1.0000
  H   H197      1.0  0.21052999999999994  0.72332  0.10592  1.0000
  H   H198      1.0  0.69392  0.3815  0.05041  1.0000
  H   H199      1.0  0.05281999999999998  0.005569999999999991  0.7899  1.0000
  H   H200      1.0  0.10234000000000001  0.22811000000000003  0.09275  1.0000
  H   H201      1.0  0.4638900000000002  0.29379  0.07955999999999999  1.0000
  H   H202      1.0  0.42870999999999987  0.30274  0.027169999999999993  1.0000
  H   H203      1.0  0.5998600000000002  0.41706  0.02512  1.0000
  H   H204      1.0  0.8266299999999999  0.3210700000000001  0.04414  1.0000
  H   H205      1.0  0.24882  0.4602  0.07682999999999998  1.0000
  H   H206      1.0  0.04677000000000002  0.19329  0.87528  1.0000
  H   H207      1.0  0.28833  0.51477  0.01536  1.0000
  H   H208      1.0  0.36192  0.23683000000000004  0.026979999999999997  1.0000
  H   H209      1.0  0.3914  0.49954  0.09260999999999998  1.0000
  H   H210      1.0  0.18049999999999997  0.39624  0.07511  1.0000
  H   H211      1.0  0.21475000000000005  0.16154  0.006559999999999999  1.0000
  H   H212      1.0  0.9794700000000002  0.03583000000000007  0.8341299999999998  1.0000
  H   H213      1.0  0.27873000000000003  0.23159  0.0072699999999999996  1.0000
  H   H214      1.0  0.9767000000000002  0.23293999999999998  0.7803  1.0000
  H   H215      1.0  0.9797  0.21931000000000003  0.9206299999999997  1.0000
  H   H216      1.0  0.99413  0.20633000000000007  0.9757199999999999  1.0000
  H   H217      1.0  0.09407999999999996  0.25882000000000005  0.6924599999999999  1.0000
  H   H218      1.0  0.16214999999999993  0.9023000000000001  0.70036  1.0000
  H   H219      1.0  0.22789  0.7706300000000001  0.70276  1.0000
  H   H220      1.0  0.20335000000000011  0.7821099999999999  0.60852  1.0000
  H   H221      1.0  0.20821000000000006  0.33418  0.59902  1.0000
  H   H222      1.0  0.13564999999999997  0.9134400000000001  0.60665  1.0000
  H   H223      1.0  0.13716  0.27290000000000003  0.59578  1.0000
  H   H224      1.0  0.16382999999999998  0.3210299999999999  0.69603  1.0000
  H   H225      1.0  0.39496000000000003  0.36258000000000007  0.61987  1.0000
  H   H226      1.0  0.25472000000000006  0.55156  0.62784  1.0000
  H   H227      1.0  0.80367  0.16686999999999996  0.69143  1.0000
  H   H228      1.0  0.69122  0.37548999999999993  0.617  1.0000
  H   H229      1.0  0.6723900000000002  0.23386000000000007  0.6933799999999999  1.0000
  H   H230      1.0  0.3321499999999999  0.6710600000000001  0.6881199999999998  1.0000
  H   H231      1.0  0.57464  0.26039  0.67685  1.0000
  H   H232      1.0  0.8223200000000002  0.30735  0.6154899999999999  1.0000
  H   H233      1.0  0.4581100000000001  0.5114499999999998  0.63327  1.0000
  H   H234      1.0  0.4445900000000001  0.32539  0.67848  1.0000
  H   H235      1.0  0.16958  0.42702000000000007  0.68664  1.0000
  H   H236      1.0  0.19220000000000004  0.6823699999999999  0.62672  1.0000
  H   H237      1.0  0.3942899999999999  0.5402600000000001  0.6891499999999999  1.0000
  H   H238      1.0  0.58763  0.44812  0.63363  1.0000
  H   H239      1.0  0.24641  0.48064000000000007  0.6912899999999998  1.0000
  H   H240      1.0  0.31886  0.30868  0.61534  1.0000
  C   C1        1.0  0.9615500000000001  0.9401400000000001  0.25483  1.0000
  C   C2        1.0  0.9857300000000001  0.88087  0.20985999999999996  1.0000
  C   C3        1.0  0.0020399999999999824  0.8181100000000001  0.26001  1.0000
  C   C4        1.0  0.9868799999999998  0.88262  0.17697  1.0000
  C   C5        1.0  0.0029999999999999836  0.93455  0.12596999999999997  1.0000
  C   C6        1.0  0.8257  0.15728000000000003  0.97019  1.0000
  C   C7        1.0  0.8445500000000001  0.8101199999999998  0.95025  1.0000
  C   C8        1.0  0.43257999999999985  0.7130000000000001  0.9337099999999998  1.0000
  C   C9        1.0  0.73612  0.35296000000000005  0.9436999999999998  1.0000
  C   C10       1.0  0.54282  0.61071  0.9471299999999999  1.0000
  C   C11       1.0  0.9853399999999999  0.88942  0.11381999999999999  1.0000
  C   C12       1.0  0.16386000000000017  0.78325  0.9539299999999997  1.0000
  C   C13       1.0  0.84438  0.12610999999999997  0.94288  1.0000
  C   C14       1.0  0.96096  0.9586100000000001  0.06274  1.0000
  C   C15       1.0  0.74435  0.38647000000000004  0.9661199999999999  1.0000
  C   C16       1.0  0.08486999999999992  0.8170000000000001  0.96047  1.0000
  C   C17       1.0  0.20065999999999984  0.8233400000000001  0.95052  1.0000
  C   C18       1.0  0.65606  0.50117  0.9460999999999999  1.0000
  C   C19       1.0  0.83171  0.16989000000000004  0.9155699999999999  1.0000
  C   C20       1.0  0.2746900000000001  0.78964  0.94856  1.0000
  C   C21       1.0  0.3923400000000001  0.67911  0.9483  1.0000
  C   C22       1.0  0.9545600000000001  0.96086  0.03229  1.0000
  C   C23       1.0  0.9825  0.89368  0.08098  1.0000
  C   C24       1.0  0.31426  0.7150500000000002  0.94898  1.0000
  C   C25       1.0  0.5033699999999999  0.5762000000000002  0.96204  1.0000
  C   C26       1.0  0.8255700000000002  0.72875  0.92599  1.0000
  C   C27       1.0  0.9697400000000002  0.83706  0.16481  1.0000
  C   C28       1.0  0.7919200000000002  0.23077  0.9702399999999999  1.0000
  C   C29       1.0  0.6865600000000001  0.3953  0.9226899999999999  1.0000
  C   C30       1.0  0.7988300000000002  0.24352999999999997  0.91552  1.0000
  C   C31       1.0  0.7767300000000003  0.2752  0.9429399999999999  1.0000
  C   C32       1.0  0.2766600000000001  0.67579  0.9505699999999999  1.0000
  C   C33       1.0  0.96404  0.9433400000000001  0.22365  1.0000
  C   C34       1.0  0.8596500000000002  0.76985  0.9260099999999998  1.0000
  C   C35       1.0  0.5062500000000005  0.67962  0.9327199999999999  1.0000
  C   C36       1.0  0.6253600000000002  0.67711  0.9620299999999998  1.0000
  C   C37       1.0  0.42965999999999993  0.6098400000000002  0.9624299999999999  1.0000
  C   C38       1.0  0.20270999999999997  0.70919  0.95355  1.0000
  C   C39       1.0  0.72642  0.58871  0.93416  1.0000
  C   C40       1.0  0.96893  0.8405499999999999  0.13372  1.0000
  C   C41       1.0  0.8756000000000002  0.04746000000000007  0.9431199999999997  1.0000
  C   C42       1.0  0.8814000000000001  0.8532100000000001  0.9510199999999999  1.0000
  C   C43       1.0  0.7343400000000001  0.6888700000000002  0.9489499999999997  1.0000
  C   C44       1.0  0.7046900000000003  0.45958  0.9674099999999999  1.0000
  C   C45       1.0  0.6558999999999999  0.61415  0.9476399999999999  1.0000
  C   C46       1.0  0.6637600000000002  0.71373  0.96232  1.0000
  C   C47       1.0  0.64688  0.4685800000000001  0.9237599999999998  1.0000
  C   C48       1.0  0.76467  0.6252700000000001  0.9349999999999998  1.0000
  C   C49       1.0  0.7950899999999997  0.8084400000000003  0.97442  1.0000
  C   C50       1.0  0.00380999999999999  0.93099  0.15704  1.0000
  C   C51       1.0  0.77396  0.72859  0.9496199999999999  1.0000
  C   C52       1.0  0.7595699999999999  0.7691500000000001  0.97387  1.0000
  C   C53       1.0  0.004979999999999935  0.81726  0.22902999999999996  1.0000
  C   C54       1.0  0.9999000000000001  0.83299  0.06679  1.0000
  C   C55       1.0  0.99245  0.8393500000000002  0.03621  1.0000
  C   C56       1.0  0.8882500000000001  0.7393  0.35611  1.0000
  C   C57       1.0  0.88171  0.72358  0.32795  1.0000
  C   C58       1.0  0.82916  0.12457  0.31956999999999997  1.0000
  C   C59       1.0  0.8567000000000001  0.08346  0.34643  1.0000
  C   C60       1.0  0.79162  0.19847000000000004  0.31842  1.0000
  C   C61       1.0  0.8068800000000002  0.19209  0.37105  1.0000
  C   C62       1.0  0.8168700000000001  0.68197  0.38038999999999995  1.0000
  C   C63       1.0  0.8445399999999996  0.11816000000000003  0.3722999999999999  1.0000
  C   C64       1.0  0.85687  0.7163  0.38236  1.0000
  C   C65       1.0  0.84268  0.68846  0.32604  1.0000
  C   C66       1.0  0.78026  0.23393000000000008  0.34408999999999995  1.0000
  C   C67       1.0  0.8078599999999999  0.66856  0.35216  1.0000
  C   C68       1.0  0.7426199999999998  0.31249  0.34287999999999996  1.0000
  C   C69       1.0  0.6542900000000001  0.6233800000000002  0.3653999999999999  1.0000
  C   C70       1.0  0.4073800000000001  0.65117  0.34437999999999996  1.0000
  C   C71       1.0  0.32907000000000003  0.69007  0.34479999999999994  1.0000
  C   C72       1.0  0.7282600000000002  0.42200000000000004  0.35912999999999995  1.0000
  C   C73       1.0  0.17857999999999996  0.76721  0.3467  1.0000
  C   C74       1.0  0.09950999999999989  0.8085100000000002  0.348  1.0000
  C   C75       1.0  0.76216  0.63612  0.34948999999999997  1.0000
  C   C76       1.0  0.22167999999999993  0.7875100000000002  0.32481999999999994  1.0000
  C   C77       1.0  0.2849999999999999  0.66959  0.36628  1.0000
  C   C78       1.0  0.29544  0.74979  0.32399999999999995  1.0000
  C   C79       1.0  0.6855800000000001  0.35458  0.32511  1.0000
  C   C80       1.0  0.45027  0.68404  0.33218999999999993  1.0000
  C   C81       1.0  0.21120000000000003  0.70771  0.36738  1.0000
  C   C82       1.0  0.5587700000000001  0.57617  0.34356  1.0000
  C   C83       1.0  0.6703099999999999  0.46330000000000005  0.34196  1.0000
  C   C84       1.0  0.6744199999999999  0.5740500000000001  0.34422  1.0000
  C   C85       1.0  0.5164900000000002  0.54328  0.35671  1.0000
  C   C86       1.0  0.52408  0.6477  0.33148  1.0000
  C   C87       1.0  0.7808200000000001  0.5878  0.32791  1.0000
  C   C88       1.0  0.76328  0.34829999999999994  0.35965  1.0000
  C   C89       1.0  0.6500000000000002  0.42853  0.32452999999999993  1.0000
  C   C90       1.0  0.44286  0.5798200000000001  0.35667  1.0000
  C   C91       1.0  0.73783  0.55739  0.32520999999999994  1.0000
  C   C92       1.0  0.89863  0.004500000000000015  0.34742999999999996  1.0000
  C   C93       1.0  0.6977299999999999  0.65354  0.36796  1.0000
  C   C94       1.0  0.9228599999999999  0.78484  0.35733999999999994  1.0000
  C   C95       1.0  0.9398999999999997  0.96163  0.7545  1.0000
  C   C96       1.0  0.8805499999999999  0.98594  0.70959  1.0000
  C   C97       1.0  0.8178800000000002  0.002340000000000045  0.7597999999999998  1.0000
  C   C98       1.0  0.88239  0.9869900000000001  0.6767099999999999  1.0000
  C   C99       1.0  0.9345300000000001  0.002939999999999997  0.62575  1.0000
  C   C100      1.0  0.15720999999999993  0.8255400000000002  0.47008999999999995  1.0000
  C   C101      1.0  0.81018  0.84443  0.45028  1.0000
  C   C102      1.0  0.7131  0.43218000000000006  0.43367  1.0000
  C   C103      1.0  0.35311  0.73627  0.44370999999999994  1.0000
  C   C104      1.0  0.6108500000000002  0.54254  0.44711999999999996  1.0000
  C   C105      1.0  0.8893400000000002  0.98543  0.6135799999999999  1.0000
  C   C106      1.0  0.78386  0.16353  0.45386  1.0000
  C   C107      1.0  0.1262899999999999  0.8439500000000002  0.44275  1.0000
  C   C108      1.0  0.9584299999999998  0.96121  0.56242  1.0000
  C   C109      1.0  0.3866599999999999  0.7444  0.4661399999999999  1.0000
  C   C110      1.0  0.81795  0.08455  0.46035999999999994  1.0000
  C   C111      1.0  0.82373  0.20056000000000002  0.45047  1.0000
  C   C112      1.0  0.5013500000000001  0.65585  0.44609999999999994  1.0000
  C   C113      1.0  0.1702800000000001  0.8312199999999998  0.41545  1.0000
  C   C114      1.0  0.78979  0.27459000000000006  0.4485899999999999  1.0000
  C   C115      1.0  0.67915  0.39200999999999997  0.44831  1.0000
  C   C116      1.0  0.96058  0.9548600000000002  0.53197  1.0000
  C   C117      1.0  0.8935300000000002  0.9827600000000001  0.58072  1.0000
  C   C118      1.0  0.71519  0.31392  0.449  1.0000
  C   C119      1.0  0.57627  0.50316  0.46204  1.0000
  C   C120      1.0  0.72881  0.8253399999999999  0.42612  1.0000
  C   C121      1.0  0.8368099999999996  0.96986  0.6645499999999999  1.0000
  C   C122      1.0  0.23067999999999989  0.7920900000000001  0.4702  1.0000
  C   C123      1.0  0.39546999999999993  0.68658  0.42271  1.0000
  C   C124      1.0  0.24389000000000008  0.7986  0.4154799999999999  1.0000
  C   C125      1.0  0.2753399999999999  0.7768400000000001  0.44292  1.0000
  C   C126      1.0  0.6761200000000002  0.27612  0.45059  1.0000
  C   C127      1.0  0.94307  0.96418  0.7233199999999999  1.0000
  C   C128      1.0  0.7698800000000002  0.8594799999999999  0.42608  1.0000
  C   C129      1.0  0.67976  0.50586  0.43268  1.0000
  C   C130      1.0  0.67718  0.62516  0.46207999999999994  1.0000
  C   C131      1.0  0.6098499999999999  0.42943  0.46243  1.0000
  C   C132      1.0  0.70976  0.20214  0.45352  1.0000
  C   C133      1.0  0.58887  0.7262200000000002  0.43425999999999987  1.0000
  C   C134      1.0  0.8404300000000001  0.96904  0.63346  1.0000
  C   C135      1.0  0.047650000000000026  0.8751199999999999  0.44290999999999997  1.0000
  C   C136      1.0  0.85334  0.88122  0.45105  1.0000
  C   C137      1.0  0.68893  0.73418  0.44910999999999995  1.0000
  C   C138      1.0  0.4597499999999999  0.70457  0.46741  1.0000
  C   C139      1.0  0.61432  0.65566  0.44764999999999994  1.0000
  C   C140      1.0  0.71371  0.66361  0.4624399999999999  1.0000
  C   C141      1.0  0.4687199999999999  0.6467200000000002  0.42377  1.0000
  C   C142      1.0  0.6253499999999999  0.7645  0.43518  1.0000
  C   C143      1.0  0.80854  0.79504  0.47446  1.0000
  C   C144      1.0  0.93092  0.0037600000000000025  0.65682  1.0000
  C   C145      1.0  0.72867  0.77381  0.44977  1.0000
  C   C146      1.0  0.7692899999999999  0.7594700000000002  0.47397  1.0000
  C   C147      1.0  0.8169300000000002  0.0053300000000000005  0.72881  1.0000
  C   C148      1.0  0.8327800000000001  0.00029999999999998767  0.56657  1.0000
  C   C149      1.0  0.8390500000000001  0.9928800000000001  0.536  1.0000
  C   C150      1.0  0.7395399999999999  0.8882100000000002  0.85602  1.0000
  C   C151      1.0  0.7238500000000001  0.8815100000000001  0.8278899999999998  1.0000
  C   C152      1.0  0.12455000000000008  0.8302599999999999  0.81952  1.0000
  C   C153      1.0  0.08359999999999985  0.85745  0.84648  1.0000
  C   C154      1.0  0.1984000000000001  0.7924399999999999  0.81832  1.0000
  C   C155      1.0  0.19218999999999994  0.8069400000000001  0.8710299999999999  1.0000
  C   C156      1.0  0.68217  0.81703  0.8804299999999999  1.0000
  C   C157      1.0  0.11830000000000002  0.8449100000000002  0.8723599999999999  1.0000
  C   C158      1.0  0.7166100000000001  0.85696  0.8823199999999998  1.0000
  C   C159      1.0  0.6887  0.8424900000000001  0.8260499999999998  1.0000
  C   C160      1.0  0.23392  0.78052  0.84399  1.0000
  C   C161      1.0  0.66872  0.8079  0.85224  1.0000
  C   C162      1.0  0.3124700000000001  0.74275  0.8427599999999997  1.0000
  C   C163      1.0  0.62321  0.65456  0.8655099999999999  1.0000
  C   C164      1.0  0.6508900000000001  0.40762  0.8444899999999999  1.0000
  C   C165      1.0  0.6896900000000001  0.32925000000000004  0.8449999999999999  1.0000
  C   C166      1.0  0.42177  0.7285399999999999  0.85912  1.0000
  C   C167      1.0  0.7668600000000002  0.17868000000000006  0.8472  1.0000
  C   C168      1.0  0.80818  0.09953999999999998  0.84852  1.0000
  C   C169      1.0  0.6361700000000001  0.7622700000000001  0.8496299999999999  1.0000
  C   C170      1.0  0.78718  0.22152000000000008  0.8251999999999998  1.0000
  C   C171      1.0  0.66907  0.28543  0.8665299999999999  1.0000
  C   C172      1.0  0.7495  0.29531  0.8242399999999999  1.0000
  C   C173      1.0  0.35470000000000007  0.68558  0.82502  1.0000
  C   C174      1.0  0.68387  0.4504  0.83226  1.0000
  C   C175      1.0  0.70724  0.21159000000000008  0.8678399999999997  1.0000
  C   C176      1.0  0.5761099999999999  0.55906  0.84365  1.0000
  C   C177      1.0  0.46324000000000015  0.67056  0.8419299999999998  1.0000
  C   C178      1.0  0.57392  0.6747300000000002  0.84433  1.0000
  C   C179      1.0  0.5431500000000005  0.5168999999999999  0.8569  1.0000
  C   C180      1.0  0.6476600000000001  0.52423  0.83156  1.0000
  C   C181      1.0  0.58776  0.78107  0.8280999999999998  1.0000
  C   C182      1.0  0.3480900000000001  0.7635100000000002  0.8595799999999999  1.0000
  C   C183      1.0  0.42865000000000003  0.65003  0.82451  1.0000
  C   C184      1.0  0.57958  0.44326000000000004  0.85684  1.0000
  C   C185      1.0  0.5572300000000001  0.7382000000000001  0.8253999999999999  1.0000
  C   C186      1.0  0.004729999999999998  0.8991100000000001  0.8474899999999999  1.0000
  C   C187      1.0  0.6534900000000001  0.6978800000000001  0.8680799999999997  1.0000
  C   C188      1.0  0.78479  0.9231500000000001  0.8571299999999998  1.0000
  C   C189      1.0  0.06009  0.03837  0.24549999999999997  1.0000
  C   C190      1.0  0.11944000000000002  0.014059999999999994  0.29042  1.0000
  C   C191      1.0  0.18211  0.99766  0.24020999999999995  1.0000
  C   C192      1.0  0.11760000000000002  0.013010000000000002  0.32329  1.0000
  C   C193      1.0  0.06545999999999993  0.9970600000000001  0.37425  1.0000
  C   C194      1.0  0.84278  0.17446  0.52991  1.0000
  C   C195      1.0  0.18981000000000006  0.15557  0.54972  1.0000
  C   C196      1.0  0.2869000000000001  0.56782  0.5663299999999999  1.0000
  C   C197      1.0  0.6468900000000002  0.26373  0.55629  1.0000
  C   C198      1.0  0.38914999999999994  0.4574600000000001  0.5528799999999999  1.0000
  C   C199      1.0  0.11065  0.014560000000000005  0.38642  1.0000
  C   C200      1.0  0.21614  0.8364700000000002  0.5461399999999998  1.0000
  C   C201      1.0  0.8737100000000002  0.15605  0.55725  1.0000
  C   C202      1.0  0.041560000000000034  0.03879000000000003  0.4375799999999999  1.0000
  C   C203      1.0  0.6133400000000003  0.25559999999999994  0.53386  1.0000
  C   C204      1.0  0.18203999999999992  0.91545  0.53964  1.0000
  C   C205      1.0  0.17625999999999994  0.7994400000000002  0.5495299999999999  1.0000
  C   C206      1.0  0.49864  0.34414999999999996  0.55391  1.0000
  C   C207      1.0  0.8297200000000002  0.16878000000000007  0.58455  1.0000
  C   C208      1.0  0.21020999999999992  0.7254100000000002  0.55141  1.0000
  C   C209      1.0  0.3208400000000003  0.6079900000000001  0.5516899999999999  1.0000
  C   C210      1.0  0.039410000000000014  0.04514000000000003  0.4680299999999999  1.0000
  C   C211      1.0  0.10646000000000001  0.01724000000000003  0.41927999999999993  1.0000
  C   C212      1.0  0.2847999999999999  0.68608  0.5510099999999999  1.0000
  C   C213      1.0  0.42373000000000005  0.49684  0.5379599999999999  1.0000
  C   C214      1.0  0.27119  0.17466  0.57388  1.0000
  C   C215      1.0  0.16318000000000007  0.030140000000000004  0.33544999999999997  1.0000
  C   C216      1.0  0.76932  0.20790999999999998  0.5298  1.0000
  C   C217      1.0  0.6045200000000001  0.31342  0.5772899999999999  1.0000
  C   C218      1.0  0.7561  0.20140000000000002  0.58452  1.0000
  C   C219      1.0  0.7246500000000002  0.22316  0.55708  1.0000
  C   C220      1.0  0.3238700000000003  0.7238799999999999  0.54941  1.0000
  C   C221      1.0  0.056920000000000005  0.03582  0.27668  1.0000
  C   C222      1.0  0.23011000000000015  0.14052  0.57392  1.0000
  C   C223      1.0  0.32024  0.49414  0.56732  1.0000
  C   C224      1.0  0.32282  0.37484  0.53792  1.0000
  C   C225      1.0  0.39014  0.57057  0.53757  1.0000
  C   C226      1.0  0.29023  0.79786  0.5464799999999999  1.0000
  C   C227      1.0  0.41112  0.27378  0.56574  1.0000
  C   C228      1.0  0.15956000000000004  0.030960000000000012  0.3665399999999999  1.0000
  C   C229      1.0  0.9523400000000001  0.12487999999999999  0.55709  1.0000
  C   C230      1.0  0.14664999999999997  0.11878000000000002  0.54895  1.0000
  C   C231      1.0  0.31106  0.2658200000000001  0.55089  1.0000
  C   C232      1.0  0.54024  0.2954300000000001  0.5325899999999999  1.0000
  C   C233      1.0  0.38567000000000007  0.34434  0.55235  1.0000
  C   C234      1.0  0.28628  0.33639  0.53756  1.0000
  C   C235      1.0  0.53127  0.35327  0.5762299999999999  1.0000
  C   C236      1.0  0.37464000000000003  0.2355  0.56482  1.0000
  C   C237      1.0  0.19145000000000004  0.20495  0.52554  1.0000
  C   C238      1.0  0.06906999999999996  0.9962400000000001  0.34317999999999993  1.0000
  C   C239      1.0  0.27132999999999996  0.22619  0.55023  1.0000
  C   C240      1.0  0.23071000000000003  0.24053  0.5260299999999999  1.0000
  C   C241      1.0  0.18306999999999993  0.9946700000000002  0.27119  1.0000
  C   C242      1.0  0.16722  0.9997000000000001  0.43343  1.0000
  C   C243      1.0  0.16094  0.007120000000000006  0.464  1.0000
  C   C244      1.0  0.26044999999999996  0.11179000000000001  0.14398  1.0000
  C   C245      1.0  0.27614000000000005  0.11849000000000001  0.17211  1.0000
  C   C246      1.0  0.8754399999999998  0.16974000000000003  0.18047999999999997  1.0000
  C   C247      1.0  0.9164000000000001  0.14255  0.15351999999999996  1.0000
  C   C248      1.0  0.80159  0.20756  0.18168  1.0000
  C   C249      1.0  0.8078000000000001  0.19306  0.12897  1.0000
  C   C250      1.0  0.31782000000000005  0.18297  0.11957  1.0000
  C   C251      1.0  0.8816900000000001  0.15509  0.12764  1.0000
  C   C252      1.0  0.28338  0.14304  0.11767999999999998  1.0000
  C   C253      1.0  0.31128999999999996  0.15750000000000003  0.17394999999999997  1.0000
  C   C254      1.0  0.76607  0.21948  0.15600999999999998  1.0000
  C   C255      1.0  0.33127  0.19210000000000005  0.14776  1.0000
  C   C256      1.0  0.6875200000000001  0.25725  0.15724  1.0000
  C   C257      1.0  0.37678  0.3454400000000001  0.13448999999999997  1.0000
  C   C258      1.0  0.34909999999999997  0.59238  0.15552  1.0000
  C   C259      1.0  0.3103  0.67074  0.155  1.0000
  C   C260      1.0  0.5782200000000001  0.27146  0.14088  1.0000
  C   C261      1.0  0.2331399999999999  0.8213200000000002  0.15279999999999996  1.0000
  C   C262      1.0  0.19181000000000004  0.90046  0.15148  1.0000
  C   C263      1.0  0.3638300000000002  0.23772  0.15036999999999998  1.0000
  C   C264      1.0  0.21281000000000003  0.77848  0.1748  1.0000
  C   C265      1.0  0.33093  0.71457  0.13347  1.0000
  C   C266      1.0  0.25049999999999994  0.70469  0.17575999999999997  1.0000
  C   C267      1.0  0.64529  0.31442  0.17498  1.0000
  C   C268      1.0  0.31612  0.5496  0.16774  1.0000
  C   C269      1.0  0.2927500000000001  0.78841  0.13216  1.0000
  C   C270      1.0  0.42388  0.44094000000000005  0.15635  1.0000
  C   C271      1.0  0.5367500000000001  0.32944000000000007  0.15806999999999996  1.0000
  C   C272      1.0  0.42607  0.32527  0.15566999999999998  1.0000
  C   C273      1.0  0.45684  0.4831  0.1431  1.0000
  C   C274      1.0  0.35233  0.4757700000000001  0.16844  1.0000
  C   C275      1.0  0.41223  0.21893  0.1719  1.0000
  C   C276      1.0  0.6519000000000001  0.23649000000000003  0.14041999999999996  1.0000
  C   C277      1.0  0.5713400000000002  0.34997  0.17549  1.0000
  C   C278      1.0  0.42041  0.55674  0.14316  1.0000
  C   C279      1.0  0.44276000000000004  0.2618  0.1746  1.0000
  C   C280      1.0  0.99526  0.10088000000000003  0.15251  1.0000
  C   C281      1.0  0.34650000000000003  0.30211  0.13191999999999998  1.0000
  C   C282      1.0  0.21520999999999998  0.07685  0.14287  1.0000
  C   C283      1.0  0.038440000000000044  0.059850000000000014  0.7451699999999999  1.0000
  C   C284      1.0  0.014259999999999983  0.11912  0.79015  1.0000
  C   C285      1.0  0.9979500000000001  0.18189000000000002  0.7399899999999999  1.0000
  C   C286      1.0  0.013110000000000014  0.11737999999999998  0.82303  1.0000
  C   C287      1.0  0.997  0.06545000000000001  0.8740299999999999  1.0000
  C   C288      1.0  0.17430000000000004  0.84272  0.029809999999999993  1.0000
  C   C289      1.0  0.15545  0.18988  0.04975  1.0000
  C   C290      1.0  0.56742  0.287  0.06629  1.0000
  C   C291      1.0  0.26387  0.64704  0.0563  1.0000
  C   C292      1.0  0.45717  0.38929  0.052869999999999986  1.0000
  C   C293      1.0  0.01465  0.11057999999999997  0.88618  1.0000
  C   C294      1.0  0.8361300000000002  0.21675  0.04607  1.0000
  C   C295      1.0  0.1556100000000001  0.87389  0.05712  1.0000
  C   C296      1.0  0.039030000000000016  0.04139000000000007  0.9372599999999998  1.0000
  C   C297      1.0  0.25565  0.61353  0.03387999999999999  1.0000
  C   C298      1.0  0.9151200000000002  0.183  0.03953  1.0000
  C   C299      1.0  0.7993400000000002  0.17666  0.04948  1.0000
  C   C300      1.0  0.3439400000000001  0.49883  0.053899999999999997  1.0000
  C   C301      1.0  0.16828000000000004  0.83011  0.08443  1.0000
  C   C302      1.0  0.7252999999999998  0.21036  0.05144  1.0000
  C   C303      1.0  0.60766  0.32089  0.051699999999999996  1.0000
  C   C304      1.0  0.04543000000000005  0.03913999999999997  0.96771  1.0000
  C   C305      1.0  0.017499999999999998  0.10632000000000004  0.91903  1.0000
  C   C306      1.0  0.6857299999999998  0.28495  0.05102  1.0000
  C   C307      1.0  0.49662000000000006  0.4238  0.037959999999999994  1.0000
  C   C308      1.0  0.17441999999999996  0.27125  0.07401  1.0000
  C   C309      1.0  0.030249999999999982  0.16294  0.8352  1.0000
  C   C310      1.0  0.20807  0.76923  0.02976  1.0000
  C   C311      1.0  0.31343  0.6047  0.07731  1.0000
  C   C312      1.0  0.20116  0.75647  0.08448  1.0000
  C   C313      1.0  0.22326000000000013  0.7248  0.057059999999999986  1.0000
  C   C314      1.0  0.72333  0.32421  0.04942999999999999  1.0000
  C   C315      1.0  0.03594999999999999  0.05666000000000001  0.77635  1.0000
  C   C316      1.0  0.14035  0.23015  0.07399  1.0000
  C   C317      1.0  0.49375  0.32038  0.06728  1.0000
  C   C318      1.0  0.37463  0.32288  0.03796999999999999  1.0000
  C   C319      1.0  0.57033  0.39016000000000006  0.03757  1.0000
  C   C320      1.0  0.7972800000000001  0.29081  0.04644999999999999  1.0000
  C   C321      1.0  0.27357  0.41129000000000004  0.06584  1.0000
  C   C322      1.0  0.031059999999999987  0.15945  0.86628  1.0000
  C   C323      1.0  0.12439000000000003  0.9525399999999999  0.05688  1.0000
  C   C324      1.0  0.11859  0.14679000000000003  0.048979999999999996  1.0000
  C   C325      1.0  0.26566000000000006  0.31113  0.05105  1.0000
  C   C326      1.0  0.29529999999999995  0.54042  0.03259  1.0000
  C   C327      1.0  0.34409  0.38585  0.05236  1.0000
  C   C328      1.0  0.33624  0.28627  0.03768  1.0000
  C   C329      1.0  0.35312000000000004  0.53142  0.07624  1.0000
  C   C330      1.0  0.23532000000000003  0.37473  0.065  1.0000
  C   C331      1.0  0.20491  0.19156  0.02557999999999999  1.0000
  C   C332      1.0  0.99618  0.06900999999999999  0.84296  1.0000
  C   C333      1.0  0.22602999999999998  0.27141  0.05037999999999999  1.0000
  C   C334      1.0  0.24042  0.23085000000000003  0.02613  1.0000
  C   C335      1.0  0.99501  0.18274000000000004  0.7709699999999999  1.0000
  C   C336      1.0  0.00010000000000005519  0.16700999999999996  0.93321  1.0000
  C   C337      1.0  0.007540000000000015  0.16065000000000004  0.9637899999999999  1.0000
  C   C338      1.0  0.11174000000000003  0.2607  0.6439  1.0000
  C   C339      1.0  0.11827999999999995  0.2764200000000001  0.67205  1.0000
  C   C340      1.0  0.17082999999999995  0.87542  0.6804299999999999  1.0000
  C   C341      1.0  0.14330000000000004  0.91654  0.65357  1.0000
  C   C342      1.0  0.20836999999999986  0.8015300000000001  0.68158  1.0000
  C   C343      1.0  0.19311000000000011  0.8079099999999999  0.6289499999999999  1.0000
  C   C344      1.0  0.18312999999999993  0.31803  0.61961  1.0000
  C   C345      1.0  0.1554499999999999  0.88183  0.6277  1.0000
  C   C346      1.0  0.14313  0.28370000000000006  0.6176399999999999  1.0000
  C   C347      1.0  0.15730999999999992  0.31154000000000004  0.67396  1.0000
  C   C348      1.0  0.2197400000000001  0.7660700000000001  0.6559099999999999  1.0000
  C   C349      1.0  0.19213  0.33144  0.64784  1.0000
  C   C350      1.0  0.25738  0.68751  0.65712  1.0000
  C   C351      1.0  0.34570000000000006  0.37662  0.6346  1.0000
  C   C352      1.0  0.5926199999999999  0.34883  0.6556199999999999  1.0000
  C   C353      1.0  0.67093  0.30993000000000004  0.6552  1.0000
  C   C354      1.0  0.27174  0.578  0.64087  1.0000
  C   C355      1.0  0.82141  0.23278000000000001  0.6532999999999999  1.0000
  C   C356      1.0  0.90049  0.19148999999999997  0.652  1.0000
  C   C357      1.0  0.23783999999999997  0.36388  0.65051  1.0000
  C   C358      1.0  0.7783100000000001  0.21248000000000006  0.6751799999999999  1.0000
  C   C359      1.0  0.71499  0.33041  0.63372  1.0000
  C   C360      1.0  0.7045500000000002  0.25021  0.676  1.0000
  C   C361      1.0  0.31440999999999997  0.64542  0.6748899999999999  1.0000
  C   C362      1.0  0.5497200000000001  0.31596  0.66781  1.0000
  C   C363      1.0  0.7888000000000002  0.29229  0.6326199999999998  1.0000
  C   C364      1.0  0.44122  0.42383  0.65644  1.0000
  C   C365      1.0  0.32968  0.5367  0.6580399999999998  1.0000
  C   C366      1.0  0.32556999999999997  0.4259500000000001  0.65578  1.0000
  C   C367      1.0  0.48350999999999994  0.45672000000000007  0.64329  1.0000
  C   C368      1.0  0.47591  0.35229000000000005  0.6685199999999999  1.0000
  C   C369      1.0  0.21916999999999998  0.41219  0.67209  1.0000
  C   C370      1.0  0.2367099999999999  0.6517  0.64035  1.0000
  C   C371      1.0  0.34999000000000013  0.5714700000000003  0.6754699999999999  1.0000
  C   C372      1.0  0.5571299999999999  0.42018  0.64333  1.0000
  C   C373      1.0  0.26217000000000007  0.44260999999999995  0.6747899999999999  1.0000
  C   C374      1.0  0.10137000000000003  0.9955000000000002  0.6525699999999999  1.0000
  C   C375      1.0  0.30227  0.34646  0.63204  1.0000
  C   C376      1.0  0.07712999999999998  0.21516000000000002  0.64266  1.0000
  N   N1        1.0  0.9804100000000002  0.8786200000000001  0.27293  1.0000
  N   N2        1.0  0.6176599999999999  0.57645  0.94678  1.0000
  N   N3        1.0  0.96878  0.9026  0.01917  1.0000
  N   N4        1.0  0.6337300000000001  0.53856  0.34247  1.0000
  N   N5        1.0  0.8784499999999997  0.9804800000000001  0.77267  1.0000
  N   N6        1.0  0.57664  0.61741  0.44674999999999987  1.0000
  N   N7        1.0  0.9022799999999997  0.9691000000000001  0.5189199999999999  1.0000
  N   N8        1.0  0.5385000000000003  0.63404  0.8424799999999998  1.0000
  N   N9        1.0  0.12154  0.01952  0.22734  1.0000
  N   N10       1.0  0.4233600000000001  0.38259  0.55325  1.0000
  N   N11       1.0  0.09771000000000002  0.0309  0.48107999999999995  1.0000
  N   N12       1.0  0.4614900000000001  0.36595  0.15751999999999997  1.0000
  N   N13       1.0  0.019590000000000014  0.12138  0.72707  1.0000
  N   N14       1.0  0.38233  0.42353999999999997  0.05322  1.0000
  N   N15       1.0  0.031220000000000022  0.09740000000000003  0.98083  1.0000
  N   N16       1.0  0.3662599999999999  0.46144000000000013  0.6575299999999998  1.0000
  O   O1        1.0  0.04999000000000008  0.8855499999999998  0.9537  1.0000
  O   O2        1.0  0.8919600000000001  0.011400000000000049  0.9687499999999998  1.0000
  O   O3        1.0  0.05563000000000003  0.77999  0.97311  1.0000
  O   O4        1.0  0.90731  0.8749300000000002  0.9265399999999999  1.0000
  O   O5        1.0  0.8847500000000003  0.02188000000000006  0.9182099999999997  1.0000
  O   O6        1.0  0.8873899999999996  0.8647  0.9772599999999999  1.0000
  O   O7        1.0  0.9080899999999998  0.9767900000000002  0.32261  1.0000
  O   O8        1.0  0.9240499999999998  0.9693800000000001  0.37188  1.0000
  O   O9        1.0  0.07451000000000003  0.85274  0.32447999999999994  1.0000
  O   O10       1.0  0.9212100000000002  0.8053  0.38256  1.0000
  O   O11       1.0  0.94953  0.80221  0.33161  1.0000
  O   O12       1.0  0.061859999999999894  0.7983300000000001  0.37098  1.0000
  O   O13       1.0  0.88658  0.04993000000000001  0.45371  1.0000
  O   O14       1.0  0.011399999999999955  0.8912400000000001  0.46853999999999996  1.0000
  O   O15       1.0  0.78113  0.05499  0.47293  1.0000
  O   O16       1.0  0.8752600000000003  0.90707  0.42661999999999994  1.0000
  O   O17       1.0  0.02226999999999994  0.88449  0.41792  1.0000
  O   O18       1.0  0.86472  0.88722  0.47731  1.0000
  O   O19       1.0  0.97734  0.90855  0.8225699999999999  1.0000
  O   O20       1.0  0.9693900000000002  0.9242799999999999  0.8719499999999999  1.0000
  O   O21       1.0  0.8500999999999999  0.07460000000000006  0.8244499999999998  1.0000
  O   O22       1.0  0.8051799999999999  0.92188  0.8823099999999999  1.0000
  O   O23       1.0  0.8019300000000003  0.9496700000000001  0.8312999999999998  1.0000
  O   O24       1.0  0.8000800000000001  0.06226999999999999  0.87207  1.0000
  O   O25       1.0  0.11340999999999996  0.95007  0.54629  1.0000
  O   O26       1.0  0.9886000000000003  0.10876000000000002  0.5314599999999999  1.0000
  O   O27       1.0  0.21885999999999994  0.94501  0.52707  1.0000
  O   O28       1.0  0.12473  0.09292999999999998  0.57338  1.0000
  O   O29       1.0  0.97773  0.11551  0.58208  1.0000
  O   O30       1.0  0.13527000000000003  0.11278000000000006  0.5226899999999999  1.0000
  O   O31       1.0  0.022649999999999997  0.09145  0.17742999999999998  1.0000
  O   O32       1.0  0.030599999999999992  0.07572  0.12805  1.0000
  O   O33       1.0  0.14989000000000002  0.9254  0.17554999999999998  1.0000
  O   O34       1.0  0.19481000000000004  0.07812  0.1177  1.0000
  O   O35       1.0  0.19806000000000004  0.05033  0.1687  1.0000
  O   O36       1.0  0.19992000000000001  0.93773  0.12792999999999996  1.0000
  O   O37       1.0  0.9500099999999999  0.11444000000000001  0.0463  1.0000
  O   O38       1.0  0.10802999999999993  0.9886000000000001  0.031249999999999993  1.0000
  O   O39       1.0  0.94436  0.22  0.02689  1.0000
  O   O40       1.0  0.09269000000000002  0.12507  0.07346  1.0000
  O   O41       1.0  0.11524  0.9781200000000001  0.08179  1.0000
  O   O42       1.0  0.11260000000000002  0.1353  0.02274  1.0000
  O   O43       1.0  0.09191000000000002  0.023210000000000043  0.6773899999999999  1.0000
  O   O44       1.0  0.07595000000000009  0.030619999999999998  0.62812  1.0000
  O   O45       1.0  0.9254799999999997  0.14725000000000005  0.6755199999999999  1.0000
  O   O46       1.0  0.07878  0.19470000000000004  0.61744  1.0000
  O   O47       1.0  0.05047000000000002  0.19779  0.66839  1.0000
  O   O48       1.0  0.9381399999999998  0.20167000000000002  0.6290199999999999  1.0000
