data_image0
_chemical_formula_structural       Mn24H456C408N64O72
_chemical_formula_sum              "Mn24 H456 C408 N64 O72"
_cell_length_a       17.36406
_cell_length_b       30.092770000000005
_cell_length_c       30.08998
_cell_angle_alpha    85.28115
_cell_angle_beta     73.28532
_cell_angle_gamma    73.29587

_space_group_name_H-M_alt    "P 1"
_space_group_IT_number       1

loop_
  _space_group_symop_operation_xyz
  'x, y, z'

loop_
  _atom_site_type_symbol
  _atom_site_label
  _atom_site_symmetry_multiplicity
  _atom_site_fract_x
  _atom_site_fract_y
  _atom_site_fract_z
  _atom_site_occupancy
  Mn  Mn1       1.0  0.3993699999999999  0.88595  0.96168  1.0000
  Mn  Mn2       1.0  0.21277000000000018  0.9987899999999997  0.07951999999999998  1.0000
  Mn  Mn3       1.0  0.6435300000000003  0.9168599999999998  0.85628  1.0000
  Mn  Mn4       1.0  0.24701000000000023  0.6137999999999998  0.53836  1.0000
  Mn  Mn5       1.0  0.29169999999999996  0.50096  0.42073  1.0000
  Mn  Mn6       1.0  0.41645999999999994  0.58325  0.64387  1.0000
  Mn  Mn7       1.0  0.78545  0.9616099999999999  0.6144  1.0000
  Mn  Mn8       1.0  0.7125200000000004  0.07905  0.50113  1.0000
  Mn  Mn9       1.0  0.06068000000000018  0.8561499999999997  0.58322  1.0000
  Mn  Mn10      1.0  0.36127000000000026  0.5376  0.88599  1.0000
  Mn  Mn11      1.0  0.29267000000000015  0.4200599999999999  0.9988799999999999  1.0000
  Mn  Mn12      1.0  0.49941  0.64366  0.9169399999999998  1.0000
  Mn  Mn13      1.0  0.60062  0.11405  0.03832  1.0000
  Mn  Mn14      1.0  0.7872300000000001  0.00121  0.92049  1.0000
  Mn  Mn15      1.0  0.35645999999999994  0.08314  0.14372  1.0000
  Mn  Mn16      1.0  0.75298  0.3861999999999999  0.46164  1.0000
  Mn  Mn17      1.0  0.70829  0.49904  0.57927  1.0000
  Mn  Mn18      1.0  0.5835300000000001  0.41675  0.35614  1.0000
  Mn  Mn19      1.0  0.21455000000000005  0.03839  0.38561  1.0000
  Mn  Mn20      1.0  0.28746999999999995  0.92095  0.49888  1.0000
  Mn  Mn21      1.0  0.93931  0.14385  0.41678  1.0000
  Mn  Mn22      1.0  0.63873  0.4624  0.11402  1.0000
  Mn  Mn23      1.0  0.7073200000000001  0.5799399999999998  0.00112  1.0000
  Mn  Mn24      1.0  0.50058  0.35634  0.08306  1.0000
  H   H1        1.0  0.28443000000000007  0.8990999999999998  0.84674  1.0000
  H   H2        1.0  0.14254000000000014  0.94481  0.8416399999999998  1.0000
  H   H3        1.0  0.03945000000000011  0.9899299999999998  0.91022  1.0000
  H   H4        1.0  0.08295000000000015  0.99058  0.9824799999999998  1.0000
  H   H5        1.0  0.3769600000000001  0.94837  0.10877999999999999  1.0000
  H   H6        1.0  0.4803600000000003  0.9273999999999998  0.07323999999999997  1.0000
  H   H7        1.0  0.4655300000000001  0.8810199999999998  0.14411  1.0000
  H   H8        1.0  0.4795599999999999  0.8455899999999998  0.09707  1.0000
  H   H9        1.0  0.31127000000000005  0.89096  0.16671999999999995  1.0000
  H   H10       1.0  0.32144  0.85909  0.11826999999999999  1.0000
  H   H11       1.0  0.4113600000000002  0.7885899999999998  0.14843999999999993  1.0000
  H   H12       1.0  0.40221999999999997  0.82021  0.19692999999999997  1.0000
  H   H13       1.0  0.24450000000000008  0.8329399999999998  0.22092999999999996  1.0000
  H   H14       1.0  0.29905000000000004  0.77301  0.21751  1.0000
  H   H15       1.0  0.25465000000000004  0.79994  0.17251  1.0000
  H   H16       1.0  0.07791  0.9241799999999999  0.19226  1.0000
  H   H17       1.0  0.06238999999999989  0.92363  0.27724  1.0000
  H   H18       1.0  0.13508000000000017  0.96969  0.30908  1.0000
  H   H19       1.0  0.22209000000000004  0.014049999999999998  0.25501  1.0000
  H   H20       1.0  0.37740000000000007  0.08206999999999998  0.98928  1.0000
  H   H21       1.0  0.37461  0.11161  0.03848  1.0000
  H   H22       1.0  0.29739000000000004  0.16185  0.9840999999999998  1.0000
  H   H23       1.0  0.22661000000000012  0.12764  0.9966599999999998  1.0000
  H   H24       1.0  0.25568  0.18397  0.06807  1.0000
  H   H25       1.0  0.18619  0.14958  0.08170999999999998  1.0000
  H   H26       1.0  0.17427  0.23426  0.01699  1.0000
  H   H27       1.0  0.10627  0.19884  0.02806  1.0000
  H   H28       1.0  0.06271000000000002  0.21865  0.11412  1.0000
  H   H29       1.0  0.04090000000000003  0.26903  0.07978999999999997  1.0000
  H   H30       1.0  0.12927  0.25542  0.10213999999999997  1.0000
  H   H31       1.0  0.12068000000000004  0.06397  0.014429999999999997  1.0000
  H   H32       1.0  0.016479999999999995  0.14122  0.01449  1.0000
  H   H33       1.0  0.95479  0.1383  0.16411  1.0000
  H   H34       1.0  0.06266999999999999  0.06187999999999999  0.15774  1.0000
  H   H35       1.0  0.89145  0.20835  0.12464  1.0000
  H   H36       1.0  0.93324  0.21485  0.06425  1.0000
  H   H37       1.0  0.8231100000000001  0.78722  0.7995299999999997  1.0000
  H   H38       1.0  0.8095000000000001  0.70638  0.80853  1.0000
  H   H39       1.0  0.6811400000000002  0.69022  0.8639099999999997  1.0000
  H   H40       1.0  0.56943  0.75501  0.90732  1.0000
  H   H41       1.0  0.3764900000000001  0.9935599999999998  0.9621199999999998  1.0000
  H   H42       1.0  0.43431000000000014  0.03256  0.9338999999999997  1.0000
  H   H43       1.0  0.39319  0.02694  0.86119  1.0000
  H   H44       1.0  0.33458  0.98869  0.8896399999999998  1.0000
  H   H45       1.0  0.30245  0.08909  0.9196  1.0000
  H   H46       1.0  0.24769000000000002  0.0505  0.9502499999999999  1.0000
  H   H47       1.0  0.25349999999999995  0.08275999999999999  0.84992  1.0000
  H   H48       1.0  0.19961000000000007  0.04321  0.8799199999999998  1.0000
  H   H49       1.0  0.10603000000000001  0.10384  0.93897  1.0000
  H   H50       1.0  0.16235000000000008  0.14405  0.9122099999999997  1.0000
  H   H51       1.0  0.10250000000000012  0.12508  0.8827199999999997  1.0000
  H   H52       1.0  0.68972  0.33917  0.08182999999999997  1.0000
  H   H53       1.0  0.81835  0.27623  0.08064  1.0000
  H   H54       1.0  0.6740400000000001  0.17835  0.09017  1.0000
  H   H55       1.0  0.55143  0.24562  0.08996  1.0000
  H   H56       1.0  0.81483  0.15394999999999998  0.10703  1.0000
  H   H57       1.0  0.85231  0.16389  0.0481  1.0000
  H   H58       1.0  0.02925000000000002  0.6018  0.65298  1.0000
  H   H59       1.0  0.92823  0.55575  0.65827  1.0000
  H   H60       1.0  0.9404  0.50921  0.59024  1.0000
  H   H61       1.0  0.057139999999999996  0.50807  0.51827  1.0000
  H   H62       1.0  0.43308000000000013  0.5516  0.39129999999999987  1.0000
  H   H63       1.0  0.4806099999999999  0.57219  0.42687  1.0000
  H   H64       1.0  0.49026  0.61875  0.3560399999999999  1.0000
  H   H65       1.0  0.42214999999999997  0.65423  0.4030699999999999  1.0000
  H   H66       1.0  0.36837999999999993  0.60889  0.33338  1.0000
  H   H67       1.0  0.2984900000000001  0.6406899999999999  0.38185  1.0000
  H   H68       1.0  0.3483200000000001  0.71118  0.35188  1.0000
  H   H69       1.0  0.41917  0.67964  0.30337  1.0000
  H   H70       1.0  0.2981399999999999  0.66704  0.27911  1.0000
  H   H71       1.0  0.28981999999999997  0.72692  0.28259  1.0000
  H   H72       1.0  0.22706  0.70007  0.32748999999999995  1.0000
  H   H73       1.0  0.19450000000000006  0.57547  0.3084  1.0000
  H   H74       1.0  0.26266  0.57628  0.2234  1.0000
  H   H75       1.0  0.41288000000000014  0.53056  0.19119999999999995  1.0000
  H   H76       1.0  0.4907999999999999  0.48592999999999986  0.24485999999999997  1.0000
  H   H77       1.0  0.45019  0.4174999999999999  0.51048  1.0000
  H   H78       1.0  0.5255900000000001  0.3880499999999999  0.46121  1.0000
  H   H79       1.0  0.44506000000000007  0.33745  0.51569  1.0000
  H   H80       1.0  0.3524299999999999  0.37169  0.5036  1.0000
  H   H81       1.0  0.5083400000000001  0.31542  0.43185  1.0000
  H   H82       1.0  0.41827999999999993  0.35002  0.4182899999999999  1.0000
  H   H83       1.0  0.42591000000000007  0.2652  0.4827599999999999  1.0000
  H   H84       1.0  0.33369  0.30079999999999996  0.4718199999999999  1.0000
  H   H85       1.0  0.3955900000000001  0.28132  0.3856499999999999  1.0000
  H   H86       1.0  0.3890500000000001  0.23094  0.4198  1.0000
  H   H87       1.0  0.48651  0.24418  0.3976099999999999  1.0000
  H   H88       1.0  0.19988000000000003  0.43565  0.48551  1.0000
  H   H89       1.0  0.17311000000000007  0.35835  0.4853199999999999  1.0000
  H   H90       1.0  0.25723  0.36159  0.33569  1.0000
  H   H91       1.0  0.28246000000000004  0.43799999999999994  0.3422099999999999  1.0000
  H   H92       1.0  0.22439000000000006  0.29134  0.37513999999999986  1.0000
  H   H93       1.0  0.21275999999999998  0.28479  0.43552  1.0000
  H   H94       1.0  0.4097200000000001  0.713  0.7004999999999999  1.0000
  H   H95       1.0  0.32419000000000003  0.7937699999999998  0.6915  1.0000
  H   H96       1.0  0.23503000000000018  0.8097699999999998  0.6360799999999998  1.0000
  H   H97       1.0  0.23167000000000001  0.74494  0.5925399999999998  1.0000
  H   H98       1.0  0.33286999999999983  0.50593  0.53767  1.0000
  H   H99       1.0  0.40122  0.4672  0.56625  1.0000
  H   H100      1.0  0.2816699999999999  0.47299  0.63872  1.0000
  H   H101      1.0  0.21358000000000013  0.51122  0.61013  1.0000
  H   H102      1.0  0.31107000000000007  0.41075  0.58037  1.0000
  H   H103      1.0  0.24852000000000007  0.44932  0.5496599999999999  1.0000
  H   H104      1.0  0.18633000000000005  0.41716  0.64999  1.0000
  H   H105      1.0  0.123  0.45670999999999995  0.61997  1.0000
  H   H106      1.0  0.14879000000000003  0.39607999999999993  0.56089  1.0000
  H   H107      1.0  0.21839  0.35587  0.58769  1.0000
  H   H108      1.0  0.11026999999999995  0.37481  0.6171  1.0000
  H   H109      1.0  0.11025  0.1608  0.41791  1.0000
  H   H110      1.0  0.17490000000000003  0.22365  0.41936  1.0000
  H   H111      1.0  0.9425900000000001  0.32167  0.4099899999999999  1.0000
  H   H112      1.0  0.8868800000000002  0.25444  0.4099  1.0000
  H   H113      1.0  0.07616999999999999  0.34594  0.39299  1.0000
  H   H114      1.0  0.06511999999999998  0.33594  0.4518999999999999  1.0000
  H   H115      1.0  0.68321  0.84671  0.60206  1.0000
  H   H116      1.0  0.58753  0.84102  0.55593  1.0000
  H   H117      1.0  0.5300900000000001  0.90933  0.51027  1.0000
  H   H118      1.0  0.5751600000000001  0.98137  0.5089  1.0000
  H   H119      1.0  0.8250599999999998  0.10862  0.55163  1.0000
  H   H120      1.0  0.9075999999999999  0.07308  0.57255  1.0000
  H   H121      1.0  0.8462900000000001  0.14398  0.61909  1.0000
  H   H122      1.0  0.82488  0.09691  0.65443  1.0000
  H   H123      1.0  0.70209  0.16641999999999998  0.6088399999999998  1.0000
  H   H124      1.0  0.68048  0.11802  0.64072  1.0000
  H   H125      1.0  0.7000900000000003  0.14825  0.71123  1.0000
  H   H126      1.0  0.72265  0.19666999999999996  0.6796  1.0000
  H   H127      1.0  0.5775799999999999  0.22084  0.66694  1.0000
  H   H128      1.0  0.5725  0.21744  0.72686  1.0000
  H   H129      1.0  0.55465  0.1725  0.69996  1.0000
  H   H130      1.0  0.50255  0.19130999999999995  0.57564  1.0000
  H   H131      1.0  0.4856699999999999  0.27631  0.57639  1.0000
  H   H132      1.0  0.6039599999999999  0.30856  0.53088  1.0000
  H   H133      1.0  0.7356600000000002  0.25481  0.48635  1.0000
  H   H134      1.0  0.9598199999999998  0.98959  0.4178  1.0000
  H   H135      1.0  0.98682  0.03865  0.3880299999999999  1.0000
  H   H136      1.0  0.95998  0.98415  0.33761  1.0000
  H   H137      1.0  0.8553  0.9965  0.37208  1.0000
  H   H138      1.0  0.93996  0.06804  0.3155499999999999  1.0000
  H   H139      1.0  0.8363500000000001  0.08161999999999997  0.35015  1.0000
  H   H140      1.0  0.9084299999999998  0.01704  0.2653  1.0000
  H   H141      1.0  0.8052  0.02806  0.30086  1.0000
  H   H142      1.0  0.7812700000000002  0.11414999999999997  0.28133  1.0000
  H   H143      1.0  0.8092200000000002  0.07995  0.23088999999999996  1.0000
  H   H144      1.0  0.8843  0.1022  0.24436999999999995  1.0000
  H   H145      1.0  0.6852100000000001  0.014079999999999999  0.43569999999999987  1.0000
  H   H146      1.0  0.6579600000000002  0.014439999999999998  0.35842  1.0000
  H   H147      1.0  0.59323  0.16403  0.36204  1.0000
  H   H148      1.0  0.62512  0.15733  0.43845  1.0000
  H   H149      1.0  0.5995800000000001  0.12484999999999997  0.29182  1.0000
  H   H150      1.0  0.64804  0.06447  0.28497999999999996  1.0000
  H   H151      1.0  0.11137000000000007  0.7993499999999999  0.7127199999999999  1.0000
  H   H152      1.0  0.017290000000000142  0.8080999999999998  0.79356  1.0000
  H   H153      1.0  0.8726900000000002  0.8632799999999998  0.8099299999999998  1.0000
  H   H154      1.0  0.8253000000000005  0.90689  0.7452699999999998  1.0000
  H   H155      1.0  0.8699100000000002  0.96209  0.50649  1.0000
  H   H156      1.0  0.9668  0.93382  0.46765  1.0000
  H   H157      1.0  0.92014  0.86115  0.4730699999999999  1.0000
  H   H158      1.0  0.82334  0.88955  0.51129  1.0000
  H   H159      1.0  0.8915300000000003  0.91961  0.41101  1.0000
  H   H160      1.0  0.79827  0.95024  0.44957  1.0000
  H   H161      1.0  0.8363399999999999  0.84997  0.41713  1.0000
  H   H162      1.0  0.7429900000000002  0.8799  0.4567  1.0000
  H   H163      1.0  0.70977  0.93894  0.39614  1.0000
  H   H164      1.0  0.8061900000000003  0.91223  0.35588999999999993  1.0000
  H   H165      1.0  0.7275200000000003  0.88271  0.37482  1.0000
  H   H166      1.0  0.52876  0.08183999999999997  0.1608  1.0000
  H   H167      1.0  0.5945  0.08057  0.22381999999999994  1.0000
  H   H168      1.0  0.35258999999999996  0.08999  0.32158  1.0000
  H   H169      1.0  0.29718  0.08979  0.25424  1.0000
  H   H170      1.0  0.4689200000000001  0.10714  0.3459999999999999  1.0000
  H   H171      1.0  0.5164000000000002  0.04819  0.33617  1.0000
  H   H172      1.0  0.13237000000000015  0.65226  0.8984399999999998  1.0000
  H   H173      1.0  0.98531  0.65804  0.94472  1.0000
  H   H174      1.0  0.9501400000000001  0.58978  0.99027  1.0000
  H   H175      1.0  0.06525000000000016  0.51745  0.9912699999999998  1.0000
  H   H176      1.0  0.4851499999999999  0.3908  0.94846  1.0000
  H   H177      1.0  0.5532600000000002  0.4263799999999999  0.9281799999999998  1.0000
  H   H178      1.0  0.6094200000000003  0.35571  0.88125  1.0000
  H   H179      1.0  0.5767499999999999  0.4028  0.84587  1.0000
  H   H180      1.0  0.47757000000000005  0.33328  0.89114  1.0000
  H   H181      1.0  0.43950000000000017  0.3817799999999999  0.85939  1.0000
  H   H182      1.0  0.5594499999999999  0.3518  0.78886  1.0000
  H   H183      1.0  0.5989100000000003  0.30329  0.8203199999999998  1.0000
  H   H184      1.0  0.4653  0.27906  0.83293  1.0000
  H   H185      1.0  0.51664  0.2825  0.77303  1.0000
  H   H186      1.0  0.4271500000000001  0.3274199999999999  0.7999199999999997  1.0000
  H   H187      1.0  0.27041000000000015  0.30725  0.9244199999999998  1.0000
  H   H188      1.0  0.34001000000000015  0.22236  0.92362  1.0000
  H   H189      1.0  0.44458  0.19054  0.9695  1.0000
  H   H190      1.0  0.4773299999999999  0.24454  0.014189999999999996  1.0000
  H   H191      1.0  0.36642  0.51059  0.08182999999999997  1.0000
  H   H192      1.0  0.4132199999999999  0.4617  0.11157  1.0000
  H   H193      1.0  0.28165000000000007  0.51595  0.16208999999999996  1.0000
  H   H194      1.0  0.22361999999999999  0.50345  0.12772  1.0000
  H   H195      1.0  0.3235700000000002  0.43202  0.18421999999999997  1.0000
  H   H196      1.0  0.26787000000000005  0.41840999999999995  0.14968  1.0000
  H   H197      1.0  0.19112  0.48299  0.23456999999999995  1.0000
  H   H198      1.0  0.13429000000000002  0.47189999999999993  0.19906  1.0000
  H   H199      1.0  0.17698000000000003  0.3858  0.21861  1.0000
  H   H200      1.0  0.12046000000000001  0.4200399999999999  0.26901  1.0000
  H   H201      1.0  0.23113000000000003  0.39787999999999996  0.25559  1.0000
  H   H202      1.0  0.13502  0.48525999999999997  0.06385  1.0000
  H   H203      1.0  0.031190000000000023  0.48535  0.14122999999999997  1.0000
  H   H204      1.0  0.11862000000000003  0.33574  0.13846  1.0000
  H   H205      1.0  0.21992  0.34199  0.06191  1.0000
  H   H206      1.0  0.016150000000000043  0.37535  0.20860999999999993  1.0000
  H   H207      1.0  0.9978399999999998  0.43574  0.21509  1.0000
  H   H208      1.0  0.6223600000000004  0.70026  0.7874099999999999  1.0000
  H   H209      1.0  0.6182  0.69112  0.7065  1.0000
  H   H210      1.0  0.5445000000000001  0.63612  0.69026  1.0000
  H   H211      1.0  0.4758400000000001  0.5927399999999999  0.75492  1.0000
  H   H212      1.0  0.33827000000000035  0.53768  0.9943999999999997  1.0000
  H   H213      1.0  0.36802  0.56656  0.03292  1.0000
  H   H214      1.0  0.25466000000000005  0.6389099999999999  0.026959999999999998  1.0000
  H   H215      1.0  0.22459999999999997  0.6103499999999998  0.98866  1.0000
  H   H216      1.0  0.22188  0.5806  0.08911999999999998  1.0000
  H   H217      1.0  0.19788999999999995  0.54987  0.05046  1.0000
  H   H218      1.0  0.10329999999999993  0.65015  0.08280999999999997  1.0000
  H   H219      1.0  0.07956999999999999  0.62006  0.04318  1.0000
  H   H220      1.0  0.045290000000000066  0.5609  0.10367999999999998  1.0000
  H   H221      1.0  0.07473999999999999  0.58772  0.14396  1.0000
  H   H222      1.0  0.98534  0.61704  0.12512  1.0000
  H   H223      1.0  0.7711500000000003  0.41842999999999997  0.33928  1.0000
  H   H224      1.0  0.89875  0.41963  0.27651  1.0000
  H   H225      1.0  0.7644200000000002  0.4102699999999999  0.17828  1.0000
  H   H226      1.0  0.64148  0.41034999999999994  0.24539999999999995  1.0000
  H   H227      1.0  0.9222100000000001  0.39279  0.15422  1.0000
  H   H228      1.0  0.90118  0.45174  0.16385  1.0000
  H   H229      1.0  0.7155600000000001  0.1009  0.15327  1.0000
  H   H230      1.0  0.8574500000000002  0.05518999999999999  0.15837  1.0000
  H   H231      1.0  0.9605400000000001  0.01007  0.08978  1.0000
  H   H232      1.0  0.9170399999999999  0.00942  0.01752  1.0000
  H   H233      1.0  0.6230300000000003  0.05162999999999999  0.8912299999999997  1.0000
  H   H234      1.0  0.51963  0.0726  0.92677  1.0000
  H   H235      1.0  0.5344600000000002  0.11898  0.85589  1.0000
  H   H236      1.0  0.5204400000000001  0.15441  0.90293  1.0000
  H   H237      1.0  0.6887199999999999  0.10903999999999997  0.83329  1.0000
  H   H238      1.0  0.67855  0.14091  0.88173  1.0000
  H   H239      1.0  0.58864  0.21140999999999996  0.85156  1.0000
  H   H240      1.0  0.59777  0.17978999999999998  0.8030799999999999  1.0000
  H   H241      1.0  0.7555  0.16706  0.77907  1.0000
  H   H242      1.0  0.7009400000000001  0.22698999999999994  0.78249  1.0000
  H   H243      1.0  0.7453500000000003  0.20006  0.8274899999999997  1.0000
  H   H244      1.0  0.92209  0.07582  0.8077499999999997  1.0000
  H   H245      1.0  0.9376099999999999  0.07637  0.7227599999999998  1.0000
  H   H246      1.0  0.86491  0.03031  0.69092  1.0000
  H   H247      1.0  0.7779000000000004  0.98595  0.7449999999999998  1.0000
  H   H248      1.0  0.6226  0.91793  0.01072  1.0000
  H   H249      1.0  0.6253900000000001  0.8883899999999998  0.9615299999999998  1.0000
  H   H250      1.0  0.70261  0.8381499999999997  0.0159  1.0000
  H   H251      1.0  0.7733900000000002  0.8723599999999998  0.00334  1.0000
  H   H252      1.0  0.74432  0.81603  0.93193  1.0000
  H   H253      1.0  0.8138000000000001  0.85042  0.91829  1.0000
  H   H254      1.0  0.8257199999999999  0.76574  0.98301  1.0000
  H   H255      1.0  0.89372  0.8011599999999999  0.97195  1.0000
  H   H256      1.0  0.9372799999999999  0.7813499999999998  0.8858799999999998  1.0000
  H   H257      1.0  0.9591  0.73097  0.92022  1.0000
  H   H258      1.0  0.8707200000000002  0.74458  0.8978599999999999  1.0000
  H   H259      1.0  0.8793200000000001  0.93603  0.9855699999999997  1.0000
  H   H260      1.0  0.9835100000000001  0.85878  0.98552  1.0000
  H   H261      1.0  0.045210000000000104  0.8616999999999998  0.8359  1.0000
  H   H262      1.0  0.9373200000000004  0.9381199999999997  0.8422599999999998  1.0000
  H   H263      1.0  0.10854000000000004  0.79165  0.87536  1.0000
  H   H264      1.0  0.06675000000000013  0.7851499999999999  0.9357599999999998  1.0000
  H   H265      1.0  0.17688  0.21277999999999997  0.20047  1.0000
  H   H266      1.0  0.19049000000000002  0.29361999999999994  0.19148  1.0000
  H   H267      1.0  0.31886  0.30978  0.13609  1.0000
  H   H268      1.0  0.43056  0.24499  0.09268  1.0000
  H   H269      1.0  0.62351  0.006439999999999999  0.03788  1.0000
  H   H270      1.0  0.5656800000000001  0.96744  0.06611  1.0000
  H   H271      1.0  0.60681  0.97306  0.13882  1.0000
  H   H272      1.0  0.66542  0.01131  0.11036  1.0000
  H   H273      1.0  0.69755  0.91091  0.0804  1.0000
  H   H274      1.0  0.75231  0.9495  0.04975  1.0000
  H   H275      1.0  0.7464900000000002  0.91724  0.15007999999999994  1.0000
  H   H276      1.0  0.8003800000000003  0.95679  0.12009  1.0000
  H   H277      1.0  0.89396  0.89616  0.06103  1.0000
  H   H278      1.0  0.83765  0.85595  0.08778999999999998  1.0000
  H   H279      1.0  0.89749  0.87492  0.11727999999999997  1.0000
  H   H280      1.0  0.3102800000000001  0.66083  0.9181699999999998  1.0000
  H   H281      1.0  0.18164000000000013  0.72377  0.91936  1.0000
  H   H282      1.0  0.32595999999999997  0.82165  0.90984  1.0000
  H   H283      1.0  0.44857000000000025  0.75438  0.9100499999999998  1.0000
  H   H284      1.0  0.18515999999999996  0.84605  0.89297  1.0000
  H   H285      1.0  0.1476800000000001  0.8361  0.9519  1.0000
  H   H286      1.0  0.9707500000000002  0.3982  0.34703  1.0000
  H   H287      1.0  0.07177000000000011  0.4442499999999999  0.34172999999999987  1.0000
  H   H288      1.0  0.05960000000000005  0.49079  0.40976  1.0000
  H   H289      1.0  0.94286  0.49193  0.48174  1.0000
  H   H290      1.0  0.5669100000000001  0.4484  0.60871  1.0000
  H   H291      1.0  0.5193900000000001  0.42781  0.57314  1.0000
  H   H292      1.0  0.5097400000000001  0.38125  0.6439599999999998  1.0000
  H   H293      1.0  0.5778400000000001  0.34577  0.5969399999999999  1.0000
  H   H294      1.0  0.63161  0.39111  0.66663  1.0000
  H   H295      1.0  0.7015000000000002  0.35931  0.61816  1.0000
  H   H296      1.0  0.65168  0.28882  0.64813  1.0000
  H   H297      1.0  0.58083  0.3203599999999999  0.6966299999999997  1.0000
  H   H298      1.0  0.7018600000000002  0.33296  0.7208899999999999  1.0000
  H   H299      1.0  0.7101700000000004  0.27308  0.7174199999999998  1.0000
  H   H300      1.0  0.7729300000000002  0.29993  0.6725199999999998  1.0000
  H   H301      1.0  0.80549  0.4245299999999999  0.6916099999999997  1.0000
  H   H302      1.0  0.73734  0.42371999999999993  0.77661  1.0000
  H   H303      1.0  0.58711  0.46944  0.8088  1.0000
  H   H304      1.0  0.50919  0.51407  0.75514  1.0000
  H   H305      1.0  0.5498100000000001  0.5825  0.4895299999999999  1.0000
  H   H306      1.0  0.47441000000000016  0.6119499999999998  0.53879  1.0000
  H   H307      1.0  0.5549399999999999  0.66255  0.48431  1.0000
  H   H308      1.0  0.6475700000000001  0.6283099999999999  0.4964099999999999  1.0000
  H   H309      1.0  0.49165  0.68458  0.56815  1.0000
  H   H310      1.0  0.5817199999999999  0.64998  0.58172  1.0000
  H   H311      1.0  0.5740799999999998  0.7348  0.51724  1.0000
  H   H312      1.0  0.6663  0.6992  0.52818  1.0000
  H   H313      1.0  0.6044099999999999  0.71868  0.61435  1.0000
  H   H314      1.0  0.6109500000000001  0.7690599999999999  0.5802  1.0000
  H   H315      1.0  0.5134900000000001  0.75582  0.6024  1.0000
  H   H316      1.0  0.80012  0.56435  0.51449  1.0000
  H   H317      1.0  0.82689  0.64165  0.51468  1.0000
  H   H318      1.0  0.74277  0.63841  0.66432  1.0000
  H   H319      1.0  0.7175300000000002  0.562  0.6577999999999998  1.0000
  H   H320      1.0  0.7756099999999999  0.70866  0.6248599999999999  1.0000
  H   H321      1.0  0.78723  0.71521  0.56448  1.0000
  H   H322      1.0  0.59028  0.287  0.29951  1.0000
  H   H323      1.0  0.6758000000000001  0.20623  0.3084999999999999  1.0000
  H   H324      1.0  0.7649600000000004  0.19023  0.36392  1.0000
  H   H325      1.0  0.7683200000000001  0.25506  0.4074699999999999  1.0000
  H   H326      1.0  0.6671200000000002  0.4940699999999999  0.46233  1.0000
  H   H327      1.0  0.5987700000000005  0.5328  0.43375  1.0000
  H   H328      1.0  0.71833  0.52701  0.36129  1.0000
  H   H329      1.0  0.7864199999999999  0.48877999999999994  0.38988  1.0000
  H   H330      1.0  0.68892  0.58925  0.41964  1.0000
  H   H331      1.0  0.75147  0.55068  0.45035  1.0000
  H   H332      1.0  0.81366  0.58284  0.35001  1.0000
  H   H333      1.0  0.8769900000000003  0.54329  0.38002999999999987  1.0000
  H   H334      1.0  0.85121  0.60392  0.43911  1.0000
  H   H335      1.0  0.7816000000000001  0.6441299999999998  0.41231  1.0000
  H   H336      1.0  0.8897300000000001  0.62519  0.38291  1.0000
  H   H337      1.0  0.8897399999999999  0.8392  0.5821  1.0000
  H   H338      1.0  0.8250899999999999  0.77635  0.5806399999999999  1.0000
  H   H339      1.0  0.05741000000000012  0.67833  0.5900099999999998  1.0000
  H   H340      1.0  0.11311999999999996  0.74556  0.59011  1.0000
  H   H341      1.0  0.92383  0.65406  0.6070099999999999  1.0000
  H   H342      1.0  0.9348699999999998  0.66406  0.5481  1.0000
  H   H343      1.0  0.31679  0.15329  0.39794999999999997  1.0000
  H   H344      1.0  0.41246  0.15898  0.44406999999999996  1.0000
  H   H345      1.0  0.4699  0.09067  0.48974  1.0000
  H   H346      1.0  0.42483000000000004  0.018629999999999997  0.4911099999999999  1.0000
  H   H347      1.0  0.17494000000000007  0.89138  0.44837  1.0000
  H   H348      1.0  0.09239000000000004  0.92692  0.42745  1.0000
  H   H349      1.0  0.15369999999999998  0.85602  0.38091  1.0000
  H   H350      1.0  0.17511000000000004  0.90309  0.34557  1.0000
  H   H351      1.0  0.29790000000000005  0.83358  0.3911599999999999  1.0000
  H   H352      1.0  0.31951999999999986  0.88198  0.35928  1.0000
  H   H353      1.0  0.29991000000000007  0.85175  0.28878  1.0000
  H   H354      1.0  0.27734  0.80333  0.3203999999999999  1.0000
  H   H355      1.0  0.4224100000000001  0.77916  0.33307  1.0000
  H   H356      1.0  0.4274899999999999  0.78256  0.27314  1.0000
  H   H357      1.0  0.44534999999999997  0.8275  0.30005  1.0000
  H   H358      1.0  0.49745000000000017  0.80869  0.42436  1.0000
  H   H359      1.0  0.5143200000000001  0.72369  0.4236099999999999  1.0000
  H   H360      1.0  0.3960400000000001  0.69144  0.46911999999999987  1.0000
  H   H361      1.0  0.2643400000000001  0.74519  0.51365  1.0000
  H   H362      1.0  0.040180000000000056  0.01041  0.5822099999999999  1.0000
  H   H363      1.0  0.013180000000000294  0.9613399999999998  0.6119699999999998  1.0000
  H   H364      1.0  0.04001000000000002  0.01585  0.6624  1.0000
  H   H365      1.0  0.14469000000000015  0.0035  0.6279299999999998  1.0000
  H   H366      1.0  0.06004000000000019  0.93196  0.6844499999999998  1.0000
  H   H367      1.0  0.1636600000000001  0.9183799999999998  0.64985  1.0000
  H   H368      1.0  0.09157000000000025  0.9829599999999998  0.7346999999999999  1.0000
  H   H369      1.0  0.1947900000000002  0.9719399999999998  0.69915  1.0000
  H   H370      1.0  0.21873000000000023  0.88585  0.7186699999999998  1.0000
  H   H371      1.0  0.19078000000000012  0.92005  0.7691099999999997  1.0000
  H   H372      1.0  0.11571000000000026  0.89779  0.7556299999999998  1.0000
  H   H373      1.0  0.31479  0.98592  0.5642999999999999  1.0000
  H   H374      1.0  0.34203000000000017  0.98556  0.64158  1.0000
  H   H375      1.0  0.40676000000000007  0.83597  0.6379599999999997  1.0000
  H   H376      1.0  0.3748800000000001  0.84267  0.56156  1.0000
  H   H377      1.0  0.4004099999999999  0.87515  0.70818  1.0000
  H   H378      1.0  0.35194999999999993  0.93553  0.71502  1.0000
  H   H379      1.0  0.8886200000000001  0.20064999999999994  0.28729  1.0000
  H   H380      1.0  0.9827  0.1919  0.20644  1.0000
  H   H381      1.0  0.12731  0.13672  0.19007  1.0000
  H   H382      1.0  0.1747  0.09311  0.25474  1.0000
  H   H383      1.0  0.13007999999999997  0.03791  0.49351  1.0000
  H   H384      1.0  0.03319  0.06618  0.53235  1.0000
  H   H385      1.0  0.07985  0.13885  0.52694  1.0000
  H   H386      1.0  0.17665  0.11045  0.48870999999999987  1.0000
  H   H387      1.0  0.10846999999999997  0.08039  0.589  1.0000
  H   H388      1.0  0.20173000000000008  0.04976  0.5504299999999999  1.0000
  H   H389      1.0  0.16365  0.15003  0.58288  1.0000
  H   H390      1.0  0.25701000000000007  0.1201  0.5433  1.0000
  H   H391      1.0  0.29023  0.06106  0.60387  1.0000
  H   H392      1.0  0.19380999999999995  0.08777  0.64411  1.0000
  H   H393      1.0  0.2724700000000001  0.11728999999999998  0.6251899999999999  1.0000
  H   H394      1.0  0.4712299999999999  0.91816  0.8392  1.0000
  H   H395      1.0  0.40549999999999997  0.91943  0.77619  1.0000
  H   H396      1.0  0.6474  0.91001  0.6784299999999998  1.0000
  H   H397      1.0  0.7028099999999999  0.91021  0.74577  1.0000
  H   H398      1.0  0.5310800000000002  0.89286  0.6540099999999998  1.0000
  H   H399      1.0  0.48359  0.95181  0.66384  1.0000
  H   H400      1.0  0.86763  0.34774  0.10155999999999997  1.0000
  H   H401      1.0  0.014680000000000007  0.34195  0.05528  1.0000
  H   H402      1.0  0.04984999999999999  0.41021  0.00973  1.0000
  H   H403      1.0  0.93474  0.4825499999999999  0.00873  1.0000
  H   H404      1.0  0.51484  0.6092  0.05154  1.0000
  H   H405      1.0  0.4467400000000001  0.57362  0.07182  1.0000
  H   H406      1.0  0.39058000000000004  0.6442899999999999  0.11876  1.0000
  H   H407      1.0  0.42325000000000007  0.5972  0.15413  1.0000
  H   H408      1.0  0.52243  0.66672  0.10887  1.0000
  H   H409      1.0  0.56049  0.61822  0.14060999999999998  1.0000
  H   H410      1.0  0.44055  0.6482  0.21114  1.0000
  H   H411      1.0  0.40109  0.69671  0.17968  1.0000
  H   H412      1.0  0.53469  0.7209399999999999  0.16708  1.0000
  H   H413      1.0  0.48335  0.7174999999999999  0.22698  1.0000
  H   H414      1.0  0.5728400000000002  0.6725799999999997  0.20009  1.0000
  H   H415      1.0  0.72958  0.69275  0.07558  1.0000
  H   H416      1.0  0.6599800000000002  0.7776399999999998  0.07639  1.0000
  H   H417      1.0  0.55542  0.80946  0.03051  1.0000
  H   H418      1.0  0.52267  0.75546  0.98581  1.0000
  H   H419      1.0  0.6335800000000003  0.48941  0.9181699999999998  1.0000
  H   H420      1.0  0.5867700000000001  0.5383  0.8884299999999998  1.0000
  H   H421      1.0  0.7183399999999999  0.48405  0.8379199999999999  1.0000
  H   H422      1.0  0.7763800000000003  0.49655  0.87228  1.0000
  H   H423      1.0  0.6764299999999999  0.56798  0.81578  1.0000
  H   H424      1.0  0.7321199999999999  0.58159  0.85032  1.0000
  H   H425      1.0  0.80888  0.517  0.7654299999999998  1.0000
  H   H426      1.0  0.86571  0.5281  0.80094  1.0000
  H   H427      1.0  0.8230100000000001  0.6142  0.7813899999999998  1.0000
  H   H428      1.0  0.8795400000000001  0.5799599999999998  0.73099  1.0000
  H   H429      1.0  0.76887  0.60211  0.7444099999999999  1.0000
  H   H430      1.0  0.8649800000000001  0.51474  0.9361499999999999  1.0000
  H   H431      1.0  0.9688100000000001  0.51465  0.85878  1.0000
  H   H432      1.0  0.88137  0.66426  0.86154  1.0000
  H   H433      1.0  0.7800799999999999  0.65801  0.93809  1.0000
  H   H434      1.0  0.9838400000000005  0.6246499999999998  0.79139  1.0000
  H   H435      1.0  0.002159999999999999  0.56426  0.78492  1.0000
  H   H436      1.0  0.3776300000000001  0.29974  0.21259  1.0000
  H   H437      1.0  0.38180000000000003  0.30888  0.2935  1.0000
  H   H438      1.0  0.45549000000000023  0.36387999999999987  0.3097399999999999  1.0000
  H   H439      1.0  0.5241500000000001  0.40726  0.24507999999999994  1.0000
  H   H440      1.0  0.66172  0.46232  0.0056099999999999995  1.0000
  H   H441      1.0  0.6319800000000002  0.4334399999999999  0.96708  1.0000
  H   H442      1.0  0.7453400000000001  0.36109  0.9730399999999998  1.0000
  H   H443      1.0  0.7753999999999999  0.38965  0.01135  1.0000
  H   H444      1.0  0.77811  0.4194  0.91088  1.0000
  H   H445      1.0  0.8021  0.45013  0.9495399999999998  1.0000
  H   H446      1.0  0.8966900000000001  0.34985  0.9171999999999998  1.0000
  H   H447      1.0  0.9204200000000003  0.3799399999999999  0.9568199999999998  1.0000
  H   H448      1.0  0.9547000000000001  0.4391  0.89632  1.0000
  H   H449      1.0  0.9252500000000005  0.41228  0.8560499999999998  1.0000
  H   H450      1.0  0.014660000000000171  0.38296  0.8748899999999997  1.0000
  H   H451      1.0  0.22884000000000004  0.58157  0.66073  1.0000
  H   H452      1.0  0.10123999999999998  0.58037  0.72349  1.0000
  H   H453      1.0  0.23557999999999998  0.58973  0.82172  1.0000
  H   H454      1.0  0.3585100000000001  0.58965  0.75461  1.0000
  H   H455      1.0  0.07778  0.60721  0.84578  1.0000
  H   H456      1.0  0.09880999999999997  0.54826  0.83616  1.0000
  C   C1        1.0  0.26349  0.91791  0.91741  1.0000
  C   C2        1.0  0.23916999999999997  0.91926  0.8761999999999999  1.0000
  C   C3        1.0  0.15984000000000004  0.94491  0.8736399999999998  1.0000
  C   C4        1.0  0.10186000000000014  0.9704499999999998  0.912  1.0000
  C   C5        1.0  0.12567000000000006  0.97061  0.95228  1.0000
  C   C6        1.0  0.20582000000000017  0.9451899999999998  0.9557999999999998  1.0000
  C   C7        1.0  0.22682000000000005  0.9499  0.99866  1.0000
  C   C8        1.0  0.39021  0.91216  0.04808999999999999  1.0000
  C   C9        1.0  0.42094000000000015  0.9184699999999998  0.08817  1.0000
  C   C10       1.0  0.43522000000000016  0.87486  0.11865999999999997  1.0000
  C   C11       1.0  0.35409000000000007  0.86225  0.14372  1.0000
  C   C12       1.0  0.36900000000000005  0.8171699999999998  0.17172  1.0000
  C   C13       1.0  0.28747  0.80503  0.19709  1.0000
  C   C14       1.0  0.15675000000000003  0.96993  0.17549  1.0000
  C   C15       1.0  0.10846000000000003  0.94393  0.20676  1.0000
  C   C16       1.0  0.1005  0.94378  0.2541  1.0000
  C   C17       1.0  0.14116  0.96919  0.27209  1.0000
  C   C18       1.0  0.18983000000000003  0.99431  0.24185999999999994  1.0000
  C   C19       1.0  0.1983300000000001  0.99565  0.19368  1.0000
  C   C20       1.0  0.24713000000000004  0.02501  0.16472  1.0000
  C   C21       1.0  0.29994000000000004  0.06403  0.052089999999999984  1.0000
  C   C22       1.0  0.33616  0.09932  0.021799999999999993  1.0000
  C   C23       1.0  0.26708  0.14072  0.01128  1.0000
  C   C24       1.0  0.21454000000000004  0.1709  0.05395  1.0000
  C   C25       1.0  0.14576000000000003  0.21192  0.04351  1.0000
  C   C26       1.0  0.09159  0.24045  0.08711999999999998  1.0000
  C   C27       1.0  0.08229000000000003  0.08188999999999999  0.046699999999999985  1.0000
  C   C28       1.0  0.02446  0.12479  0.0471  1.0000
  C   C29       1.0  0.9767200000000001  0.14644  0.08958999999999998  1.0000
  C   C30       1.0  0.99021  0.12327999999999997  0.1301  1.0000
  C   C31       1.0  0.049949999999999994  0.08048  0.12683  1.0000
  C   C32       1.0  0.9094199999999999  0.19114  0.09092  1.0000
  C   C33       1.0  0.70456  0.8169099999999998  0.8478999999999998  1.0000
  C   C34       1.0  0.7682599999999999  0.77931  0.82321  1.0000
  C   C35       1.0  0.7600400000000002  0.73444  0.8287099999999997  1.0000
  C   C36       1.0  0.68853  0.72513  0.8594699999999997  1.0000
  C   C37       1.0  0.6250800000000001  0.7617399999999998  0.88357  1.0000
  C   C38       1.0  0.63058  0.80786  0.87826  1.0000
  C   C39       1.0  0.55927  0.8446  0.90339  1.0000
  C   C40       1.0  0.4879800000000002  0.96415  0.90869  1.0000
  C   C41       1.0  0.41245  0.00321  0.92829  1.0000
  C   C42       1.0  0.35618000000000005  0.01817  0.8952699999999998  1.0000
  C   C43       1.0  0.2806300000000001  0.05927  0.9150699999999998  1.0000
  C   C44       1.0  0.22010999999999994  0.07338999999999997  0.88474  1.0000
  C   C45       1.0  0.14366000000000012  0.11382  0.9056399999999998  1.0000
  C   C46       1.0  0.68876  0.30306  0.08307999999999997  1.0000
  C   C47       1.0  0.7609  0.26745  0.08261999999999999  1.0000
  C   C48       1.0  0.75804  0.22132  0.08451  1.0000
  C   C49       1.0  0.6807400000000001  0.21344  0.08784  1.0000
  C   C50       1.0  0.6118  0.25089  0.08785  1.0000
  C   C51       1.0  0.8333299999999999  0.18054  0.08233  1.0000
  C   C52       1.0  0.09897000000000004  0.5818799999999998  0.58274  1.0000
  C   C53       1.0  0.03427000000000002  0.58103  0.62379  1.0000
  C   C54       1.0  0.9780600000000002  0.55528  0.6264299999999998  1.0000
  C   C55       1.0  0.9846900000000001  0.52901  0.5884  1.0000
  C   C56       1.0  0.04915999999999998  0.52855  0.54824  1.0000
  C   C57       1.0  0.10704999999999996  0.55429  0.54451  1.0000
  C   C58       1.0  0.17519  0.54973  0.50153  1.0000
  C   C59       1.0  0.34999  0.58773  0.4520599999999999  1.0000
  C   C60       1.0  0.42704  0.58137  0.4120099999999999  1.0000
  C   C61       1.0  0.4284299999999998  0.62495  0.3815  1.0000
  C   C62       1.0  0.3597  0.63756  0.35643  1.0000
  C   C63       1.0  0.3577100000000001  0.68267  0.32849  1.0000
  C   C64       1.0  0.2895500000000001  0.69491  0.30298999999999987  1.0000
  C   C65       1.0  0.3028100000000001  0.53007  0.32485  1.0000
  C   C66       1.0  0.25926000000000005  0.55592  0.2937599999999999  1.0000
  C   C67       1.0  0.29804  0.55615  0.24640999999999993  1.0000
  C   C68       1.0  0.38193000000000005  0.53088  0.22819999999999993  1.0000
  C   C69       1.0  0.42582  0.50562  0.25824  1.0000
  C   C70       1.0  0.38792  0.50421  0.30642  1.0000
  C   C71       1.0  0.43708  0.47467  0.33526  1.0000
  C   C72       1.0  0.41664999999999996  0.43551  0.44782999999999995  1.0000
  C   C73       1.0  0.4583099999999999  0.40023  0.47801  1.0000
  C   C74       1.0  0.4204100000000001  0.35867999999999994  0.48868  1.0000
  C   C75       1.0  0.44013  0.32859  0.446  1.0000
  C   C76       1.0  0.40158000000000016  0.28767  0.45632  1.0000
  C   C77       1.0  0.41900000000000004  0.25935  0.41263  1.0000
  C   C78       1.0  0.21161999999999997  0.41777  0.45321  1.0000
  C   C79       1.0  0.1972200000000001  0.37481  0.45273  1.0000
  C   C80       1.0  0.21338999999999997  0.35321  0.41021  1.0000
  C   C81       1.0  0.24395999999999998  0.37648999999999994  0.36974  1.0000
  C   C82       1.0  0.25760000000000005  0.41933  0.37309  1.0000
  C   C83       1.0  0.1918500000000001  0.30854  0.40888999999999986  1.0000
  C   C84       1.0  0.3691500000000001  0.6832599999999998  0.6521199999999998  1.0000
  C   C85       1.0  0.37067000000000005  0.7208799999999999  0.67678  1.0000
  C   C86       1.0  0.32308000000000003  0.7657  0.6712499999999998  1.0000
  C   C87       1.0  0.27302999999999994  0.77492  0.64046  1.0000
  C   C88       1.0  0.27028  0.73829  0.6163299999999998  1.0000
  C   C89       1.0  0.3165300000000002  0.6922099999999998  0.6217299999999999  1.0000
  C   C90       1.0  0.3071600000000001  0.65535  0.59668  1.0000
  C   C91       1.0  0.36127000000000004  0.53573  0.59121  1.0000
  C   C92       1.0  0.3445  0.49653  0.57161  1.0000
  C   C93       1.0  0.27004000000000006  0.48168999999999995  0.6046  1.0000
  C   C94       1.0  0.25509  0.44058999999999987  0.58485  1.0000
  C   C95       1.0  0.17836000000000002  0.42652  0.6151599999999999  1.0000
  C   C96       1.0  0.16305  0.38611  0.59424  1.0000
  C   C97       1.0  0.07454  0.19689  0.4167  1.0000
  C   C98       1.0  0.11070000000000003  0.23248  0.41732  1.0000
  C   C99       1.0  0.06382000000000002  0.27862  0.41550999999999993  1.0000
  C   C100      1.0  0.98198  0.28657  0.4121999999999999  1.0000
  C   C101      1.0  0.95039  0.24913  0.4120199999999999  1.0000
  C   C102      1.0  0.09657000000000002  0.31929999999999986  0.41765  1.0000
  C   C103      1.0  0.6820600000000001  0.9169499999999998  0.58222  1.0000
  C   C104      1.0  0.65872  0.8757699999999998  0.5813  1.0000
  C   C105      1.0  0.60515  0.873  0.55561  1.0000
  C   C106      1.0  0.5731099999999999  0.91115  0.52971  1.0000
  C   C107      1.0  0.5974100000000001  0.95137  0.52921  1.0000
  C   C108      1.0  0.6519800000000001  0.95512  0.5546699999999999  1.0000
  C   C109      1.0  0.6776299999999998  0.99799  0.54991  1.0000
  C   C110      1.0  0.80219  0.04798  0.58792  1.0000
  C   C111      1.0  0.8392700000000001  0.08801  0.5815199999999998  1.0000
  C   C112      1.0  0.8099300000000004  0.1185  0.6251299999999997  1.0000
  C   C113      1.0  0.7162300000000001  0.1435  0.63759  1.0000
  C   C114      1.0  0.6862400000000001  0.17154  0.68266  1.0000
  C   C115      1.0  0.5926700000000001  0.19701  0.69485  1.0000
  C   C116      1.0  0.6272100000000004  0.17481999999999995  0.53028  1.0000
  C   C117      1.0  0.5527  0.20596  0.5561199999999998  1.0000
  C   C118      1.0  0.54415  0.25332  0.55635  1.0000
  C   C119      1.0  0.6099  0.27156  0.53114  1.0000
  C   C120      1.0  0.6838300000000002  0.24151  0.50597  1.0000
  C   C121      1.0  0.69401  0.19331  0.50452  1.0000
  C   C122      1.0  0.7720600000000002  0.16460999999999995  0.4749499999999999  1.0000
  C   C123      1.0  0.86452  0.05217999999999999  0.4355499999999999  1.0000
  C   C124      1.0  0.9361399999999999  0.021969999999999996  0.4002899999999999  1.0000
  C   C125      1.0  0.9086000000000001  0.011259999999999996  0.3588499999999999  1.0000
  C   C126      1.0  0.8858500000000001  0.05388  0.3287199999999999  1.0000
  C   C127      1.0  0.8577099999999999  0.04351  0.28776  1.0000
  C   C128      1.0  0.83173  0.08717999999999997  0.2594  1.0000
  C   C129      1.0  0.66461  0.04641  0.41793  1.0000
  C   C130      1.0  0.6496300000000003  0.04698  0.3749899999999999  1.0000
  C   C131      1.0  0.6234500000000002  0.08955  0.3535199999999999  1.0000
  C   C132      1.0  0.6138000000000001  0.12996  0.3768799999999999  1.0000
  C   C133      1.0  0.6308400000000001  0.12651  0.4197099999999999  1.0000
  C   C134      1.0  0.60059  0.09104  0.30882999999999994  1.0000
  C   C135      1.0  0.02232000000000004  0.84779  0.6831799999999998  1.0000
  C   C136      1.0  0.048609999999999945  0.823  0.72069  1.0000
  C   C137      1.0  0.9956800000000001  0.82834  0.76558  1.0000
  C   C138      1.0  0.9147899999999999  0.859  0.77499  1.0000
  C   C139      1.0  0.8877400000000003  0.8832199999999999  0.73847  1.0000
  C   C140      1.0  0.93923  0.87807  0.6923099999999999  1.0000
  C   C141      1.0  0.9044899999999999  0.90327  0.6556299999999999  1.0000
  C   C142      1.0  0.9520599999999999  0.90867  0.53605  1.0000
  C   C143      1.0  0.9155600000000004  0.92825  0.49695  1.0000
  C   C144      1.0  0.8743700000000002  0.8952099999999997  0.48188  1.0000
  C   C145      1.0  0.8399200000000002  0.9150699999999998  0.44075999999999993  1.0000
  C   C146      1.0  0.7935500000000002  0.8847599999999998  0.42654  1.0000
  C   C147      1.0  0.7573900000000002  0.90564  0.38612  1.0000
  C   C148      1.0  0.4917099999999999  0.0831  0.19688  1.0000
  C   C149      1.0  0.52828  0.08257  0.23253999999999997  1.0000
  C   C150      1.0  0.47941000000000006  0.08444  0.27866  1.0000
  C   C151      1.0  0.39429999999999993  0.08771  0.2865  1.0000
  C   C152      1.0  0.3627500000000001  0.08778  0.24899999999999994  1.0000
  C   C153      1.0  0.51399  0.08238  0.31945  1.0000
  C   C154      1.0  0.1812500000000001  0.5817799999999999  0.9178599999999998  1.0000
  C   C155      1.0  0.11620999999999995  0.6231  0.91904  1.0000
  C   C156      1.0  0.03433000000000005  0.62598  0.9449099999999999  1.0000
  C   C157      1.0  0.014359999999999961  0.58783  0.97074  1.0000
  C   C158      1.0  0.07804999999999997  0.54745  0.971  1.0000
  C   C159      1.0  0.16168  0.54363  0.94535  1.0000
  C   C160      1.0  0.22543999999999995  0.5008  0.95004  1.0000
  C   C161      1.0  0.43834  0.45157  0.91238  1.0000
  C   C162      1.0  0.5089500000000001  0.41157  0.9188199999999997  1.0000
  C   C163      1.0  0.55382  0.38123  0.87512  1.0000
  C   C164      1.0  0.49753000000000003  0.35628  0.86247  1.0000
  C   C165      1.0  0.54045  0.32838999999999996  0.81732  1.0000
  C   C166      1.0  0.4844900000000001  0.30292  0.80505  1.0000
  C   C167      1.0  0.3329300000000001  0.32403  0.9699699999999998  1.0000
  C   C168      1.0  0.31552000000000013  0.29278  0.94409  1.0000
  C   C169      1.0  0.3549200000000001  0.24548  0.9438699999999998  1.0000
  C   C170      1.0  0.41356000000000004  0.22749999999999998  0.96922  1.0000
  C   C171      1.0  0.43191999999999997  0.2577  0.9944899999999999  1.0000
  C   C172      1.0  0.3923000000000001  0.30585  0.99585  1.0000
  C   C173      1.0  0.4118899999999999  0.33491  0.02527  1.0000
  C   C174      1.0  0.35198  0.4476599999999999  0.06419  1.0000
  C   C175      1.0  0.35799  0.47813999999999995  0.09937  1.0000
  C   C176      1.0  0.27854  0.4887699999999999  0.14089  1.0000
  C   C177      1.0  0.26843  0.44615  0.17109  1.0000
  C   C178      1.0  0.18921000000000013  0.4565  0.21212  1.0000
  C   C179      1.0  0.17861000000000005  0.41283  0.24051999999999996  1.0000
  C   C180      1.0  0.12894000000000008  0.4530299999999999  0.08186  1.0000
  C   C181      1.0  0.07174  0.45271  0.12485999999999998  1.0000
  C   C182      1.0  0.06647999999999998  0.4102699999999999  0.14662  1.0000
  C   C183      1.0  0.12018000000000002  0.36973  0.12343999999999997  1.0000
  C   C184      1.0  0.17646  0.3729199999999999  0.08053  1.0000
  C   C185      1.0  0.000569999999999972  0.40905  0.19139  1.0000
  C   C186      1.0  0.5516900000000003  0.65205  0.81702  1.0000
  C   C187      1.0  0.5910000000000004  0.67666  0.7794699999999998  1.0000
  C   C188      1.0  0.5884699999999999  0.67111  0.73457  1.0000
  C   C189      1.0  0.5474200000000002  0.6404899999999998  0.7252099999999998  1.0000
  C   C190      1.0  0.50779  0.61645  0.76177  1.0000
  C   C191      1.0  0.5079200000000001  0.62173  0.80794  1.0000
  C   C192      1.0  0.46191000000000015  0.59652  0.84468  1.0000
  C   C193      1.0  0.39680000000000004  0.59102  0.9642599999999998  1.0000
  C   C194      1.0  0.3407  0.57168  0.0035399999999999993  1.0000
  C   C195      1.0  0.25155  0.60482  0.01823  1.0000
  C   C196      1.0  0.19561999999999996  0.58507  0.05928  1.0000
  C   C197      1.0  0.10482999999999999  0.6153  0.07338  1.0000
  C   C198      1.0  0.04943000000000005  0.5942499999999998  0.11375999999999999  1.0000
  C   C199      1.0  0.77163  0.41714  0.30314  1.0000
  C   C200      1.0  0.8434  0.41762  0.2676  1.0000
  C   C201      1.0  0.84266  0.4156899999999999  0.22143  1.0000
  C   C202      1.0  0.7687300000000001  0.41247  0.21341  1.0000
  C   C203      1.0  0.6997100000000002  0.41241  0.25078  1.0000
  C   C204      1.0  0.9160100000000001  0.41763  0.18072  1.0000
  C   C205      1.0  0.7365  0.08208999999999998  0.08259  1.0000
  C   C206      1.0  0.76083  0.08073999999999998  0.12381  1.0000
  C   C207      1.0  0.84016  0.05508999999999999  0.12636  1.0000
  C   C208      1.0  0.8981400000000002  0.029549999999999996  0.08801  1.0000
  C   C209      1.0  0.87433  0.02939  0.04773  1.0000
  C   C210      1.0  0.79417  0.05481  0.0442  1.0000
  C   C211      1.0  0.77317  0.0501  0.00134  1.0000
  C   C212      1.0  0.6097799999999999  0.08784  0.95192  1.0000
  C   C213      1.0  0.5790499999999996  0.08153  0.91183  1.0000
  C   C214      1.0  0.56477  0.12514  0.88134  1.0000
  C   C215      1.0  0.6458999999999999  0.13775  0.85628  1.0000
  C   C216      1.0  0.631  0.18282999999999994  0.82828  1.0000
  C   C217      1.0  0.7125300000000001  0.19496999999999998  0.80291  1.0000
  C   C218      1.0  0.8432400000000001  0.03007  0.82451  1.0000
  C   C219      1.0  0.8915400000000001  0.05606999999999999  0.79324  1.0000
  C   C220      1.0  0.8995000000000002  0.05622  0.7459099999999997  1.0000
  C   C221      1.0  0.8588300000000001  0.03081  0.72791  1.0000
  C   C222      1.0  0.8101600000000002  0.00569  0.7581499999999998  1.0000
  C   C223      1.0  0.80167  0.004349999999999998  0.80632  1.0000
  C   C224      1.0  0.7528700000000002  0.97499  0.83529  1.0000
  C   C225      1.0  0.7000500000000003  0.93597  0.94792  1.0000
  C   C226      1.0  0.6638400000000002  0.9006799999999998  0.9782  1.0000
  C   C227      1.0  0.73291  0.85928  0.98872  1.0000
  C   C228      1.0  0.78546  0.8291  0.9460599999999998  1.0000
  C   C229      1.0  0.85423  0.78808  0.9564899999999997  1.0000
  C   C230      1.0  0.9084000000000002  0.75955  0.9128899999999998  1.0000
  C   C231      1.0  0.9177000000000001  0.91811  0.9533099999999998  1.0000
  C   C232      1.0  0.9755299999999999  0.87521  0.9529  1.0000
  C   C233      1.0  0.023269999999999978  0.85356  0.91042  1.0000
  C   C234      1.0  0.009779999999999992  0.87672  0.8699099999999999  1.0000
  C   C235      1.0  0.9500400000000006  0.91952  0.87317  1.0000
  C   C236      1.0  0.09058000000000013  0.80886  0.9090899999999997  1.0000
  C   C237      1.0  0.2954300000000001  0.18309  0.15211  1.0000
  C   C238      1.0  0.23174  0.22068999999999994  0.1768  1.0000
  C   C239      1.0  0.23996000000000003  0.26556  0.17129  1.0000
  C   C240      1.0  0.31147  0.27487  0.14053  1.0000
  C   C241      1.0  0.37491  0.23826  0.11644  1.0000
  C   C242      1.0  0.36942  0.19214  0.12174  1.0000
  C   C243      1.0  0.44073  0.1554  0.09660999999999997  1.0000
  C   C244      1.0  0.51201  0.03585  0.09131  1.0000
  C   C245      1.0  0.5875500000000001  0.9967899999999997  0.07172  1.0000
  C   C246      1.0  0.6438100000000001  0.98183  0.10473999999999999  1.0000
  C   C247      1.0  0.71937  0.94073  0.08492999999999998  1.0000
  C   C248      1.0  0.77988  0.92661  0.11526  1.0000
  C   C249      1.0  0.8563399999999999  0.88618  0.09436  1.0000
  C   C250      1.0  0.3112300000000001  0.69694  0.9169199999999997  1.0000
  C   C251      1.0  0.2391  0.73255  0.91739  1.0000
  C   C252      1.0  0.24196000000000017  0.77868  0.9155  1.0000
  C   C253      1.0  0.31926000000000015  0.78656  0.91216  1.0000
  C   C254      1.0  0.38819  0.74911  0.91216  1.0000
  C   C255      1.0  0.1666699999999999  0.81946  0.91767  1.0000
  C   C256      1.0  0.90103  0.41812  0.41727  1.0000
  C   C257      1.0  0.9657200000000001  0.41897  0.37622  1.0000
  C   C258      1.0  0.021930000000000057  0.44472  0.37357  1.0000
  C   C259      1.0  0.015300000000000006  0.47098999999999996  0.4116  1.0000
  C   C260      1.0  0.9508399999999998  0.47145  0.45176  1.0000
  C   C261      1.0  0.89294  0.44571  0.4554899999999999  1.0000
  C   C262      1.0  0.8247999999999999  0.45027  0.49847999999999987  1.0000
  C   C263      1.0  0.6500000000000001  0.41227  0.54795  1.0000
  C   C264      1.0  0.5729500000000002  0.41863  0.588  1.0000
  C   C265      1.0  0.5715600000000001  0.37505  0.6185  1.0000
  C   C266      1.0  0.64029  0.36244  0.64358  1.0000
  C   C267      1.0  0.64229  0.31733  0.67151  1.0000
  C   C268      1.0  0.7104500000000002  0.30508999999999986  0.6970099999999998  1.0000
  C   C269      1.0  0.6971800000000001  0.4699299999999999  0.67516  1.0000
  C   C270      1.0  0.7407399999999997  0.44407999999999986  0.70624  1.0000
  C   C271      1.0  0.7019599999999999  0.44385  0.75359  1.0000
  C   C272      1.0  0.61806  0.46911999999999987  0.7718  1.0000
  C   C273      1.0  0.57418  0.49438  0.74177  1.0000
  C   C274      1.0  0.6120800000000002  0.4957899999999999  0.6935799999999999  1.0000
  C   C275      1.0  0.5629199999999999  0.52533  0.66474  1.0000
  C   C276      1.0  0.58334  0.56449  0.55217  1.0000
  C   C277      1.0  0.5416799999999998  0.5997699999999999  0.52199  1.0000
  C   C278      1.0  0.57958  0.64132  0.51132  1.0000
  C   C279      1.0  0.5598600000000004  0.67141  0.554  1.0000
  C   C280      1.0  0.59841  0.71233  0.54368  1.0000
  C   C281      1.0  0.5809899999999999  0.7406499999999999  0.58737  1.0000
  C   C282      1.0  0.78837  0.58223  0.5468  1.0000
  C   C283      1.0  0.8027799999999999  0.62519  0.54727  1.0000
  C   C284      1.0  0.7866  0.64679  0.58979  1.0000
  C   C285      1.0  0.7560300000000001  0.62351  0.63026  1.0000
  C   C286      1.0  0.7424  0.58067  0.62691  1.0000
  C   C287      1.0  0.8081500000000001  0.69146  0.59111  1.0000
  C   C288      1.0  0.63085  0.3167399999999999  0.3478899999999999  1.0000
  C   C289      1.0  0.62933  0.27912  0.3232199999999999  1.0000
  C   C290      1.0  0.6769200000000001  0.2343  0.32876  1.0000
  C   C291      1.0  0.7269700000000003  0.22508  0.35955  1.0000
  C   C292      1.0  0.7297200000000004  0.26171  0.38368  1.0000
  C   C293      1.0  0.6834600000000001  0.3077899999999999  0.37827  1.0000
  C   C294      1.0  0.6928299999999998  0.34465  0.40332  1.0000
  C   C295      1.0  0.63873  0.46427  0.4088  1.0000
  C   C296      1.0  0.6554900000000001  0.50347  0.4284  1.0000
  C   C297      1.0  0.72995  0.51831  0.39539999999999986  1.0000
  C   C298      1.0  0.7449000000000001  0.55941  0.41515999999999986  1.0000
  C   C299      1.0  0.82163  0.57348  0.38484  1.0000
  C   C300      1.0  0.8369500000000004  0.6138899999999998  0.4057699999999999  1.0000
  C   C301      1.0  0.92546  0.80311  0.5833  1.0000
  C   C302      1.0  0.8893000000000001  0.76752  0.58268  1.0000
  C   C303      1.0  0.9361699999999998  0.72138  0.5845  1.0000
  C   C304      1.0  0.018020000000000137  0.71343  0.5878099999999998  1.0000
  C   C305      1.0  0.04961000000000001  0.75087  0.58799  1.0000
  C   C306      1.0  0.9034300000000003  0.6807  0.58236  1.0000
  C   C307      1.0  0.31793000000000005  0.08305  0.41779  1.0000
  C   C308      1.0  0.34127  0.12423  0.4187  1.0000
  C   C309      1.0  0.39485  0.127  0.4444  1.0000
  C   C310      1.0  0.42688  0.08885  0.47029  1.0000
  C   C311      1.0  0.40259  0.04863  0.47079  1.0000
  C   C312      1.0  0.34802  0.04488  0.44533  1.0000
  C   C313      1.0  0.32236  0.00201  0.4501  1.0000
  C   C314      1.0  0.19781000000000004  0.95202  0.41208  1.0000
  C   C315      1.0  0.16072  0.91199  0.41849  1.0000
  C   C316      1.0  0.19006000000000006  0.8815  0.3748699999999999  1.0000
  C   C317      1.0  0.28377  0.8564999999999999  0.36241  1.0000
  C   C318      1.0  0.31375999999999993  0.82846  0.31734  1.0000
  C   C319      1.0  0.40732000000000007  0.8029899999999999  0.30516  1.0000
  C   C320      1.0  0.37279000000000007  0.82518  0.46972  1.0000
  C   C321      1.0  0.44730000000000003  0.7940399999999999  0.4438799999999999  1.0000
  C   C322      1.0  0.45585000000000003  0.74668  0.44366  1.0000
  C   C323      1.0  0.39010000000000006  0.72844  0.46887  1.0000
  C   C324      1.0  0.3161699999999999  0.75849  0.49403  1.0000
  C   C325      1.0  0.30598000000000003  0.80669  0.49547999999999986  1.0000
  C   C326      1.0  0.22794000000000003  0.83539  0.52505  1.0000
  C   C327      1.0  0.1354700000000001  0.94782  0.56445  1.0000
  C   C328      1.0  0.06386000000000012  0.97803  0.5997199999999998  1.0000
  C   C329      1.0  0.09139000000000014  0.98874  0.6411499999999998  1.0000
  C   C330      1.0  0.11415000000000006  0.94611  0.6712799999999998  1.0000
  C   C331      1.0  0.14229000000000006  0.95649  0.71224  1.0000
  C   C332      1.0  0.16827000000000011  0.91282  0.7405999999999998  1.0000
  C   C333      1.0  0.3353800000000001  0.95359  0.58207  1.0000
  C   C334      1.0  0.3503699999999999  0.95302  0.62501  1.0000
  C   C335      1.0  0.37654000000000004  0.91045  0.6464799999999998  1.0000
  C   C336      1.0  0.38619  0.87004  0.62312  1.0000
  C   C337      1.0  0.36916  0.87349  0.5802899999999999  1.0000
  C   C338      1.0  0.3994000000000002  0.90896  0.69117  1.0000
  C   C339      1.0  0.9776800000000001  0.15221  0.31681999999999994  1.0000
  C   C340      1.0  0.9513900000000001  0.177  0.2793099999999999  1.0000
  C   C341      1.0  0.0043200000000000235  0.17166  0.23441999999999996  1.0000
  C   C342      1.0  0.08520000000000004  0.14099999999999996  0.22502  1.0000
  C   C343      1.0  0.11226  0.11678  0.26154  1.0000
  C   C344      1.0  0.06076000000000001  0.12192999999999997  0.30769  1.0000
  C   C345      1.0  0.09550000000000003  0.09673  0.34437  1.0000
  C   C346      1.0  0.04793000000000004  0.09133  0.46394999999999986  1.0000
  C   C347      1.0  0.08443000000000003  0.07175  0.50305  1.0000
  C   C348      1.0  0.12562000000000006  0.10478999999999997  0.51813  1.0000
  C   C349      1.0  0.16007000000000013  0.08493  0.5592499999999998  1.0000
  C   C350      1.0  0.20644000000000004  0.11523999999999997  0.57347  1.0000
  C   C351      1.0  0.24261000000000005  0.09435999999999999  0.6138799999999999  1.0000
  C   C352      1.0  0.5082900000000002  0.9168999999999998  0.80312  1.0000
  C   C353      1.0  0.47170999999999985  0.91743  0.76746  1.0000
  C   C354      1.0  0.5205800000000002  0.91556  0.72135  1.0000
  C   C355      1.0  0.6056899999999998  0.91229  0.7135  1.0000
  C   C356      1.0  0.6372500000000003  0.91222  0.7509999999999999  1.0000
  C   C357      1.0  0.4860100000000001  0.91762  0.68055  1.0000
  C   C358      1.0  0.81874  0.41821999999999987  0.08213999999999998  1.0000
  C   C359      1.0  0.8837800000000003  0.3769  0.08096999999999999  1.0000
  C   C360      1.0  0.96566  0.37402  0.055089999999999986  1.0000
  C   C361      1.0  0.98564  0.4121699999999999  0.02926  1.0000
  C   C362      1.0  0.92194  0.45255  0.028999999999999998  1.0000
  C   C363      1.0  0.8383100000000001  0.45637  0.05465  1.0000
  C   C364      1.0  0.7745599999999999  0.4992  0.04996  1.0000
  C   C365      1.0  0.56165  0.54843  0.08762  1.0000
  C   C366      1.0  0.4910400000000001  0.58843  0.08118  1.0000
  C   C367      1.0  0.44618  0.61877  0.12488999999999997  1.0000
  C   C368      1.0  0.5024700000000001  0.64372  0.13753  1.0000
  C   C369      1.0  0.45955  0.67161  0.18268  1.0000
  C   C370      1.0  0.5155  0.69708  0.19495999999999994  1.0000
  C   C371      1.0  0.66706  0.67597  0.03004  1.0000
  C   C372      1.0  0.6844700000000001  0.70722  0.05591  1.0000
  C   C373      1.0  0.6450800000000001  0.7545199999999997  0.05614  1.0000
  C   C374      1.0  0.5864400000000001  0.7724999999999999  0.03077999999999999  1.0000
  C   C375      1.0  0.5680700000000002  0.7422999999999998  0.00551  1.0000
  C   C376      1.0  0.6077000000000001  0.6941399999999999  0.00415  1.0000
  C   C377      1.0  0.58811  0.66508  0.9747399999999999  1.0000
  C   C378      1.0  0.64802  0.55234  0.9358099999999998  1.0000
  C   C379      1.0  0.6419999999999998  0.52186  0.9006399999999998  1.0000
  C   C380      1.0  0.72146  0.51123  0.85912  1.0000
  C   C381      1.0  0.7315600000000002  0.55385  0.82891  1.0000
  C   C382      1.0  0.81079  0.5435  0.78789  1.0000
  C   C383      1.0  0.82139  0.5871599999999998  0.7594799999999999  1.0000
  C   C384      1.0  0.87106  0.54697  0.9181499999999998  1.0000
  C   C385      1.0  0.9282500000000001  0.54729  0.87514  1.0000
  C   C386      1.0  0.93352  0.58973  0.85338  1.0000
  C   C387      1.0  0.8798099999999999  0.63027  0.87657  1.0000
  C   C388      1.0  0.82354  0.62708  0.9194799999999999  1.0000
  C   C389      1.0  0.9994299999999999  0.59095  0.80861  1.0000
  C   C390      1.0  0.44831000000000004  0.3479499999999999  0.18298  1.0000
  C   C391      1.0  0.409  0.32334  0.22052999999999995  1.0000
  C   C392      1.0  0.41153000000000006  0.32889  0.26544  1.0000
  C   C393      1.0  0.4525700000000001  0.3595099999999999  0.2748  1.0000
  C   C394      1.0  0.49220000000000014  0.3835499999999999  0.23823  1.0000
  C   C395      1.0  0.49207000000000006  0.37825999999999993  0.19205999999999995  1.0000
  C   C396      1.0  0.53809  0.40348  0.15532  1.0000
  C   C397      1.0  0.6032  0.40898  0.035739999999999994  1.0000
  C   C398      1.0  0.6593000000000004  0.42832  0.99647  1.0000
  C   C399      1.0  0.74844  0.3951799999999999  0.98178  1.0000
  C   C400      1.0  0.80437  0.41493  0.9407199999999998  1.0000
  C   C401      1.0  0.8951700000000001  0.3847  0.9266299999999997  1.0000
  C   C402      1.0  0.95057  0.4057399999999999  0.8862499999999999  1.0000
  C   C403      1.0  0.22836999999999988  0.58286  0.69687  1.0000
  C   C404      1.0  0.15659  0.58238  0.7324  1.0000
  C   C405      1.0  0.1573300000000001  0.58431  0.7785799999999998  1.0000
  C   C406      1.0  0.23127000000000003  0.58753  0.7866  1.0000
  C   C407      1.0  0.30029  0.58759  0.74922  1.0000
  C   C408      1.0  0.08399000000000004  0.58237  0.81929  1.0000
  N   N1        1.0  0.3032100000000001  0.9272899999999997  0.00326  1.0000
  N   N2        1.0  0.31612  0.93688  0.04494  1.0000
  N   N3        1.0  0.25471  0.02852  0.11896999999999998  1.0000
  N   N4        1.0  0.29597000000000007  0.06130999999999999  0.09648  1.0000
  N   N5        1.0  0.09527  0.05992  0.08585  1.0000
  N   N6        1.0  0.5613000000000002  0.88891  0.8977399999999998  1.0000
  N   N7        1.0  0.48764  0.92113  0.92183  1.0000
  N   N8        1.0  0.61531  0.29524  0.08514  1.0000
  N   N9        1.0  0.23353999999999997  0.57241  0.4969199999999999  1.0000
  N   N10       1.0  0.29763  0.56283  0.45529  1.0000
  N   N11       1.0  0.4024300000000002  0.4709499999999999  0.38096999999999986  1.0000
  N   N12       1.0  0.4539800000000001  0.43817  0.4034099999999999  1.0000
  N   N13       1.0  0.24154000000000003  0.43986  0.4140899999999999  1.0000
  N   N14       1.0  0.34771999999999986  0.61105  0.60246  1.0000
  N   N15       1.0  0.33079000000000003  0.57873  0.57817  1.0000
  N   N16       1.0  0.9953900000000001  0.20476999999999998  0.41454999999999986  1.0000
  N   N17       1.0  0.7309500000000001  0.0028399999999999996  0.5727499999999998  1.0000
  N   N18       1.0  0.75355  0.04445  0.56285  1.0000
  N   N19       1.0  0.7834800000000002  0.11884999999999998  0.4713199999999999  1.0000
  N   N20       1.0  0.8574100000000001  0.09659  0.4383999999999999  1.0000
  N   N21       1.0  0.6556100000000002  0.08547  0.4401199999999999  1.0000
  N   N22       1.0  0.9504999999999999  0.8975  0.61126  1.0000
  N   N23       1.0  0.9089499999999999  0.92176  0.57911  1.0000
  N   N24       1.0  0.41045  0.08520999999999998  0.20466  1.0000
  N   N25       1.0  0.30639  0.49608  0.9272  1.0000
  N   N26       1.0  0.3610300000000001  0.45458  0.93694  1.0000
  N   N27       1.0  0.37333  0.38061  0.028959999999999996  1.0000
  N   N28       1.0  0.3920100000000002  0.40323999999999993  0.06171999999999998  1.0000
  N   N29       1.0  0.18088000000000004  0.4138399999999999  0.05987999999999999  1.0000
  N   N30       1.0  0.45841000000000004  0.60219  0.8889999999999998  1.0000
  N   N31       1.0  0.40910000000000013  0.57796  0.92127  1.0000
  N   N32       1.0  0.70036  0.41501  0.29516999999999993  1.0000
  N   N33       1.0  0.69678  0.07270999999999997  0.99675  1.0000
  N   N34       1.0  0.68388  0.06312  0.95507  1.0000
  N   N35       1.0  0.74528  0.97148  0.88104  1.0000
  N   N36       1.0  0.7040200000000003  0.93869  0.90353  1.0000
  N   N37       1.0  0.9047200000000001  0.9400799999999998  0.9141499999999998  1.0000
  N   N38       1.0  0.4386999999999999  0.11109  0.10226999999999999  1.0000
  N   N39       1.0  0.51235  0.07887  0.07817999999999997  1.0000
  N   N40       1.0  0.38468000000000013  0.7047599999999998  0.91487  1.0000
  N   N41       1.0  0.76645  0.42759  0.50308  1.0000
  N   N42       1.0  0.70237  0.43716999999999995  0.54472  1.0000
  N   N43       1.0  0.5975600000000002  0.52905  0.61903  1.0000
  N   N44       1.0  0.5460100000000002  0.56183  0.5965899999999997  1.0000
  N   N45       1.0  0.7584500000000003  0.56014  0.5859099999999998  1.0000
  N   N46       1.0  0.6522800000000002  0.3889499999999999  0.39755  1.0000
  N   N47       1.0  0.66921  0.42127  0.42183  1.0000
  N   N48       1.0  0.004609999999999956  0.79523  0.58545  1.0000
  N   N49       1.0  0.2690400000000004  0.9971599999999998  0.4272599999999999  1.0000
  N   N50       1.0  0.24644999999999997  0.95555  0.4371499999999999  1.0000
  N   N51       1.0  0.21652000000000024  0.8811499999999998  0.52869  1.0000
  N   N52       1.0  0.14259000000000002  0.90341  0.5616  1.0000
  N   N53       1.0  0.3443900000000001  0.91453  0.5598799999999998  1.0000
  N   N54       1.0  0.04949999999999998  0.1025  0.38875  1.0000
  N   N55       1.0  0.09105000000000003  0.07824  0.42089  1.0000
  N   N56       1.0  0.5895499999999999  0.91479  0.79534  1.0000
  N   N57       1.0  0.6936  0.50392  0.0728  1.0000
  N   N58       1.0  0.6389599999999999  0.54542  0.06306  1.0000
  N   N59       1.0  0.62667  0.6193899999999999  0.97104  1.0000
  N   N60       1.0  0.6079900000000001  0.59676  0.9382799999999998  1.0000
  N   N61       1.0  0.81911  0.58615  0.9401299999999998  1.0000
  N   N62       1.0  0.5415900000000002  0.3978099999999999  0.111  1.0000
  N   N63       1.0  0.5908900000000002  0.42203999999999997  0.07872999999999997  1.0000
  N   N64       1.0  0.29964  0.58499  0.7048299999999997  1.0000
  O   O1        1.0  0.33950000000000014  0.89076  0.9176099999999998  1.0000
  O   O2        1.0  0.1724000000000001  0.97695  0.03111  1.0000
  O   O3        1.0  0.44005000000000016  0.88175  0.01571  1.0000
  O   O4        1.0  0.15994000000000008  0.9686599999999999  0.13081  1.0000
  O   O5        1.0  0.28111  0.04861999999999999  0.18379  1.0000
  O   O6        1.0  0.26906  0.03758999999999999  0.033519999999999994  1.0000
  O   O7        1.0  0.7188000000000002  0.85847  0.8413399999999998  1.0000
  O   O8        1.0  0.49299000000000004  0.83441  0.9304599999999998  1.0000
  O   O9        1.0  0.5510800000000003  0.97319  0.8774799999999999  1.0000
  O   O10       1.0  0.14823000000000017  0.60899  0.5824799999999998  1.0000
  O   O11       1.0  0.18009000000000008  0.52282  0.4689599999999999  1.0000
  O   O12       1.0  0.33666  0.61834  0.48431999999999986  1.0000
  O   O13       1.0  0.26087000000000005  0.53163  0.36964999999999987  1.0000
  O   O14       1.0  0.51362  0.45118999999999987  0.31609  1.0000
  O   O15       1.0  0.34085000000000015  0.4619899999999999  0.46649999999999997  1.0000
  O   O16       1.0  0.41822000000000015  0.64175  0.6587199999999998  1.0000
  O   O17       1.0  0.2580100000000002  0.6654699999999998  0.56948  1.0000
  O   O18       1.0  0.4022899999999999  0.52679  0.62242  1.0000
  O   O19       1.0  0.7307600000000003  0.91745  0.60939  1.0000
  O   O20       1.0  0.6509000000000003  0.03023  0.52253  1.0000
  O   O21       1.0  0.8205500000000001  0.01597  0.61881  1.0000
  O   O22       1.0  0.62947  0.13005  0.53167  1.0000
  O   O23       1.0  0.8292000000000002  0.1839  0.45133  1.0000
  O   O24       1.0  0.80759  0.03343  0.46202  1.0000
  O   O25       1.0  0.07801  0.84142  0.64161  1.0000
  O   O26       1.0  0.8282400000000001  0.93052  0.6658899999999998  1.0000
  O   O27       1.0  0.024150000000000102  0.8774499999999997  0.52691  1.0000
  O   O28       1.0  0.2575200000000001  0.58112  0.8906099999999998  1.0000
  O   O29       1.0  0.20338000000000014  0.46862  0.9774199999999997  1.0000
  O   O30       1.0  0.45599000000000006  0.48387  0.88189  1.0000
  O   O31       1.0  0.29229000000000016  0.36875  0.9683799999999998  1.0000
  O   O32       1.0  0.4651700000000001  0.31595999999999996  0.048699999999999986  1.0000
  O   O33       1.0  0.30288000000000004  0.46618  0.03757999999999999  1.0000
  O   O34       1.0  0.5592600000000001  0.65865  0.8585999999999998  1.0000
  O   O35       1.0  0.42282000000000036  0.5693699999999998  0.8344799999999999  1.0000
  O   O36       1.0  0.42922000000000016  0.62212  0.9731799999999999  1.0000
  O   O37       1.0  0.66049  0.10923999999999998  0.0824  1.0000
  O   O38       1.0  0.82759  0.02305  0.9689  1.0000
  O   O39       1.0  0.55995  0.11825  0.98429  1.0000
  O   O40       1.0  0.8400600000000001  0.03134  0.8691999999999998  1.0000
  O   O41       1.0  0.71888  0.95138  0.8162199999999997  1.0000
  O   O42       1.0  0.7309400000000003  0.96241  0.9664799999999998  1.0000
  O   O43       1.0  0.28119999999999995  0.14153  0.15867  1.0000
  O   O44       1.0  0.507  0.16559  0.06954  1.0000
  O   O45       1.0  0.44892  0.026809999999999994  0.12253  1.0000
  O   O46       1.0  0.8517600000000001  0.39101  0.4175199999999999  1.0000
  O   O47       1.0  0.81991  0.47717999999999994  0.53104  1.0000
  O   O48       1.0  0.6633300000000003  0.38166  0.51568  1.0000
  O   O49       1.0  0.7391300000000001  0.46836999999999995  0.63036  1.0000
  O   O50       1.0  0.48638000000000015  0.54881  0.68391  1.0000
  O   O51       1.0  0.6591500000000002  0.53801  0.5335  1.0000
  O   O52       1.0  0.5817700000000001  0.35825  0.34127999999999986  1.0000
  O   O53       1.0  0.7419900000000001  0.3345299999999999  0.4305199999999999  1.0000
  O   O54       1.0  0.5977  0.47321  0.37758  1.0000
  O   O55       1.0  0.26924  0.08254999999999998  0.39062  1.0000
  O   O56       1.0  0.3491  0.96976  0.4774699999999999  1.0000
  O   O57       1.0  0.17945000000000008  0.98403  0.38119  1.0000
  O   O58       1.0  0.37052000000000024  0.86995  0.46833999999999987  1.0000
  O   O59       1.0  0.17079000000000016  0.8161  0.54867  1.0000
  O   O60       1.0  0.1924  0.9665699999999998  0.53798  1.0000
  O   O61       1.0  0.92198  0.15858  0.35838999999999993  1.0000
  O   O62       1.0  0.1717500000000001  0.06948  0.33411  1.0000
  O   O63       1.0  0.9758399999999999  0.12255  0.4731  1.0000
  O   O64       1.0  0.7424700000000001  0.41888  0.10939999999999997  1.0000
  O   O65       1.0  0.79662  0.53138  0.02259  1.0000
  O   O66       1.0  0.5440100000000001  0.51613  0.11810999999999998  1.0000
  O   O67       1.0  0.7077100000000001  0.63125  0.03163  1.0000
  O   O68       1.0  0.5348300000000001  0.68403  0.9513  1.0000
  O   O69       1.0  0.69712  0.53381  0.9624199999999998  1.0000
  O   O70       1.0  0.4407400000000001  0.34135  0.1414  1.0000
  O   O71       1.0  0.57718  0.43063  0.16552  1.0000
  O   O72       1.0  0.57077  0.37788  0.026819999999999993  1.0000
