data_image0
_chemical_formula_structural       In24H192C340O112
_chemical_formula_sum              "In24 H192 C340 O112"
_cell_length_a       21.82786
_cell_length_b       21.84411
_cell_length_c       38.83914
_cell_angle_alpha    89.72883
_cell_angle_beta     89.97076999999999
_cell_angle_gamma    89.94229

_symmetry_space_group_name_H-M    'P 1'
_symmetry_Int_Tables_number       1

loop_
  _symmetry_equiv_pos_as_xyz
  'x,y,z'

loop_
  _atom_site_type_symbol
  _atom_site_label
  _atom_site_symmetry_multiplicity
  _atom_site_fract_x
  _atom_site_fract_y
  _atom_site_fract_z
  _atom_site_occupancy
  In  In1       1.0  0.00323  0.7337899999999999  0.84176  1.0000
  In  In2       1.0  0.00031000000000000016  0.66771  0.76156  1.0000
  In  In3       1.0  0.48327000000000003  0.32671  0.98339  1.0000
  In  In4       1.0  0.9967200000000002  0.26578  0.34101  1.0000
  In  In5       1.0  0.9993700000000001  0.33227  0.26098  1.0000
  In  In6       1.0  0.51673  0.6688  0.48233999999999994  1.0000
  In  In7       1.0  0.7686  0.5024  0.59021  1.0000
  In  In8       1.0  0.83548  0.49978999999999996  0.51119  1.0000
  In  In9       1.0  0.17503  0.9816  0.7326  1.0000
  In  In10      1.0  0.23766  0.49586  0.08997  1.0000
  In  In11      1.0  0.17081  0.49937  0.01003  1.0000
  In  In12      1.0  0.8317200000000001  0.01596  0.23285  1.0000
  In  In13      1.0  0.49808  0.23396  0.91125  1.0000
  In  In14      1.0  0.49991  0.16693000000000002  0.9904099999999999  1.0000
  In  In15      1.0  0.0173  0.83036  0.76839  1.0000
  In  In16      1.0  0.50258  0.7640500000000001  0.40941  1.0000
  In  In17      1.0  0.5001600000000002  0.8303799999999999  0.48940999999999996  1.0000
  In  In18      1.0  0.983  0.17247  0.26841  1.0000
  In  In19      1.0  0.73626  0.001980000000000001  0.16009  1.0000
  In  In20      1.0  0.66951  0.00012000000000000011  0.24013999999999996  1.0000
  In  In21      1.0  0.33154  0.48364  0.01693  1.0000
  In  In22      1.0  0.26831  0.99696  0.6599  1.0000
  In  In23      1.0  0.3355  3.000000000000114e-05  0.7389499999999999  1.0000
  In  In24      1.0  0.67546  0.51732  0.51776  1.0000
  H   H1        1.0  0.8807100000000001  0.60797  0.8912699999999999  1.0000
  H   H2        1.0  0.80081  0.53852  0.9146800000000002  1.0000
  H   H3        1.0  0.7580400000000002  0.48014  0.81168  1.0000
  H   H4        1.0  0.84089  0.54712  0.7888499999999999  1.0000
  H   H5        1.0  0.6998900000000001  0.52798  0.9198800000000001  1.0000
  H   H6        1.0  0.61782  0.46178  0.9442799999999999  1.0000
  H   H7        1.0  0.65049  0.32925  0.86522  1.0000
  H   H8        1.0  0.7345300000000001  0.39349  0.8414499999999999  1.0000
  H   H9        1.0  0.13269  0.92579  0.82259  1.0000
  H   H10       1.0  0.21539  0.99451  0.8430099999999999  1.0000
  H   H11       1.0  0.24168000000000003  0.87826  0.9318399999999999  1.0000
  H   H12       1.0  0.15661  0.81166  0.91209  1.0000
  H   H13       1.0  0.31741  0.00188  0.84916  1.0000
  H   H14       1.0  0.39407  0.07833  0.8688099999999999  1.0000
  H   H15       1.0  0.34346  0.0439  0.9740000000000001  1.0000
  H   H16       1.0  0.26283  0.97141  0.95455  1.0000
  H   H17       1.0  0.85893  0.65365  0.68238  1.0000
  H   H18       1.0  0.7878700000000001  0.66407  0.63282  1.0000
  H   H19       1.0  0.82431  0.85792  0.62928  1.0000
  H   H20       1.0  0.8973200000000001  0.8461600000000001  0.6783099999999999  1.0000
  H   H21       1.0  0.78173  0.68543  0.57366  1.0000
  H   H22       1.0  0.6961900000000001  0.6894  0.53161  1.0000
  H   H23       1.0  0.63177  0.85659  0.57709  1.0000
  H   H24       1.0  0.71622  0.8517599999999999  0.62009  1.0000
  H   H25       1.0  0.11881000000000001  0.39352999999999994  0.38923  1.0000
  H   H26       1.0  0.19767  0.46466999999999997  0.41168  1.0000
  H   H27       1.0  0.24053000000000002  0.52052  0.30795  1.0000
  H   H28       1.0  0.15852  0.45217  0.28598  1.0000
  H   H29       1.0  0.29681  0.47674  0.4174  1.0000
  H   H30       1.0  0.3779  0.54455  0.44114999999999993  1.0000
  H   H31       1.0  0.34782  0.6729  0.35912  1.0000
  H   H32       1.0  0.26419  0.60752  0.336  1.0000
  H   H33       1.0  0.87115  0.07214  0.3232  1.0000
  H   H34       1.0  0.7882600000000001  0.003480000000000001  0.34329  1.0000
  H   H35       1.0  0.75909  0.11975  0.43123  1.0000
  H   H36       1.0  0.8438000000000001  0.18722999999999998  0.41147  1.0000
  H   H37       1.0  0.68361  0.9998499999999999  0.34836  1.0000
  H   H38       1.0  0.60573  0.92365  0.36722  1.0000
  H   H39       1.0  0.65741  0.95126  0.47267999999999993  1.0000
  H   H40       1.0  0.7389700000000001  0.02386  0.45395  1.0000
  H   H41       1.0  0.14032  0.34202  0.18304  1.0000
  H   H42       1.0  0.21209000000000003  0.33426  0.13392  1.0000
  H   H43       1.0  0.17812  0.13995  0.12928  1.0000
  H   H44       1.0  0.10497000000000001  0.149  0.17817  1.0000
  H   H45       1.0  0.22149000000000002  0.31537  0.07447999999999999  1.0000
  H   H46       1.0  0.30554000000000003  0.31056  0.03159  1.0000
  H   H47       1.0  0.36749  0.14083  0.07626  1.0000
  H   H48       1.0  0.28446  0.14625  0.11984  1.0000
  H   H49       1.0  0.89396  0.38023  0.64114  1.0000
  H   H50       1.0  0.9626000000000001  0.29961  0.66456  1.0000
  H   H51       1.0  0.02108  0.25639  0.56155  1.0000
  H   H52       1.0  0.95495  0.33987  0.53864  1.0000
  H   H53       1.0  0.97343  0.19826000000000002  0.67003  1.0000
  H   H54       1.0  0.04003  0.11603  0.6941  1.0000
  H   H55       1.0  0.17208  0.14917  0.6143699999999999  1.0000
  H   H56       1.0  0.10759  0.23348999999999998  0.59098  1.0000
  H   H57       1.0  0.57143  0.62723  0.57242  1.0000
  H   H58       1.0  0.50288  0.70953  0.59305  1.0000
  H   H59       1.0  0.6223100000000001  0.73875  0.6799  1.0000
  H   H60       1.0  0.68938  0.6543  0.65977  1.0000
  H   H61       1.0  0.49964  0.81397  0.59762  1.0000
  H   H62       1.0  0.42501  0.89295  0.6168  1.0000
  H   H63       1.0  0.4564  0.84206  0.72228  1.0000
  H   H64       1.0  0.52767  0.75973  0.70332  1.0000
  H   H65       1.0  0.8425  0.3604  0.43309  1.0000
  H   H66       1.0  0.83435  0.28863  0.38411  1.0000
  H   H67       1.0  0.64024  0.32400999999999996  0.37875  1.0000
  H   H68       1.0  0.6496  0.39738  0.42733  1.0000
  H   H69       1.0  0.8154500000000001  0.2817  0.3247  1.0000
  H   H70       1.0  0.81215  0.19779  0.28186  1.0000
  H   H71       1.0  0.64312  0.13337  0.32572  1.0000
  H   H72       1.0  0.64697  0.21624999999999997  0.36933999999999995  1.0000
  H   H73       1.0  0.10848  0.61681  0.13946  1.0000
  H   H74       1.0  0.037610000000000005  0.69562  0.16231999999999996  1.0000
  H   H75       1.0  0.9812900000000002  0.7397  0.05884  1.0000
  H   H76       1.0  0.04957  0.65779  0.03654  1.0000
  H   H77       1.0  0.024170000000000004  0.79428  0.16868  1.0000
  H   H78       1.0  0.9564400000000001  0.87523  0.1925  1.0000
  H   H79       1.0  0.82907  0.84738  0.11012  1.0000
  H   H80       1.0  0.8944500000000001  0.7638700000000002  0.08695  1.0000
  H   H81       1.0  0.42016  0.36736  0.07318  1.0000
  H   H82       1.0  0.49114  0.28573  0.09283  1.0000
  H   H83       1.0  0.38065  0.25874  0.18374  1.0000
  H   H84       1.0  0.31245  0.34378  0.16506  1.0000
  H   H85       1.0  0.49995000000000006  0.18376  0.09908  1.0000
  H   H86       1.0  0.57645  0.10601  0.11781  1.0000
  H   H87       1.0  0.54632  0.15487  0.2234  1.0000
  H   H88       1.0  0.47396000000000005  0.23673  0.20488  1.0000
  H   H89       1.0  0.15563  0.6414  0.93104  1.0000
  H   H90       1.0  0.16518  0.71373  0.8819199999999999  1.0000
  H   H91       1.0  0.35913  0.67653  0.87746  1.0000
  H   H92       1.0  0.34823  0.60265  0.92623  1.0000
  H   H93       1.0  0.18529  0.72288  0.82272  1.0000
  H   H94       1.0  0.19130000000000003  0.80832  0.78037  1.0000
  H   H95       1.0  0.36058000000000007  0.86776  0.8259099999999999  1.0000
  H   H96       1.0  0.35391  0.78337  0.8689599999999998  1.0000
  H   H97       1.0  0.61913  0.10544000000000002  0.8608299999999999  1.0000
  H   H98       1.0  0.69765  0.03353  0.8386700000000001  1.0000
  H   H99       1.0  0.73991  0.9785  0.94264  1.0000
  H   H100      1.0  0.65808  0.04756  0.96428  1.0000
  H   H101      1.0  0.7960100000000001  0.020249999999999997  0.83272  1.0000
  H   H102      1.0  0.8770600000000001  0.9520399999999999  0.80926  1.0000
  H   H103      1.0  0.8483800000000001  0.82583  0.89253  1.0000
  H   H104      1.0  0.76443  0.89136  0.9152  1.0000
  H   H105      1.0  0.37370000000000003  0.4284700000000001  0.9276899999999999  1.0000
  H   H106      1.0  0.29081  0.49683  0.90723  1.0000
  H   H107      1.0  0.26135  0.37864000000000003  0.82015  1.0000
  H   H108      1.0  0.34614  0.3115  0.8402599999999999  1.0000
  H   H109      1.0  0.18565000000000004  0.49846  0.90285  1.0000
  H   H110      1.0  0.10597  0.57307  0.8842  1.0000
  H   H111      1.0  0.1566  0.54556  0.77855  1.0000
  H   H112      1.0  0.23966000000000004  0.47434999999999994  0.7970099999999999  1.0000
  H   H113      1.0  0.6402  0.15771  0.06858  1.0000
  H   H114      1.0  0.71274  0.16587  0.11734999999999998  1.0000
  H   H115      1.0  0.6771  0.3599  0.12233  1.0000
  H   H116      1.0  0.6029800000000001  0.35042  0.07392  1.0000
  H   H117      1.0  0.72237  0.18465  0.17651  1.0000
  H   H118      1.0  0.80709  0.18963999999999998  0.21903999999999998  1.0000
  H   H119      1.0  0.86747  0.35975  0.17428  1.0000
  H   H120      1.0  0.7838  0.35414  0.13106  1.0000
  H   H121      1.0  0.38066  0.89159  0.36043  1.0000
  H   H122      1.0  0.30113  0.96139  0.33689  1.0000
  H   H123      1.0  0.25819  0.02049  0.43977  1.0000
  H   H124      1.0  0.34073  0.95315  0.46273999999999993  1.0000
  H   H125      1.0  0.20111  0.97308  0.33125  1.0000
  H   H126      1.0  0.11888  0.03927  0.30695  1.0000
  H   H127      1.0  0.15068  0.17124  0.38639  1.0000
  H   H128      1.0  0.23482  0.10693  0.41007999999999994  1.0000
  H   H129      1.0  0.63062  0.57986  0.42641999999999997  1.0000
  H   H130      1.0  0.71343  0.50991  0.40767  1.0000
  H   H131      1.0  0.74022  0.62012  0.31642  1.0000
  H   H132      1.0  0.65422  0.68744  0.3343  1.0000
  H   H133      1.0  0.81608  0.50258  0.40203999999999995  1.0000
  H   H134      1.0  0.89344  0.42538  0.38429  1.0000
  H   H135      1.0  0.84397  0.45250999999999997  0.2783  1.0000
  H   H136      1.0  0.76271  0.52585  0.29591  1.0000
  H   H137      1.0  0.35912  0.8433000000000002  0.568  1.0000
  H   H138      1.0  0.28779  0.8333  0.61747  1.0000
  H   H139      1.0  0.3226  0.63902  0.6206  1.0000
  H   H140      1.0  0.3958400000000001  0.65038  0.5716  1.0000
  H   H141      1.0  0.28174  0.81239  0.67618  1.0000
  H   H142      1.0  0.19647  0.8096100000000002  0.71847  1.0000
  H   H143      1.0  0.13112  0.64205  0.67408  1.0000
  H   H144      1.0  0.21503000000000003  0.64588  0.63065  1.0000
  H   H145      1.0  0.60657  0.88225  0.11074  1.0000
  H   H146      1.0  0.5352  0.80379  0.08808  1.0000
  H   H147      1.0  0.48125  0.7584  0.19179999999999997  1.0000
  H   H148      1.0  0.55001  0.84  0.21391999999999997  1.0000
  H   H149      1.0  0.52404  0.70463  0.08206  1.0000
  H   H150      1.0  0.45779000000000003  0.62219  0.058629999999999995  1.0000
  H   H151      1.0  0.32986000000000004  0.6493  0.14093  1.0000
  H   H152      1.0  0.39388  0.73406  0.16379  1.0000
  H   H153      1.0  0.9241200000000002  0.1316  0.17743  1.0000
  H   H154      1.0  0.9936  0.21402  0.15723  1.0000
  H   H155      1.0  0.87979  0.24074  0.06768  1.0000
  H   H156      1.0  0.8126600000000002  0.15563  0.08709  1.0000
  H   H157      1.0  0.00295  0.3156  0.15071999999999997  1.0000
  H   H158      1.0  0.08001000000000001  0.39184  0.1311  1.0000
  H   H159      1.0  0.04597  0.34297  0.0259  1.0000
  H   H160      1.0  0.9728200000000002  0.26265  0.04527  1.0000
  H   H161      1.0  0.65403  0.85728  0.31918  1.0000
  H   H162      1.0  0.6646800000000002  0.78423  0.36774  1.0000
  H   H163      1.0  0.8583900000000001  0.8225400000000002  0.37179  1.0000
  H   H164      1.0  0.8463800000000001  0.89724  0.32348  1.0000
  H   H165      1.0  0.68502  0.77538  0.42667  1.0000
  H   H166      1.0  0.69173  0.69036  0.4692299999999999  1.0000
  H   H167      1.0  0.8617200000000002  0.63179  0.4239  1.0000
  H   H168      1.0  0.85428  0.71571  0.38055  1.0000
  H   H169      1.0  0.39202  0.12162  0.60963  1.0000
  H   H170      1.0  0.46169  0.20135999999999998  0.58628  1.0000
  H   H171      1.0  0.52151  0.24256  0.68927  1.0000
  H   H172      1.0  0.45455000000000007  0.15973  0.71205  1.0000
  H   H173      1.0  0.47373  0.30203  0.58096  1.0000
  H   H174      1.0  0.54082  0.38373  0.5569  1.0000
  H   H175      1.0  0.67282  0.34921  0.63642  1.0000
  H   H176      1.0  0.60776  0.26549  0.65986  1.0000
  H   H177      1.0  0.07373  0.8714199999999999  0.67785  1.0000
  H   H178      1.0  0.004659999999999999  0.7895299999999998  0.65745  1.0000
  H   H179      1.0  0.12166  0.76166  0.56932  1.0000
  H   H180      1.0  0.18948  0.84535  0.58941  1.0000
  H   H181      1.0  0.00031000000000000016  0.68556  0.65213  1.0000
  H   H182      1.0  0.9249200000000001  0.60747  0.63312  1.0000
  H   H183      1.0  0.95467  0.65954  0.52764  1.0000
  H   H184      1.0  0.02658  0.7411399999999999  0.5465  1.0000
  H   H185      1.0  0.34265000000000007  0.13831  0.81724  1.0000
  H   H186      1.0  0.3346  0.21022  0.86624  1.0000
  H   H187      1.0  0.13997  0.17793  0.87055  1.0000
  H   H188      1.0  0.14921  0.10427000000000002  0.82207  1.0000
  H   H189      1.0  0.31468  0.21735999999999997  0.92557  1.0000
  H   H190      1.0  0.31197  0.30166  0.9681999999999998  1.0000
  H   H191      1.0  0.1451  0.36913999999999997  0.92308  1.0000
  H   H192      1.0  0.14825  0.2857  0.87977  1.0000
  C   C1        1.0  0.8657300000000001  0.582  0.83862  1.0000
  C   C2        1.0  0.85376  0.57955  0.8741300000000001  1.0000
  C   C3        1.0  0.80847  0.54111  0.8870400000000002  1.0000
  C   C4        1.0  0.7729300000000001  0.50462  0.8649  1.0000
  C   C5        1.0  0.7856  0.50709  0.82933  1.0000
  C   C6        1.0  0.83159  0.5449  0.81634  1.0000
  C   C7        1.0  0.9136400000000002  0.62463  0.82519  1.0000
  C   C8        1.0  0.7235600000000001  0.46554999999999996  0.8789499999999999  1.0000
  C   C9        1.0  0.69014  0.4839  0.90822  1.0000
  C   C10       1.0  0.64384  0.44731999999999994  0.92186  1.0000
  C   C11       1.0  0.62925  0.39138  0.9063099999999998  1.0000
  C   C12       1.0  0.66194  0.37278  0.877  1.0000
  C   C13       1.0  0.70857  0.40921  0.86363  1.0000
  C   C14       1.0  0.57923  0.35193  0.9205  1.0000
  C   C15       1.0  0.13934  0.86503  0.86626  1.0000
  C   C16       1.0  0.15641  0.91646  0.8466799999999999  1.0000
  C   C17       1.0  0.20339  0.9540599999999999  0.85794  1.0000
  C   C18       1.0  0.23463  0.94112  0.8888199999999999  1.0000
  C   C19       1.0  0.21709  0.8894999999999998  0.9082900000000002  1.0000
  C   C20       1.0  0.16976  0.85182  0.89723  1.0000
  C   C21       1.0  0.09035999999999998  0.8251800000000001  0.8527099999999999  1.0000
  C   C22       1.0  0.28396  0.98203  0.90047  1.0000
  C   C23       1.0  0.32204  0.01199  0.87645  1.0000
  C   C24       1.0  0.36545  0.05422  0.88731  1.0000
  C   C25       1.0  0.37303  0.06595000000000001  0.9225099999999999  1.0000
  C   C26       1.0  0.33709  0.03443  0.94679  1.0000
  C   C27       1.0  0.29261  0.9935100000000001  0.9357900000000001  1.0000
  C   C28       1.0  0.41779  0.11231  0.9342799999999999  1.0000
  C   C29       1.0  0.8823000000000001  0.7492  0.68344  1.0000
  C   C30       1.0  0.8512  0.69806  0.67044  1.0000
  C   C31       1.0  0.8114500000000001  0.70416  0.6427199999999998  1.0000
  C   C32       1.0  0.80039  0.76198  0.62781  1.0000
  C   C33       1.0  0.83159  0.8131799999999999  0.64102  1.0000
  C   C34       1.0  0.87246  0.8068999999999998  0.66834  1.0000
  C   C35       1.0  0.9268  0.7417100000000001  0.7122299999999999  1.0000
  C   C36       1.0  0.75452  0.76797  0.6001  1.0000
  C   C37       1.0  0.7488  0.72287  0.5745299999999999  1.0000
  C   C38       1.0  0.7012  0.72522  0.55075  1.0000
  C   C39       1.0  0.65831  0.77313  0.5518899999999999  1.0000
  C   C40       1.0  0.66511  0.81962  0.57642  1.0000
  C   C41       1.0  0.7126900000000002  0.81703  0.60021  1.0000
  C   C42       1.0  0.6049  0.77305  0.52797  1.0000
  C   C43       1.0  0.13383  0.41824  0.33621  1.0000
  C   C44       1.0  0.14556  0.42171  0.37169  1.0000
  C   C45       1.0  0.19024  0.4611  0.38408  1.0000
  C   C46       1.0  0.22549  0.49736  0.36147  1.0000
  C   C47       1.0  0.21315  0.49375  0.32592  1.0000
  C   C48       1.0  0.16766  0.4551299999999999  0.31343  1.0000
  C   C49       1.0  0.08613  0.37543000000000004  0.32326  1.0000
  C   C50       1.0  0.2743  0.53726  0.37502  1.0000
  C   C51       1.0  0.30683  0.52023  0.4049  1.0000
  C   C52       1.0  0.35262  0.55749  0.41813000000000006  1.0000
  C   C53       1.0  0.36767  0.61256  0.40152  1.0000
  C   C54       1.0  0.3359  0.62993  0.37164  1.0000
  C   C55       1.0  0.28961  0.59286  0.35867  1.0000
  C   C56       1.0  0.41778  0.65163  0.4156599999999999  1.0000
  C   C57       1.0  0.8621100000000002  0.13414  0.3659  1.0000
  C   C58       1.0  0.84623  0.08223  0.34672  1.0000
  C   C59       1.0  0.79946  0.04415999999999999  0.35799  1.0000
  C   C60       1.0  0.7672800000000001  0.05717  0.3885  1.0000
  C   C61       1.0  0.7842100000000001  0.10878  0.40786  1.0000
  C   C62       1.0  0.8313500000000001  0.14687  0.39681  1.0000
  C   C63       1.0  0.90929  0.17573  0.35206  1.0000
  C   C64       1.0  0.71744  0.01637  0.39982999999999996  1.0000
  C   C65       1.0  0.67885  0.98835  0.37553  1.0000
  C   C66       1.0  0.6347700000000001  0.94625  0.38597  1.0000
  C   C67       1.0  0.62727  0.9326499999999999  0.42103  1.0000
  C   C68       1.0  0.6638  0.96225  0.44559  1.0000
  C   C69       1.0  0.70879  0.0032000000000000006  0.43501  1.0000
  C   C70       1.0  0.58221  0.8858900000000001  0.43248  1.0000
  C   C71       1.0  0.11820000000000001  0.24608000000000002  0.18384  1.0000
  C   C72       1.0  0.14875  0.298  0.17102  1.0000
  C   C73       1.0  0.18899000000000002  0.29338  0.1434  1.0000
  C   C74       1.0  0.20102  0.23623999999999998  0.12818  1.0000
  C   C75       1.0  0.1703  0.18426000000000003  0.14118  1.0000
  C   C76       1.0  0.12918  0.18903  0.16849  1.0000
  C   C77       1.0  0.07342  0.25263  0.21263  1.0000
  C   C78       1.0  0.24702000000000002  0.23123  0.10038  1.0000
  C   C79       1.0  0.25339  0.27702  0.07495  1.0000
  C   C80       1.0  0.30029  0.27422  0.05064  1.0000
  C   C81       1.0  0.34198  0.22517999999999996  0.05118  1.0000
  C   C82       1.0  0.33492  0.17847  0.07587  1.0000
  C   C83       1.0  0.28808  0.18147  0.10005  1.0000
  C   C84       1.0  0.3947800000000001  0.22343999999999997  0.02691  1.0000
  C   C85       1.0  0.9200400000000001  0.36509  0.58843  1.0000
  C   C86       1.0  0.9221500000000001  0.35299  0.62397  1.0000
  C   C87       1.0  0.9601800000000001  0.30733  0.63691  1.0000
  C   C88       1.0  0.9965700000000001  0.27157  0.61478  1.0000
  C   C89       1.0  0.9942800000000002  0.28421  0.57918  1.0000
  C   C90       1.0  0.9569200000000001  0.33056  0.56614  1.0000
  C   C91       1.0  0.87821  0.41362  0.57501  1.0000
  C   C92       1.0  0.035660000000000004  0.22211999999999998  0.62877  1.0000
  C   C93       1.0  0.01748  0.18858  0.65813  1.0000
  C   C94       1.0  0.05427  0.1422  0.67159  1.0000
  C   C95       1.0  0.11014000000000002  0.12769  0.65573  1.0000
  C   C96       1.0  0.12857  0.16055  0.62635  1.0000
  C   C97       1.0  0.09198  0.20729  0.61319  1.0000
  C   C98       1.0  0.1498  0.07757  0.66973  1.0000
  C   C99       1.0  0.63497  0.63629  0.61458  1.0000
  C   C100      1.0  0.58224  0.65199  0.59583  1.0000
  C   C101      1.0  0.5442  0.6984400000000001  0.60741  1.0000
  C   C102      1.0  0.55824  0.73057  0.63771  1.0000
  C   C103      1.0  0.61053  0.71365  0.65671  1.0000
  C   C104      1.0  0.6484400000000001  0.66667  0.64543  1.0000
  C   C105      1.0  0.67699  0.59014  0.60018  1.0000
  C   C106      1.0  0.51804  0.78066  0.64915  1.0000
  C   C107      1.0  0.48932  0.81919  0.6248699999999999  1.0000
  C   C108      1.0  0.44814  0.8638599999999999  0.63547  1.0000
  C   C109      1.0  0.43601  0.87193  0.67062  1.0000
  C   C110      1.0  0.46624  0.83533  0.69513  1.0000
  C   C111      1.0  0.50638  0.78986  0.68441  1.0000
  C   C112      1.0  0.39021  0.9177  0.68199  1.0000
  C   C113      1.0  0.7466600000000001  0.38336999999999993  0.43343  1.0000
  C   C114      1.0  0.7984600000000001  0.35233  0.42092  1.0000
  C   C115      1.0  0.7936400000000001  0.31209  0.39346  1.0000
  C   C116      1.0  0.7364400000000001  0.30047  0.37808  1.0000
  C   C117      1.0  0.68457  0.33159  0.39078  1.0000
  C   C118      1.0  0.68955  0.37281  0.41792  1.0000
  C   C119      1.0  0.7534500000000001  0.42796  0.46216  1.0000
  C   C120      1.0  0.73167  0.25471  0.3503  1.0000
  C   C121      1.0  0.7777000000000001  0.24915999999999996  0.32506  1.0000
  C   C122      1.0  0.7757600000000001  0.20242  0.30083  1.0000
  C   C123      1.0  0.72742  0.16003  0.30118  1.0000
  C   C124      1.0  0.68034  0.16639  0.32555  1.0000
  C   C125      1.0  0.68244  0.21314  0.34974  1.0000
  C   C126      1.0  0.72741  0.10747000000000001  0.27668  1.0000
  C   C127      1.0  0.08354  0.63234  0.08658  1.0000
  C   C128      1.0  0.08018  0.64378  0.12207999999999998  1.0000
  C   C129      1.0  0.04089  0.68849  0.13469  1.0000
  C   C130      1.0  0.004460000000000001  0.72407  0.1123  1.0000
  C   C131      1.0  0.00806  0.71209  0.07672  1.0000
  C   C132      1.0  0.04666000000000001  0.66664  0.06402  1.0000
  C   C133      1.0  0.12631  0.58451  0.07334999999999998  1.0000
  C   C134      1.0  0.9644  0.77282  0.12602  1.0000
  C   C135      1.0  0.9809600000000003  0.80479  0.15605  1.0000
  C   C136      1.0  0.94361  0.85059  0.16934  1.0000
  C   C137      1.0  0.88875  0.86642  0.15273  1.0000
  C   C138      1.0  0.8718500000000001  0.83514  0.12272  1.0000
  C   C139      1.0  0.909  0.7888199999999999  0.10969  1.0000
  C   C140      1.0  0.84932  0.9162800000000001  0.16713  1.0000
  C   C141      1.0  0.36239000000000005  0.36075  0.11811  1.0000
  C   C142      1.0  0.41259  0.34393  0.0976  1.0000
  C   C143      1.0  0.4515300000000001  0.29744  0.10844  1.0000
  C   C144      1.0  0.44074  0.26607  0.13961  1.0000
  C   C145      1.0  0.39031000000000005  0.28345  0.15998  1.0000
  C   C146      1.0  0.3517  0.33064  0.14952999999999997  1.0000
  C   C147      1.0  0.32032  0.40842  0.10526999999999999  1.0000
  C   C148      1.0  0.48223  0.21651000000000004  0.15065  1.0000
  C   C149      1.0  0.51102  0.17861  0.12626  1.0000
  C   C150      1.0  0.55324  0.13452  0.13661  1.0000
  C   C151      1.0  0.56616  0.12608  0.17165  1.0000
  C   C152      1.0  0.53593  0.16193  0.1963  1.0000
  C   C153      1.0  0.49505000000000005  0.20711  0.18582  1.0000
  C   C154      1.0  0.61281  0.08068  0.18291  1.0000
  C   C155      1.0  0.25126  0.61778  0.93172  1.0000
  C   C156      1.0  0.19988  0.64928  0.91901  1.0000
  C   C157      1.0  0.20548000000000002  0.6897  0.89146  1.0000
  C   C158      1.0  0.26312  0.70088  0.87644  1.0000
  C   C159      1.0  0.31457  0.66921  0.88933  1.0000
  C   C160      1.0  0.30877  0.6278  0.91651  1.0000
  C   C161      1.0  0.24421000000000004  0.57254  0.96029  1.0000
  C   C162      1.0  0.26908000000000004  0.7473399999999999  0.84894  1.0000
  C   C163      1.0  0.22371000000000002  0.7546  0.8234599999999999  1.0000
  C   C164      1.0  0.22717000000000004  0.8020999999999999  0.79953  1.0000
  C   C165      1.0  0.27645  0.84338  0.80051  1.0000
  C   C166      1.0  0.32277  0.8354700000000002  0.8252299999999999  1.0000
  C   C167      1.0  0.31911  0.78796  0.8490699999999999  1.0000
  C   C168      1.0  0.27849  0.8961700000000001  0.77631  1.0000
  C   C169      1.0  0.63377  0.08112  0.91394  1.0000
  C   C170      1.0  0.64562  0.07721  0.87848  1.0000
  C   C171      1.0  0.69013  0.03734  0.86625  1.0000
  C   C172      1.0  0.72514  0.0010500000000000017  0.8889999999999999  1.0000
  C   C173      1.0  0.7126900000000002  0.005170000000000001  0.92453  1.0000
  C   C174      1.0  0.66734  0.04422  0.93685  1.0000
  C   C175      1.0  0.58622  0.12422  0.9268499999999998  1.0000
  C   C176      1.0  0.77399  0.9607899999999999  0.8756600000000001  1.0000
  C   C177      1.0  0.80628  0.97712  0.84556  1.0000
  C   C178      1.0  0.85212  0.93962  0.8324900000000001  1.0000
  C   C179      1.0  0.8677100000000001  0.8850400000000002  0.84949  1.0000
  C   C180      1.0  0.83624  0.86841  0.8796299999999999  1.0000
  C   C181      1.0  0.78971  0.90562  0.89239  1.0000
  C   C182      1.0  0.9176900000000002  0.84567  0.83522  1.0000
  C   C183      1.0  0.36434  0.36537  0.8855099999999999  1.0000
  C   C184      1.0  0.34868  0.41783000000000003  0.90431  1.0000
  C   C185      1.0  0.30195  0.45580999999999994  0.8927900000000001  1.0000
  C   C186      1.0  0.26954  0.44207  0.86249  1.0000
  C   C187      1.0  0.28656  0.39013  0.8433799999999999  1.0000
  C   C188      1.0  0.33371  0.35221  0.85465  1.0000
  C   C189      1.0  0.41077  0.32334  0.8997199999999999  1.0000
  C   C190      1.0  0.21897000000000003  0.48209  0.85123  1.0000
  C   C191      1.0  0.18022  0.50963  0.8756799999999999  1.0000
  C   C192      1.0  0.13515  0.5508  0.86536  1.0000
  C   C193      1.0  0.12685  0.56414  0.83033  1.0000
  C   C194      1.0  0.16355  0.53492  0.80563  1.0000
  C   C195      1.0  0.20944000000000002  0.4947500000000001  0.81606  1.0000
  C   C196      1.0  0.08095  0.61055  0.81929  1.0000
  C   C197      1.0  0.61717  0.25347  0.06807  1.0000
  C   C198      1.0  0.64842  0.20172  0.08062  1.0000
  C   C199      1.0  0.68907  0.20654999999999998  0.10798999999999999  1.0000
  C   C200      1.0  0.70082  0.26378  0.12312999999999999  1.0000
  C   C201      1.0  0.66941  0.31559  0.11042  1.0000
  C   C202      1.0  0.6278  0.31057  0.0834  1.0000
  C   C203      1.0  0.5721  0.24678  0.03951  1.0000
  C   C204      1.0  0.74722  0.26895  0.15064  1.0000
  C   C205      1.0  0.75415  0.22304  0.17594  1.0000
  C   C206      1.0  0.8013400000000002  0.22591  0.19999999999999998  1.0000
  C   C207      1.0  0.8426800000000001  0.27516  0.19931  1.0000
  C   C208      1.0  0.83513  0.32197  0.17475  1.0000
  C   C209      1.0  0.78797  0.31887  0.15079  1.0000
  C   C210      1.0  0.8953900000000001  0.27681  0.22354  1.0000
  C   C211      1.0  0.3657  0.9178999999999999  0.41303999999999996  1.0000
  C   C212      1.0  0.35379  0.92025  0.37753  1.0000
  C   C213      1.0  0.3087  0.95891  0.36454  1.0000
  C   C214      1.0  0.27326  0.99574  0.38659  1.0000
  C   C215      1.0  0.28574  0.99332  0.42217  1.0000
  C   C216      1.0  0.33156  0.95528  0.43523999999999996  1.0000
  C   C217      1.0  0.41381000000000007  0.8753299999999999  0.42649  1.0000
  C   C218      1.0  0.22412  0.03506  0.37246  1.0000
  C   C219      1.0  0.19103000000000003  0.01698  0.34306  1.0000
  C   C220      1.0  0.14467000000000002  0.05358  0.32946  1.0000
  C   C221      1.0  0.12973  0.10932  0.34521  1.0000
  C   C222      1.0  0.1623  0.12778  0.37455  1.0000
  C   C223      1.0  0.20896000000000003  0.09131  0.38787  1.0000
  C   C224      1.0  0.07931000000000002  0.14856  0.33123  1.0000
  C   C225      1.0  0.63703  0.63745  0.38129  1.0000
  C   C226      1.0  0.65424  0.58758  0.40211  1.0000
  C   C227      1.0  0.7014400000000001  0.54925  0.39178999999999997  1.0000
  C   C228      1.0  0.7331  0.56021  0.36078  1.0000
  C   C229      1.0  0.71536  0.61028  0.34008  1.0000
  C   C230      1.0  0.66753  0.6484  0.35007  1.0000
  C   C231      1.0  0.58875  0.67886  0.39401  1.0000
  C   C232      1.0  0.7830100000000001  0.51886  0.35025  1.0000
  C   C233      1.0  0.82104  0.49073000000000006  0.375  1.0000
  C   C234      1.0  0.86489  0.44801  0.36518  1.0000
  C   C235      1.0  0.87292  0.43383999999999995  0.33029  1.0000
  C   C236      1.0  0.83716  0.46369  0.30527  1.0000
  C   C237      1.0  0.7923  0.50514  0.31524  1.0000
  C   C238      1.0  0.9176900000000002  0.38655  0.31948  1.0000
  C   C239      1.0  0.38162000000000007  0.74753  0.56673  1.0000
  C   C240      1.0  0.35096  0.79891  0.57984  1.0000
  C   C241      1.0  0.31111  0.7930300000000001  0.60753  1.0000
  C   C242      1.0  0.29958  0.73522  0.62232  1.0000
  C   C243      1.0  0.33028  0.68376  0.60896  1.0000
  C   C244      1.0  0.37125  0.6898  0.58165  1.0000
  C   C245      1.0  0.42638000000000004  0.7550800000000001  0.53808  1.0000
  C   C246      1.0  0.25388  0.7297099999999997  0.65015  1.0000
  C   C247      1.0  0.24861  0.77519  0.67556  1.0000
  C   C248      1.0  0.20123000000000002  0.7734699999999999  0.69948  1.0000
  C   C249      1.0  0.15822  0.72573  0.69873  1.0000
  C   C250      1.0  0.1646  0.67883  0.67441  1.0000
  C   C251      1.0  0.21188000000000004  0.68088  0.6504  1.0000
  C   C252      1.0  0.105  0.7267  0.7227699999999999  1.0000
  C   C253      1.0  0.5829  0.86586  0.16372  1.0000
  C   C254      1.0  0.5786800000000001  0.85505  0.1282  1.0000
  C   C255      1.0  0.53916  0.81056  0.11570999999999998  1.0000
  C   C256      1.0  0.50345  0.77463  0.13827  1.0000
  C   C257      1.0  0.5076300000000001  0.78624  0.17386  1.0000
  C   C258      1.0  0.54645  0.8314700000000002  0.18644  1.0000
  C   C259      1.0  0.62628  0.9130299999999999  0.17685  1.0000
  C   C260      1.0  0.4638900000000001  0.72553  0.12468  1.0000
  C   C261      1.0  0.48099  0.69355  0.09474  1.0000
  C   C262      1.0  0.4445  0.64698  0.08167  1.0000
  C   C263      1.0  0.38996  0.63053  0.09841999999999998  1.0000
  C   C264      1.0  0.37243  0.66203  0.12827  1.0000
  C   C265      1.0  0.40875000000000006  0.70903  0.14112  1.0000
  C   C266      1.0  0.35141  0.57972  0.08445  1.0000
  C   C267      1.0  0.86459  0.1381  0.13331  1.0000
  C   C268      1.0  0.91546  0.15524  0.15319  1.0000
  C   C269      1.0  0.95354  0.20217  0.14205  1.0000
  C   C270      1.0  0.94164  0.23356  0.11101  1.0000
  C   C271      1.0  0.8904200000000001  0.21609  0.09133  1.0000
  C   C272      1.0  0.8524000000000002  0.1687  0.10220999999999998  1.0000
  C   C273      1.0  0.82423  0.0891  0.14659  1.0000
  C   C274      1.0  0.98307  0.28281  0.09941  1.0000
  C   C275      1.0  0.013180000000000002  0.32041  0.12340999999999999  1.0000
  C   C276      1.0  0.05582  0.36368  0.11256  1.0000
  C   C277      1.0  0.068  0.3717  0.07738  1.0000
  C   C278      1.0  0.03632  0.33631  0.053119999999999994  1.0000
  C   C279      1.0  0.9949600000000001  0.29195  0.06409  1.0000
  C   C280      1.0  0.11515  0.41628  0.06573  1.0000
  C   C281      1.0  0.7494600000000001  0.8816699999999998  0.31834  1.0000
  C   C282      1.0  0.69849  0.84952  0.33099  1.0000
  C   C283      1.0  0.70474  0.80862  0.35825  1.0000
  C   C284      1.0  0.76258  0.79766  0.37304  1.0000
  C   C285      1.0  0.81366  0.8298  0.36012  1.0000
  C   C286      1.0  0.80723  0.87167  0.33322  1.0000
  C   C287      1.0  0.7417100000000001  0.9274999999999999  0.29017  1.0000
  C   C288      1.0  0.76905  0.75124  0.4005  1.0000
  C   C289      1.0  0.72369  0.74389  0.42599  1.0000
  C   C290      1.0  0.72757  0.69667  0.45005  1.0000
  C   C291      1.0  0.7773  0.65582  0.44915999999999995  1.0000
  C   C292      1.0  0.8236100000000001  0.66382  0.42444  1.0000
  C   C293      1.0  0.8195000000000001  0.71103  0.40045  1.0000
  C   C294      1.0  0.77964  0.60325  0.47343999999999997  1.0000
  C   C295      1.0  0.4188  0.13576  0.66229  1.0000
  C   C296      1.0  0.42074000000000006  0.14823  0.6268  1.0000
  C   C297      1.0  0.45934  0.19341000000000003  0.61391  1.0000
  C   C298      1.0  0.49637  0.22838  0.63606  1.0000
  C   C299      1.0  0.49421000000000004  0.21535  0.67162  1.0000
  C   C300      1.0  0.45637000000000005  0.1694  0.68458  1.0000
  C   C301      1.0  0.37671000000000004  0.08754  0.67572  1.0000
  C   C302      1.0  0.53587  0.27748  0.62212  1.0000
  C   C303      1.0  0.51787  0.31127  0.59281  1.0000
  C   C304      1.0  0.55492  0.35736  0.57935  1.0000
  C   C305      1.0  0.61096  0.37131  0.59512  1.0000
  C   C306      1.0  0.62922  0.33824  0.62447  1.0000
  C   C307      1.0  0.59232  0.29181  0.6376499999999999  1.0000
  C   C308      1.0  0.65079  0.42114  0.58103  1.0000
  C   C309      1.0  0.13618  0.86294  0.6351  1.0000
  C   C310      1.0  0.08388  0.8470500000000001  0.6542  1.0000
  C   C311      1.0  0.045540000000000004  0.8008200000000001  0.64274  1.0000
  C   C312      1.0  0.05865  0.76922  0.6121  1.0000
  C   C313      1.0  0.11055000000000001  0.78629  0.59278  1.0000
  C   C314      1.0  0.14889  0.83287  0.60404  1.0000
  C   C315      1.0  0.1782  0.90928  0.64922  1.0000
  C   C316      1.0  0.01793  0.71958  0.60066  1.0000
  C   C317      1.0  0.9894500000000002  0.68086  0.62492  1.0000
  C   C318      1.0  0.94778  0.63666  0.6144  1.0000
  C   C319      1.0  0.93493  0.62913  0.57931  1.0000
  C   C320      1.0  0.96496  0.66584  0.55477  1.0000
  C   C321      1.0  0.00553  0.71093  0.56543  1.0000
  C   C322      1.0  0.8888300000000001  0.58364  0.568  1.0000
  C   C323      1.0  0.24655  0.11681999999999998  0.81645  1.0000
  C   C324      1.0  0.29853  0.14708  0.8291999999999999  1.0000
  C   C325      1.0  0.29378  0.18736  0.8566499999999999  1.0000
  C   C326      1.0  0.23647  0.19987  0.8717299999999999  1.0000
  C   C327      1.0  0.18441000000000002  0.16959  0.8587599999999999  1.0000
  C   C328      1.0  0.18931000000000003  0.12825  0.83167  1.0000
  C   C329      1.0  0.25334  0.07205  0.78779  1.0000
  C   C330      1.0  0.23188  0.24579  0.89943  1.0000
  C   C331      1.0  0.2775  0.2506  0.92492  1.0000
  C   C332      1.0  0.2759  0.29759  0.94901  1.0000
  C   C333      1.0  0.22839000000000004  0.34098  0.9482  1.0000
  C   C334      1.0  0.18167  0.33534  0.9235799999999998  1.0000
  C   C335      1.0  0.18337  0.28829  0.8995699999999999  1.0000
  C   C336      1.0  0.22863  0.39369  0.97253  1.0000
  C   C337      1.0  0.41821  0.44713  0.9942399999999999  1.0000
  C   C338      1.0  0.55561  0.58317  0.50535  1.0000
  C   C339      1.0  0.054  0.91705  0.74516  1.0000
  C   C340      1.0  0.91852  0.051609999999999996  0.25596  1.0000
  O   O1        1.0  0.9301400000000001  0.6188  0.7937799999999999  1.0000
  O   O2        1.0  0.9333400000000001  0.6639  0.8471999999999998  1.0000
  O   O3        1.0  0.56354  0.3069  0.9011099999999999  1.0000
  O   O4        1.0  0.55734  0.36673  0.9498499999999999  1.0000
  O   O5        1.0  0.07583  0.77599  0.87039  1.0000
  O   O6        1.0  0.06428  0.8390499999999999  0.82478  1.0000
  O   O7        1.0  0.43644  0.10619999999999999  0.96557  1.0000
  O   O8        1.0  0.4331200000000001  0.15461  0.91316  1.0000
  O   O9        1.0  0.9573100000000001  0.7874999999999999  0.72227  1.0000
  O   O10       1.0  0.9310300000000001  0.6858  0.7241  1.0000
  O   O11       1.0  0.59732  0.72753  0.50839  1.0000
  O   O12       1.0  0.5694  0.8209699999999999  0.5293  1.0000
  O   O13       1.0  0.43044000000000004  0.39382  0.00875  1.0000
  O   O14       1.0  0.99972  0.74547  0.7898399999999999  1.0000
  O   O15       1.0  0.06963  0.38146  0.29179  1.0000
  O   O16       1.0  0.06636  0.33619  0.34553  1.0000
  O   O17       1.0  0.43359  0.69705  0.39609  1.0000
  O   O18       1.0  0.43977000000000005  0.63649  0.4447  1.0000
  O   O19       1.0  0.92785  0.22088999999999998  0.37151  1.0000
  O   O20       1.0  0.92992  0.16802  0.32189  1.0000
  O   O21       1.0  0.5638  0.89074  0.46385999999999994  1.0000
  O   O22       1.0  0.56678  0.84474  0.41099  1.0000
  O   O23       1.0  0.04489  0.20531999999999997  0.22331  1.0000
  O   O24       1.0  0.06697  0.30826  0.22364  1.0000
  O   O25       1.0  0.40255  0.26662  0.00536  1.0000
  O   O26       1.0  0.43041  0.17582  0.029599999999999998  1.0000
  O   O27       1.0  0.53047  0.55758  0.52957  1.0000
  O   O28       1.0  0.00908  0.25472  0.28946  1.0000
  O   O29       1.0  0.88467  0.43037000000000003  0.54356  1.0000
  O   O30       1.0  0.83907  0.43381999999999993  0.59712  1.0000
  O   O31       1.0  0.1935  0.060579999999999995  0.64958  1.0000
  O   O32       1.0  0.1363  0.05707999999999999  0.69967  1.0000
  O   O33       1.0  0.72133  0.56978  0.61985  1.0000
  O   O34       1.0  0.6702400000000001  0.57273  0.56937  1.0000
  O   O35       1.0  0.39358000000000004  0.9337899999999999  0.71383  1.0000
  O   O36       1.0  0.35101  0.9363  0.65985  1.0000
  O   O37       1.0  0.70627  0.45762  0.4721  1.0000
  O   O38       1.0  0.80889  0.43297  0.47381  1.0000
  O   O39       1.0  0.7729700000000002  0.10005  0.25696  1.0000
  O   O40       1.0  0.67909  0.07262  0.27777  1.0000
  O   O41       1.0  0.10856  0.9276  0.7584999999999998  1.0000
  O   O42       1.0  0.75739  0.48784999999999995  0.5388  1.0000
  O   O43       1.0  0.12139000000000001  0.56956  0.04169  1.0000
  O   O44       1.0  0.16443  0.56302  0.09565  1.0000
  O   O45       1.0  0.80433  0.9332500000000001  0.14755  1.0000
  O   O46       1.0  0.86358  0.93689  0.19654  1.0000
  O   O47       1.0  0.27585  0.42749  0.12501  1.0000
  O   O48       1.0  0.32673  0.43002  0.07506  1.0000
  O   O49       1.0  0.60651  0.06057  0.21394999999999997  1.0000
  O   O50       1.0  0.65496  0.06668  0.16159  1.0000
  O   O51       1.0  0.29063  0.54252  0.9703600000000001  1.0000
  O   O52       1.0  0.18837  0.56705  0.9718099999999998  1.0000
  O   O53       1.0  0.23628000000000002  0.90261  0.7540799999999999  1.0000
  O   O54       1.0  0.32493  0.9330399999999999  0.77956  1.0000
  O   O55       1.0  0.9480800000000001  0.02439  0.27787  1.0000
  O   O56       1.0  0.2487  0.50938  0.03805  1.0000
  O   O57       1.0  0.56963  0.11846  0.9582799999999999  1.0000
  O   O58       1.0  0.56648  0.16354  0.9045  1.0000
  O   O59       1.0  0.93653  0.80274  0.8558100000000001  1.0000
  O   O60       1.0  0.93649  0.8577  0.80508  1.0000
  O   O61       1.0  0.43038  0.27873  0.8801699999999999  1.0000
  O   O62       1.0  0.42976  0.32991  0.9303299999999999  1.0000
  O   O63       1.0  0.06354  0.60686  0.78764  1.0000
  O   O64       1.0  0.06395  0.65003  0.8414799999999999  1.0000
  O   O65       1.0  0.54225  0.29387  0.029569999999999996  1.0000
  O   O66       1.0  0.5668  0.19132  0.02802  1.0000
  O   O67       1.0  0.9030400000000003  0.23335  0.24485  1.0000
  O   O68       1.0  0.9309400000000001  0.32454  0.22099999999999997  1.0000
  O   O69       1.0  0.02782  0.9452200000000001  0.7222599999999999  1.0000
  O   O70       1.0  0.51242  0.24504  0.9627399999999999  1.0000
  O   O71       1.0  0.4302500000000001  0.88139  0.45792  1.0000
  O   O72       1.0  0.43384  0.83616  0.40453  1.0000
  O   O73       1.0  0.06336  0.19347  0.35068  1.0000
  O   O74       1.0  0.05739  0.13353  0.30193  1.0000
  O   O75       1.0  0.57007  0.72435  0.37476  1.0000
  O   O76       1.0  0.5665500000000001  0.67062  0.42384000000000005  1.0000
  O   O77       1.0  0.93603  0.39060000000000006  0.28804  1.0000
  O   O78       1.0  0.9329900000000001  0.34571  0.34159  1.0000
  O   O79       1.0  0.45714  0.70922  0.52815  1.0000
  O   O80       1.0  0.43061000000000005  0.8109300000000002  0.52632  1.0000
  O   O81       1.0  0.09746  0.7731900000000002  0.74157  1.0000
  O   O82       1.0  0.06973  0.67865  0.72221  1.0000
  O   O83       1.0  0.9279  0.10680999999999999  0.24316000000000002  1.0000
  O   O84       1.0  0.49287  0.75241  0.4614599999999999  1.0000
  O   O85       1.0  0.62213  0.92778  0.20853  1.0000
  O   O86       1.0  0.6643800000000001  0.9340900000000001  0.15436  1.0000
  O   O87       1.0  0.30599  0.56354  0.10390999999999999  1.0000
  O   O88       1.0  0.3667  0.55741  0.05558  1.0000
  O   O89       1.0  0.7766300000000002  0.07272  0.1283  1.0000
  O   O90       1.0  0.8358000000000001  0.06416  0.17532  1.0000
  O   O91       1.0  0.10909000000000002  0.43609  0.03459  1.0000
  O   O92       1.0  0.15769000000000002  0.43012000000000006  0.08678  1.0000
  O   O93       1.0  0.78765  0.95751  0.27962  1.0000
  O   O94       1.0  0.68533  0.93359  0.2794  1.0000
  O   O95       1.0  0.73682  0.59649  0.49525  1.0000
  O   O96       1.0  0.8268600000000002  0.56699  0.47058000000000005  1.0000
  O   O97       1.0  0.44514  0.47239000000000003  0.9705499999999999  1.0000
  O   O98       1.0  0.7478200000000002  0.99375  0.21204  1.0000
  O   O99       1.0  0.38464000000000004  0.06947  0.70682  1.0000
  O   O100      1.0  0.33595  0.069  0.6542099999999998  1.0000
  O   O101      1.0  0.6958000000000001  0.43662999999999996  0.60058  1.0000
  O   O102      1.0  0.6362  0.44306  0.55161  1.0000
  O   O103      1.0  0.22423  0.92742  0.63007  1.0000
  O   O104      1.0  0.16992  0.92968  0.67931  1.0000
  O   O105      1.0  0.89333  0.56611  0.53645  1.0000
  O   O106      1.0  0.8483500000000002  0.56678  0.5899  1.0000
  O   O107      1.0  0.20624  0.04235999999999999  0.77791  1.0000
  O   O108      1.0  0.30883  0.06701  0.77616  1.0000
  O   O109      1.0  0.27309  0.3999  0.99315  1.0000
  O   O110      1.0  0.1817  0.43027  0.97051  1.0000
  O   O111      1.0  0.60883  0.56988  0.4912  1.0000
  O   O112      1.0  0.25726  0.00961  0.7114  1.0000
