data_image0
_chemical_formula_structural       Cd8Ni8H322C336N16Cl2O48
_chemical_formula_sum              "Cd8 Ni8 H322 C336 N16 Cl2 O48"
_cell_length_a       11.89848
_cell_length_b       22.91221
_cell_length_c       36.92919
_cell_angle_alpha    94.42791
_cell_angle_beta     89.96523
_cell_angle_gamma    90.01992

_symmetry_space_group_name_H-M    'P 1'
_symmetry_Int_Tables_number       1

loop_
  _symmetry_equiv_pos_as_xyz
  'x,y,z'

loop_
  _atom_site_type_symbol
  _atom_site_label
  _atom_site_symmetry_multiplicity
  _atom_site_fract_x
  _atom_site_fract_y
  _atom_site_fract_z
  _atom_site_occupancy
  Cd  Cd1       1.0  0.34191999999999995  0.75612  0.25877  1.0000
  Cd  Cd2       1.0  0.01093  0.85903  0.28223  1.0000
  Cd  Cd3       1.0  0.33963000000000004  0.60341  0.22785  1.0000
  Cd  Cd4       1.0  0.77664  0.9450100000000001  0.23233  1.0000
  Cd  Cd5       1.0  0.83966  0.24232  0.7418  1.0000
  Cd  Cd6       1.0  0.51003  0.14089  0.71778  1.0000
  Cd  Cd7       1.0  0.83591  0.39457000000000003  0.77168  1.0000
  Cd  Cd8       1.0  0.27669  0.05378  0.7678  1.0000
  Ni  Ni1       1.0  0.50446  0.58391  0.48683  1.0000
  Ni  Ni2       1.0  0.9657599999999998  0.91571  0.48247999999999996  1.0000
  Ni  Ni3       1.0  0.29256  0.57811  0.02562  1.0000
  Ni  Ni4       1.0  0.81606  0.91914  0.02598  1.0000
  Ni  Ni5       1.0  0.006829999999999999  0.41571  0.51324  1.0000
  Ni  Ni6       1.0  0.46315  0.08401  0.51748  1.0000
  Ni  Ni7       1.0  0.7945499999999999  0.4215  0.97422  1.0000
  Ni  Ni8       1.0  0.31389  0.08037000000000002  0.97429  1.0000
  H   H1        1.0  0.31818  0.61027  0.12766  1.0000
  H   H2        1.0  0.49061  0.46382  0.05143  1.0000
  H   H3        1.0  0.20161999999999997  0.67997  0.15363  1.0000
  H   H4        1.0  0.55027  0.45934000000000014  0.9312300000000001  1.0000
  H   H5        1.0  0.39083999999999997  0.57188  0.85929  1.0000
  H   H6        1.0  0.40029  0.52244  0.10988000000000002  1.0000
  H   H7        1.0  0.81757  0.81908  0.35991  1.0000
  H   H8        1.0  0.71157  0.47722  0.44884999999999997  1.0000
  H   H9        1.0  0.75263  0.48876  0.50874  1.0000
  H   H10       1.0  0.7883800000000001  0.92826  0.12864  1.0000
  H   H11       1.0  0.92232  0.99032  0.11222  1.0000
  H   H12       1.0  0.06333  0.95544  0.39314  1.0000
  H   H13       1.0  0.16021  0.023230000000000004  0.44671000000000005  1.0000
  H   H14       1.0  0.15983  0.04445000000000001  0.50704  1.0000
  H   H15       1.0  0.01758  0.03564  0.05448000000000001  1.0000
  H   H16       1.0  0.60767  0.53081  0.39595  1.0000
  H   H17       1.0  0.12641  0.75437  0.44472  1.0000
  H   H18       1.0  0.57448  0.7490800000000001  0.43032  1.0000
  H   H19       1.0  0.46538000000000007  0.74636  0.08312  1.0000
  H   H20       1.0  0.35627  0.6689  0.36838  1.0000
  H   H21       1.0  0.10719  0.77256  0.38489  1.0000
  H   H22       1.0  0.09289  0.75291  0.18419  1.0000
  H   H23       1.0  0.4988  0.45980000000000004  0.99134  1.0000
  H   H24       1.0  0.77891  0.47387000000000007  0.56888  1.0000
  H   H25       1.0  0.54797  0.7326500000000001  0.36502  1.0000
  H   H26       1.0  0.05169  0.01442  0.9943200000000001  1.0000
  H   H27       1.0  0.61856  0.45980000000000004  0.8703900000000001  1.0000
  H   H28       1.0  0.48292  0.68248  0.12484999999999999  1.0000
  H   H29       1.0  0.82943  0.73714  0.05025  1.0000
  H   H30       1.0  0.8468999999999999  0.75936  0.00576  1.0000
  H   H31       1.0  0.91256  0.79921  0.04258  1.0000
  H   H32       1.0  0.65251  0.8329000000000001  0.32556  1.0000
  H   H33       1.0  0.10035  0.5779799999999999  0.89956  1.0000
  H   H34       1.0  0.07185  0.65366  0.90988  1.0000
  H   H35       1.0  0.12081000000000001  0.61037  0.94456  1.0000
  H   H36       1.0  0.92206  0.82096  0.14084  1.0000
  H   H37       1.0  0.5602  0.7837500000000001  0.17861  1.0000
  H   H38       1.0  0.69106  0.85153  0.15127  1.0000
  H   H39       1.0  0.89475  0.63374  0.02347  1.0000
  H   H40       1.0  0.02115  0.62832  0.9974299999999999  1.0000
  H   H41       1.0  0.90249  0.66564  0.9813300000000001  1.0000
  H   H42       1.0  0.8154  0.45375  0.62834  1.0000
  H   H43       1.0  0.23511  0.72527  0.9238699999999999  1.0000
  H   H44       1.0  0.37585  0.70006  0.9204799999999999  1.0000
  H   H45       1.0  0.29011  0.68143  0.95741  1.0000
  H   H46       1.0  0.89707  0.49598  0.44298000000000004  1.0000
  H   H47       1.0  0.90511  0.89215  0.85849  1.0000
  H   H48       1.0  0.07789  0.9522100000000001  0.64779  1.0000
  H   H49       1.0  0.30942  0.74559  0.33433  1.0000
  H   H50       1.0  0.91085  0.77111  0.91773  1.0000
  H   H51       1.0  0.7720499999999999  0.7441999999999999  0.92223  1.0000
  H   H52       1.0  0.82801  0.7956000000000001  0.95601  1.0000
  H   H53       1.0  0.95301  0.7652200000000001  0.09249  1.0000
  H   H54       1.0  0.7002399999999999  0.49058000000000007  0.75391  1.0000
  H   H55       1.0  0.69436  0.52094  0.69198  1.0000
  H   H56       1.0  0.28381  0.07005  0.62387  1.0000
  H   H57       1.0  0.21430999999999997  0.05656999999999999  0.56682  1.0000
  H   H58       1.0  0.22709  0.45106  0.01067  1.0000
  H   H59       1.0  0.0010400000000000001  0.93103  0.81423  1.0000
  H   H60       1.0  0.29156  0.77626  0.52528  1.0000
  H   H61       1.0  0.34398  0.7067300000000001  0.53547  1.0000
  H   H62       1.0  0.2288  0.7386000000000001  0.56037  1.0000
  H   H63       1.0  0.38474  0.42665  0.11348  1.0000
  H   H64       1.0  0.86586  0.7997400000000001  0.85534  1.0000
  H   H65       1.0  0.74894  0.84591  0.84783  1.0000
  H   H66       1.0  0.7269800000000001  0.77392  0.86072  1.0000
  H   H67       1.0  0.08688  0.6213500000000001  0.50025  1.0000
  H   H68       1.0  0.11201999999999998  0.6481  0.54584  1.0000
  H   H69       1.0  0.22226  0.61336  0.51986  1.0000
  H   H70       1.0  0.77912  0.71062  0.50266  1.0000
  H   H71       1.0  0.72499  0.74383  0.54417  1.0000
  H   H72       1.0  0.83243  0.77945  0.52054  1.0000
  H   H73       1.0  0.31825  0.57911  0.61057  1.0000
  H   H74       1.0  0.34015999999999996  0.61395  0.56956  1.0000
  H   H75       1.0  0.28346  0.65408  0.60834  1.0000
  H   H76       1.0  0.10802  0.01913999999999999  0.8713799999999999  1.0000
  H   H77       1.0  0.22047  0.99162  0.68493  1.0000
  H   H78       1.0  0.6163  0.7205800000000001  0.00068  1.0000
  H   H79       1.0  0.65863  0.7897000000000001  0.9866200000000002  1.0000
  H   H80       1.0  0.54421  0.75161  0.96479  1.0000
  H   H81       1.0  0.50523  0.69156  0.56776  1.0000
  H   H82       1.0  0.5823  0.7096900000000002  0.60833  1.0000
  H   H83       1.0  0.43904  0.7308399999999999  0.60531  1.0000
  H   H84       1.0  0.07755  0.38171  0.0249  1.0000
  H   H85       1.0  0.7516899999999999  0.8657  0.60655  1.0000
  H   H86       1.0  0.7960899999999999  0.90551  0.56971  1.0000
  H   H87       1.0  0.7853  0.94141  0.61414  1.0000
  H   H88       1.0  0.57921  0.70024  0.4805  1.0000
  H   H89       1.0  0.48974  0.7623400000000001  0.47996  1.0000
  H   H90       1.0  0.53231  0.73657  0.52158  1.0000
  H   H91       1.0  0.59648  0.8333  0.54423  1.0000
  H   H92       1.0  0.56289  0.86332  0.50289  1.0000
  H   H93       1.0  0.70157  0.8714  0.52113  1.0000
  H   H94       1.0  0.54401  0.45023  0.36254  1.0000
  H   H95       1.0  0.49726  0.53763  0.81819  1.0000
  H   H96       1.0  0.39766  0.87125  0.02279  1.0000
  H   H97       1.0  0.41395999999999994  0.83904  0.9778  1.0000
  H   H98       1.0  0.52634  0.87977  0.99899  1.0000
  H   H99       1.0  0.8907  0.04186000000000001  0.48590999999999995  1.0000
  H   H100      1.0  0.59825  0.5726100000000002  0.65323  1.0000
  H   H101      1.0  0.0637  0.05423  0.38425  1.0000
  H   H102      1.0  0.14826  0.71634  0.9928799999999999  1.0000
  H   H103      1.0  0.10429  0.7867000000000001  0.0112  1.0000
  H   H104      1.0  0.03181  0.75142  0.97359  1.0000
  H   H105      1.0  0.50595  0.61869  0.03858  1.0000
  H   H106      1.0  0.58342  0.52525  0.13208  1.0000
  H   H107      1.0  0.09259  0.78525  0.49985  1.0000
  H   H108      1.0  0.03812  0.74131  0.53304  1.0000
  H   H109      1.0  0.013900000000000001  0.721  0.48655  1.0000
  H   H110      1.0  0.24278  0.94932  0.36893  1.0000
  H   H111      1.0  0.01993  0.66374  0.41609  1.0000
  H   H112      1.0  0.17923  0.8741900000000001  0.47017  1.0000
  H   H113      1.0  0.05066  0.81363  0.5917  1.0000
  H   H114      1.0  0.95504  0.8277600000000002  0.55644  1.0000
  H   H115      1.0  0.90872  0.7904000000000001  0.59417  1.0000
  H   H116      1.0  0.46068000000000003  0.46743  0.47635  1.0000
  H   H117      1.0  0.91935  0.12316  0.36539  1.0000
  H   H118      1.0  0.43581  0.9079200000000001  0.36752  1.0000
  H   H119      1.0  0.07992  0.33438  0.08317  1.0000
  H   H120      1.0  0.66824  0.64071  0.43762  1.0000
  H   H121      1.0  0.43086  0.60864  0.66699  1.0000
  H   H122      1.0  0.39735  0.68271  0.6614  1.0000
  H   H123      1.0  0.53973  0.66197  0.66593  1.0000
  H   H124      1.0  0.7735300000000002  0.56969  0.13495  1.0000
  H   H125      1.0  0.22448999999999997  0.6079  0.84749  1.0000
  H   H126      1.0  0.33521  0.65936  0.85662  1.0000
  H   H127      1.0  0.19347999999999999  0.6818  0.8617  1.0000
  H   H128      1.0  0.82532  0.70398  0.42177  1.0000
  H   H129      1.0  0.07059  0.017080000000000026  0.9326700000000001  1.0000
  H   H130      1.0  0.82967  0.6403000000000002  0.09032  1.0000
  H   H131      1.0  0.65022  0.8652799999999998  0.9446399999999999  1.0000
  H   H132      1.0  0.60489  0.8091200000000001  0.91208  1.0000
  H   H133      1.0  0.62325  0.8811  0.8988  1.0000
  H   H134      1.0  0.37219  0.83322  0.469  1.0000
  H   H135      1.0  0.78291  0.043930000000000004  0.027379999999999998  1.0000
  H   H136      1.0  0.6949199999999999  0.66441  0.04198  1.0000
  H   H137      1.0  0.66747  0.13369  0.030370000000000005  1.0000
  H   H138      1.0  0.50175  0.85077  0.41788  1.0000
  H   H139      1.0  0.83436  0.06620000000000002  0.14302  1.0000
  H   H140      1.0  0.02659  0.86261  0.65491  1.0000
  H   H141      1.0  0.88394  0.84082  0.65412  1.0000
  H   H142      1.0  0.91863  0.9154300000000001  0.66452  1.0000
  H   H143      1.0  0.23495  0.35748  0.12754  1.0000
  H   H144      1.0  0.05483  0.56005  0.42725  1.0000
  H   H145      1.0  0.00955  0.87065  0.0497  1.0000
  H   H146      1.0  0.43364  0.35839  0.35512  1.0000
  H   H147      1.0  0.97102  0.8694600000000001  0.38169  1.0000
  H   H148      1.0  0.47023  0.59366  0.38519  1.0000
  H   H149      1.0  0.74684  0.11097  0.46699  1.0000
  H   H150      1.0  0.76008  0.15243  0.40694  1.0000
  H   H151      1.0  0.3511099999999999  0.37585  0.46904  1.0000
  H   H152      1.0  0.33528  0.32106  0.40842  1.0000
  H   H153      1.0  0.63315  0.19004  0.08966  1.0000
  H   H154      1.0  0.7184600000000001  0.15625  0.14609  1.0000
  H   H155      1.0  0.33117  0.86007  0.1024  1.0000
  H   H156      1.0  0.16596  0.81124  0.07167  1.0000
  H   H157      1.0  0.3361  0.96883  0.11174000000000002  1.0000
  H   H158      1.0  0.33936  0.77047  0.04176  1.0000
  H   H159      1.0  0.42556999999999995  0.70829  0.030279999999999998  1.0000
  H   H160      1.0  0.35918  0.74503  0.9957900000000001  1.0000
  H   H161      1.0  0.18046  0.027940000000000003  0.08981  1.0000
  H   H162      1.0  0.81875  0.38992000000000004  0.8720399999999999  1.0000
  H   H163      1.0  0.99152  0.53614  0.94832  1.0000
  H   H164      1.0  0.70186  0.31992  0.84607  1.0000
  H   H165      1.0  0.05015  0.54078  0.06861  1.0000
  H   H166      1.0  0.89069  0.42824  0.14058  1.0000
  H   H167      1.0  0.90159  0.47743  0.8899099999999999  1.0000
  H   H168      1.0  0.31571  0.18139000000000002  0.64027  1.0000
  H   H169      1.0  0.21316999999999997  0.52297  0.55121  1.0000
  H   H170      1.0  0.25346  0.51192  0.49109  1.0000
  H   H171      1.0  0.28819  0.07184999999999998  0.8716099999999999  1.0000
  H   H172      1.0  0.42159  0.00979999999999998  0.8879899999999998  1.0000
  H   H173      1.0  0.56164  0.04527  0.60684  1.0000
  H   H174      1.0  0.65924  0.9775800000000002  0.55345  1.0000
  H   H175      1.0  0.66045  0.9563400000000001  0.4932  1.0000
  H   H176      1.0  0.51641  0.96432  0.94571  1.0000
  H   H177      1.0  0.10895999999999999  0.46948  0.60407  1.0000
  H   H178      1.0  0.62717  0.24591999999999997  0.55537  1.0000
  H   H179      1.0  0.07292  0.25175  0.56986  1.0000
  H   H180      1.0  0.96488  0.25378  0.9169899999999999  1.0000
  H   H181      1.0  0.857  0.33115000000000006  0.63178  1.0000
  H   H182      1.0  0.60712  0.22781  0.61496  1.0000
  H   H183      1.0  0.59264  0.24619  0.81566  1.0000
  H   H184      1.0  0.9982400000000001  0.54076  0.00868  1.0000
  H   H185      1.0  0.2788  0.52668  0.43092  1.0000
  H   H186      1.0  0.04699  0.26851  0.63552  1.0000
  H   H187      1.0  0.55142  0.98618  0.0058  1.0000
  H   H188      1.0  0.11854  0.5401  0.12953  1.0000
  H   H189      1.0  0.98152  0.31741  0.87466  1.0000
  H   H190      1.0  0.33013  0.26316  0.9498  1.0000
  H   H191      1.0  0.34742  0.24118  0.9943400000000001  1.0000
  H   H192      1.0  0.41262  0.20096000000000003  0.95756  1.0000
  H   H193      1.0  0.15064  0.16758  0.67452  1.0000
  H   H194      1.0  0.59938  0.42203000000000007  0.10055  1.0000
  H   H195      1.0  0.57148  0.34629  0.09032  1.0000
  H   H196      1.0  0.61975  0.38961000000000007  0.05555  1.0000
  H   H197      1.0  0.42187  0.17873  0.85946  1.0000
  H   H198      1.0  0.05997999999999999  0.21541  0.82145  1.0000
  H   H199      1.0  0.18999000000000002  0.14808000000000002  0.84891  1.0000
  H   H200      1.0  0.39626  0.36645999999999995  0.9763499999999999  1.0000
  H   H201      1.0  0.5231  0.37192  0.00215  1.0000
  H   H202      1.0  0.40438  0.33501  0.01863  1.0000
  H   H203      1.0  0.31519  0.54627  0.37136  1.0000
  H   H204      1.0  0.73507  0.27507  0.07601  1.0000
  H   H205      1.0  0.87567  0.30059  0.0794  1.0000
  H   H206      1.0  0.7898800000000001  0.31917  0.04253  1.0000
  H   H207      1.0  0.3984  0.50397  0.55711  1.0000
  H   H208      1.0  0.40572  0.10830000000000002  0.14166  1.0000
  H   H209      1.0  0.57839  0.04834  0.3523  1.0000
  H   H210      1.0  0.80758  0.25478  0.6662  1.0000
  H   H211      1.0  0.41049  0.22855  0.08218  1.0000
  H   H212      1.0  0.27187  0.2557  0.07771  1.0000
  H   H213      1.0  0.32733  0.20392  0.04405  1.0000
  H   H214      1.0  0.45349  0.23483000000000004  0.9075999999999999  1.0000
  H   H215      1.0  0.19868  0.51168  0.24651000000000003  1.0000
  H   H216      1.0  0.19628  0.47724000000000005  0.3079  1.0000
  H   H217      1.0  0.7835  0.9301  0.37574  1.0000
  H   H218      1.0  0.71492  0.9437800000000001  0.43313  1.0000
  H   H219      1.0  0.7281099999999999  0.54846  0.98927  1.0000
  H   H220      1.0  0.50371  0.06905  0.18599  1.0000
  H   H221      1.0  0.79231  0.22376000000000001  0.47461  1.0000
  H   H222      1.0  0.8449199999999999  0.29327  0.46439  1.0000
  H   H223      1.0  0.7292999999999998  0.26156  0.43964000000000003  1.0000
  H   H224      1.0  0.88523  0.57332  0.88635  1.0000
  H   H225      1.0  0.3655300000000001  0.20050000000000004  0.14471  1.0000
  H   H226      1.0  0.24876999999999996  0.15432  0.15244  1.0000
  H   H227      1.0  0.22657999999999998  0.22624  0.13944  1.0000
  H   H228      1.0  0.58847  0.37887  0.50003  1.0000
  H   H229      1.0  0.61387  0.35244000000000003  0.45437999999999995  1.0000
  H   H230      1.0  0.7241199999999999  0.38686  0.48052000000000006  1.0000
  H   H231      1.0  0.27854  0.28933  0.49771  1.0000
  H   H232      1.0  0.22513  0.25617000000000006  0.45611000000000007  1.0000
  H   H233      1.0  0.33163  0.22038  0.47997  1.0000
  H   H234      1.0  0.8184  0.42083  0.38968  1.0000
  H   H235      1.0  0.84048  0.38610000000000005  0.43072  1.0000
  H   H236      1.0  0.78385  0.34587  0.392  1.0000
  H   H237      1.0  0.60627  0.98004  0.12849  1.0000
  H   H238      1.0  0.72193  0.00911  0.31489  1.0000
  H   H239      1.0  0.1157  0.27934000000000003  0.9995000000000002  1.0000
  H   H240      1.0  0.15747  0.21016  0.01358  1.0000
  H   H241      1.0  0.04314  0.24844  0.03536  1.0000
  H   H242      1.0  0.005150000000000001  0.30826  0.43236  1.0000
  H   H243      1.0  0.0822  0.29012  0.39179  1.0000
  H   H244      1.0  0.93878  0.2692  0.3948  1.0000
  H   H245      1.0  0.57853  0.61783  0.9753  1.0000
  H   H246      1.0  0.25126  0.13437  0.39321  1.0000
  H   H247      1.0  0.29426  0.09448000000000001  0.43016  1.0000
  H   H248      1.0  0.28417  0.05858  0.38572  1.0000
  H   H249      1.0  0.07841  0.3001  0.5195  1.0000
  H   H250      1.0  0.98837  0.23818000000000003  0.52007  1.0000
  H   H251      1.0  0.03166  0.26375  0.4784300000000001  1.0000
  H   H252      1.0  0.09522  0.16702  0.4559  1.0000
  H   H253      1.0  0.0614  0.13685  0.49719  1.0000
  H   H254      1.0  0.20018  0.12889  0.47895  1.0000
  H   H255      1.0  0.04466  0.54989  0.63744  1.0000
  H   H256      1.0  0.9963699999999999  0.46275  0.1819  1.0000
  H   H257      1.0  0.8958399999999999  0.12904  0.97761  1.0000
  H   H258      1.0  0.9123999999999999  0.16156  0.02251  1.0000
  H   H259      1.0  0.02433  0.12039  0.0014  1.0000
  H   H260      1.0  0.3897  0.95813  0.51413  1.0000
  H   H261      1.0  0.09789  0.42779  0.34687  1.0000
  H   H262      1.0  0.56333  0.9460800000000001  0.61564  1.0000
  H   H263      1.0  0.64857  0.28365  0.0073  1.0000
  H   H264      1.0  0.60466  0.21328  0.98897  1.0000
  H   H265      1.0  0.53155  0.24869  0.02643  1.0000
  H   H266      1.0  0.00686  0.3814  0.9611900000000001  1.0000
  H   H267      1.0  0.08526999999999998  0.4748  0.86774  1.0000
  H   H268      1.0  0.59341  0.21500000000000002  0.50031  1.0000
  H   H269      1.0  0.53909  0.259  0.46713  1.0000
  H   H270      1.0  0.51504  0.27933  0.51364  1.0000
  H   H271      1.0  0.74042  0.05104999999999999  0.6309  1.0000
  H   H272      1.0  0.52026  0.33604  0.58395  1.0000
  H   H273      1.0  0.67837  0.12636  0.52966  1.0000
  H   H274      1.0  0.55039  0.18575  0.40853  1.0000
  H   H275      1.0  0.45498999999999995  0.17136  0.44387  1.0000
  H   H276      1.0  0.4086  0.20927000000000004  0.40641  1.0000
  H   H277      1.0  0.9612499999999999  0.53222  0.52368  1.0000
  H   H278      1.0  0.41951  0.87682  0.63461  1.0000
  H   H279      1.0  0.9339799999999999  0.09183000000000001  0.63234  1.0000
  H   H280      1.0  0.58043  0.66528  0.9170600000000001  1.0000
  H   H281      1.0  0.16888  0.35951000000000005  0.5623  1.0000
  H   H282      1.0  0.93072  0.39124  0.33319  1.0000
  H   H283      1.0  0.89721  0.31724  0.33893  1.0000
  H   H284      1.0  0.03955  0.33791  0.33418  1.0000
  H   H285      1.0  0.27524  0.43014  0.86488  1.0000
  H   H286      1.0  0.72423  0.39224  0.15256  1.0000
  H   H287      1.0  0.83509  0.34096  0.14324  1.0000
  H   H288      1.0  0.69343  0.31834  0.13829  1.0000
  H   H289      1.0  0.32538  0.29601  0.57818  1.0000
  H   H290      1.0  0.57007  0.98325  0.06732  1.0000
  H   H291      1.0  0.3308  0.35949000000000003  0.9095100000000002  1.0000
  H   H292      1.0  0.14914  0.13487  0.05569999999999999  1.0000
  H   H293      1.0  0.10443  0.19101000000000004  0.08837  1.0000
  H   H294      1.0  0.12241  0.11894  0.10153  1.0000
  H   H295      1.0  0.8719099999999999  0.16674  0.53086  1.0000
  H   H296      1.0  0.28236  0.95548  0.97265  1.0000
  H   H297      1.0  0.19561999999999996  0.33554  0.95787  1.0000
  H   H298      1.0  0.16711  0.86561  0.96955  1.0000
  H   H299      1.0  0.0008099999999999998  0.14893  0.58201  1.0000
  H   H300      1.0  0.33351  0.9338900000000001  0.85694  1.0000
  H   H301      1.0  0.52665  0.13742  0.34538  1.0000
  H   H302      1.0  0.38398  0.15917000000000003  0.34604  1.0000
  H   H303      1.0  0.41882  0.0846  0.33553  1.0000
  H   H304      1.0  0.73525  0.64239  0.87253  1.0000
  H   H305      1.0  0.55582  0.43971000000000005  0.57286  1.0000
  H   H306      1.0  0.50832  0.12937000000000004  0.9503400000000001  1.0000
  H   H307      1.0  0.9336  0.64147  0.64484  1.0000
  H   H308      1.0  0.46929  0.13104  0.61826  1.0000
  H   H309      1.0  0.9714299999999999  0.40641  0.61488  1.0000
  H   H310      1.0  0.24647  0.8886900000000001  0.53316  1.0000
  H   H311      1.0  0.26012  0.8473400000000001  0.5932  1.0000
  H   H312      1.0  0.85111  0.62363  0.53096  1.0000
  H   H313      1.0  0.8352199999999999  0.67857  0.59152  1.0000
  H   H314      1.0  0.13282  0.80955  0.9101799999999999  1.0000
  H   H315      1.0  0.21793  0.8437  0.85379  1.0000
  H   H316      1.0  0.83039  0.13984999999999997  0.89778  1.0000
  H   H317      1.0  0.665  0.18868999999999994  0.9283699999999999  1.0000
  H   H318      1.0  0.83533  0.03107  0.8885399999999999  1.0000
  H   H319      1.0  0.8385400000000001  0.22995  0.9584600000000001  1.0000
  H   H320      1.0  0.92528  0.29193  0.9698700000000001  1.0000
  H   H321      1.0  0.85854  0.25541  0.00441  1.0000
  H   H322      1.0  0.67955  0.97201  0.9105  1.0000
  C   C1        1.0  0.14678  0.66361  0.061489999999999996  1.0000
  C   C2        1.0  0.07541  0.7282900000000001  0.12688  1.0000
  C   C3        1.0  0.28371  0.61305  0.10029  1.0000
  C   C4        1.0  0.41000000000000003  0.4873  0.0535  1.0000
  C   C5        1.0  0.16095  0.6872  0.1279  1.0000
  C   C6        1.0  0.05368  0.7041000000000001  0.06053999999999999  1.0000
  C   C7        1.0  0.4212  0.51659  0.95483  1.0000
  C   C8        1.0  0.34034  0.56177  0.9493799999999999  1.0000
  C   C9        1.0  0.4881  0.4926  0.9259700000000001  1.0000
  C   C10       1.0  0.99325  0.7148900000000001  0.0249  1.0000
  C   C11       1.0  0.39758  0.55637  0.88623  1.0000
  C   C12       1.0  0.32956  0.58189  0.91333  1.0000
  C   C13       1.0  0.41796999999999995  0.53834  0.08317  1.0000
  C   C14       1.0  0.19663  0.65465  0.09613  1.0000
  C   C15       1.0  0.8458599999999998  0.83675  0.41726  1.0000
  C   C16       1.0  0.8062  0.83119  0.4536  1.0000
  C   C17       1.0  0.70776  0.79582  0.45837  1.0000
  C   C18       1.0  0.78516  0.8128  0.3869  1.0000
  C   C19       1.0  0.68402  0.7840100000000001  0.39135  1.0000
  C   C20       1.0  0.6772  0.52177  0.44939  1.0000
  C   C21       1.0  0.68109  0.51824  0.51411  1.0000
  C   C22       1.0  0.16211  0.7967900000000001  0.3203  1.0000
  C   C23       1.0  0.54921  0.59032  0.59977  1.0000
  C   C24       1.0  0.56685  0.57459  0.56148  1.0000
  C   C25       1.0  0.65344  0.53308  0.5512  1.0000
  C   C26       1.0  0.87134  0.91354  0.9503100000000001  1.0000
  C   C27       1.0  0.77192  0.91297  0.1003  1.0000
  C   C28       1.0  0.88846  0.99363  0.08479  1.0000
  C   C29       1.0  0.08419  0.94444  0.42076  1.0000
  C   C30       1.0  0.01584  0.94659  0.55728  1.0000
  C   C31       1.0  0.0787  0.0005600000000000006  0.44682  1.0000
  C   C32       1.0  0.10513  0.007239999999999994  0.51142  1.0000
  C   C33       1.0  0.65253  0.84866  0.05845999999999999  1.0000
  C   C34       1.0  0.98643  0.99104  0.05726  1.0000
  C   C35       1.0  0.0909  0.99244  0.54796  1.0000
  C   C36       1.0  0.37203  0.64729  0.42405  1.0000
  C   C37       1.0  0.77126  0.56334  0.44082  1.0000
  C   C38       1.0  0.57705  0.52206  0.42308  1.0000
  C   C39       1.0  0.19628  0.72425  0.43973999999999996  1.0000
  C   C40       1.0  0.56234  0.80648  0.05491  1.0000
  C   C41       1.0  0.65104  0.77417  0.4273  1.0000
  C   C42       1.0  0.23922999999999997  0.71816  0.4038  1.0000
  C   C43       1.0  0.53158  0.77908  0.08558  1.0000
  C   C44       1.0  0.33199  0.65665  0.4608999999999999  1.0000
  C   C45       1.0  0.32588  0.67825  0.39611  1.0000
  C   C46       1.0  0.18723  0.7520400000000002  0.37707  1.0000
  C   C47       1.0  0.04739  0.76338  0.15986  1.0000
  C   C48       1.0  0.43889  0.4956600000000001  0.98971  1.0000
  C   C49       1.0  0.7150500000000001  0.50586  0.57772  1.0000
  C   C50       1.0  0.31614  0.4445  0.06117  1.0000
  C   C51       1.0  0.60855  0.7674800000000002  0.36131  1.0000
  C   C52       1.0  0.9827099999999999  0.9826700000000002  0.9921400000000001  1.0000
  C   C53       1.0  0.50289  0.79245  0.01844  1.0000
  C   C54       1.0  0.55485  0.49101  0.86301  1.0000
  C   C55       1.0  0.78051  0.83382  0.90558  1.0000
  C   C56       1.0  0.4941999999999999  0.70823  0.15057  1.0000
  C   C57       1.0  0.15529  0.007620000000000004  0.61053  1.0000
  C   C58       1.0  0.46359  0.63769  0.61245  1.0000
  C   C59       1.0  0.51051  0.46521000000000007  0.41992  1.0000
  C   C60       1.0  0.85658  0.8872900000000001  0.9136499999999999  1.0000
  C   C61       1.0  0.89021  0.75486  0.03157  1.0000
  C   C62       1.0  0.60108  0.7949500000000002  0.33026  1.0000
  C   C63       1.0  0.12825  0.61762  0.91571  1.0000
  C   C64       1.0  0.97227  0.8078300000000002  0.16342  1.0000
  C   C65       1.0  0.54339  0.7617400000000001  0.1519  1.0000
  C   C66       1.0  0.08314  0.9533  0.06877  1.0000
  C   C67       1.0  0.9318  0.8843000000000001  0.60656  1.0000
  C   C68       1.0  0.01006  0.93265  0.5949  1.0000
  C   C69       1.0  0.65657  0.83749  0.12468  1.0000
  C   C70       1.0  0.9505200000000001  0.65688  0.00571  1.0000
  C   C71       1.0  0.25055  0.63244  0.90579  1.0000
  C   C72       1.0  0.757  0.4863700000000001  0.64036  1.0000
  C   C73       1.0  0.45722  0.68064  0.18316  1.0000
  C   C74       1.0  0.29033  0.68816  0.9283999999999999  1.0000
  C   C75       1.0  0.88128  0.5416  0.43839  1.0000
  C   C76       1.0  0.9161999999999999  0.9108900000000001  0.88617  1.0000
  C   C77       1.0  0.57814  0.79235  0.12072  1.0000
  C   C78       1.0  0.07976  0.963  0.61967  1.0000
  C   C79       1.0  0.22769  0.76179  0.34377  1.0000
  C   C80       1.0  0.51366  0.77893  0.30307  1.0000
  C   C81       1.0  0.8254099999999999  0.78315  0.92682  1.0000
  C   C82       1.0  0.02208  0.7343  0.09293  1.0000
  C   C83       1.0  0.35194  0.058640000000000005  0.68747  1.0000
  C   C84       1.0  0.75051  0.49029  0.67704  1.0000
  C   C85       1.0  0.23476  0.03568  0.63523  1.0000
  C   C86       1.0  0.12708  0.99646  0.80334  1.0000
  C   C87       1.0  0.15717  0.022520000000000005  0.57463  1.0000
  C   C88       1.0  0.81808  0.4512900000000001  0.69861  1.0000
  C   C89       1.0  0.22931999999999997  0.43087000000000003  0.03636  1.0000
  C   C90       1.0  0.64579  0.48685999999999996  0.80342  1.0000
  C   C91       1.0  0.05128  0.96662  0.82678  1.0000
  C   C92       1.0  0.26764  0.7328300000000001  0.53333  1.0000
  C   C93       1.0  0.31745  0.41724  0.09394  1.0000
  C   C94       1.0  0.78134  0.81256  0.86496  1.0000
  C   C95       1.0  0.14966  0.64241  0.51869  1.0000
  C   C96       1.0  0.7565299999999999  0.75265  0.51715  1.0000
  C   C97       1.0  0.81801  0.04904000000000001  0.08504  1.0000
  C   C98       1.0  0.34415  0.61994  0.59922  1.0000
  C   C99       1.0  0.052550000000000006  0.9827800000000001  0.86293  1.0000
  C   C100      1.0  0.26149  0.024829999999999998  0.67004  1.0000
  C   C101      1.0  0.58596  0.7618600000000001  0.9910300000000001  1.0000
  C   C102      1.0  0.4997  0.69604  0.59743  1.0000
  C   C103      1.0  0.14512  0.39123  0.04427  1.0000
  C   C104      1.0  0.80852  0.90032  0.59865  1.0000
  C   C105      1.0  0.56079  0.7436  0.4940300000000001  1.0000
  C   C106      1.0  0.62972  0.84167  0.51735  1.0000
  C   C107      1.0  0.18394999999999997  0.70255  0.50604  1.0000
  C   C108      1.0  0.50231  0.4337500000000001  0.38593  1.0000
  C   C109      1.0  0.55782  0.50756  0.82853  1.0000
  C   C110      1.0  0.45779  0.84936  0.00366  1.0000
  C   C111      1.0  0.47859  0.51222  0.89141  1.0000
  C   C112      1.0  0.66447  0.7836800000000002  0.49621000000000004  1.0000
  C   C113      1.0  0.89723  0.059190000000000006  0.45938999999999997  1.0000
  C   C114      1.0  0.98671  0.04240000000000001  0.43627  1.0000
  C   C115      1.0  0.53231  0.56802  0.08467  1.0000
  C   C116      1.0  0.69494  0.51842  0.61456  1.0000
  C   C117      1.0  0.61248  0.56167  0.62445  1.0000
  C   C118      1.0  0.19901  0.9157  0.4201  1.0000
  C   C119      1.0  0.99378  0.06606000000000001  0.40238  1.0000
  C   C120      1.0  0.07491  0.74412  0.99916  1.0000
  C   C121      1.0  0.56492  0.60756  0.05950999999999999  1.0000
  C   C122      1.0  0.60847  0.55489  0.11186  1.0000
  C   C123      1.0  0.0764  0.7398100000000001  0.50599  1.0000
  C   C124      1.0  0.27172  0.92447  0.39111  1.0000
  C   C125      1.0  0.9505  0.63608  0.42336  1.0000
  C   C126      1.0  0.23616  0.88243  0.4480199999999999  1.0000
  C   C127      1.0  0.96351  0.8255200000000001  0.58577  1.0000
  C   C128      1.0  0.45550999999999997  0.44364  0.44972000000000006  1.0000
  C   C129      1.0  0.91271  0.10535000000000001  0.39177  1.0000
  C   C130      1.0  0.38034  0.90126  0.39026  1.0000
  C   C131      1.0  0.14633  0.36475  0.07704  1.0000
  C   C132      1.0  0.75239  0.62248  0.43521000000000004  1.0000
  C   C133      1.0  0.4585  0.6478700000000001  0.65414  1.0000
  C   C134      1.0  0.71532  0.58032  0.11373  1.0000
  C   C135      1.0  0.25178  0.64565  0.86551  1.0000
  C   C136      1.0  0.84149  0.6585  0.42642  1.0000
  C   C137      1.0  0.01031  0.98164  0.92727  1.0000
  C   C138      1.0  0.69495  0.86541  0.09422  1.0000
  C   C139      1.0  0.9525700000000001  0.95975  0.9565  1.0000
  C   C140      1.0  0.99228  0.95838  0.8918700000000002  1.0000
  C   C141      1.0  0.74699  0.61985  0.0886  1.0000
  C   C142      1.0  0.65736  0.84852  0.91616  1.0000
  C   C143      1.0  0.34478  0.85927  0.44722  1.0000
  C   C144      1.0  0.77009  0.0686  0.05341  1.0000
  C   C145      1.0  0.67137  0.63339  0.06153  1.0000
  C   C146      1.0  0.70461  0.11931000000000001  0.05509  1.0000
  C   C147      1.0  0.41728  0.86889  0.4185  1.0000
  C   C148      1.0  0.79896  0.0814  0.11825  1.0000
  C   C149      1.0  0.9415  0.87586  0.64741  1.0000
  C   C150      1.0  0.23303999999999997  0.37782  0.10188  1.0000
  C   C151      1.0  0.97034  0.57774  0.42964  1.0000
  C   C152      1.0  0.08078  0.89207  0.06359  1.0000
  C   C153      1.0  0.43997  0.38194  0.38177  1.0000
  C   C154      1.0  0.94185  0.87126  0.40985  1.0000
  C   C155      1.0  0.4531  0.60292  0.41425  1.0000
  C   C156      1.0  0.8162899999999998  0.09869  0.44880000000000003  1.0000
  C   C157      1.0  0.82349  0.12182  0.41502  1.0000
  C   C158      1.0  0.39337  0.39188000000000006  0.44561000000000006  1.0000
  C   C159      1.0  0.38503  0.36099  0.4116  1.0000
  C   C160      1.0  0.68577  0.1511  0.08839  1.0000
  C   C161      1.0  0.73335  0.13214  0.11999  1.0000
  C   C162      1.0  0.95069  0.84085  0.19829  1.0000
  C   C163      1.0  0.26172  0.8860400000000002  0.09318  1.0000
  C   C164      1.0  0.16946  0.8587  0.07569  1.0000
  C   C165      1.0  0.23735  0.69485  0.46825999999999995  1.0000
  C   C166      1.0  0.26459  0.94701  0.09844  1.0000
  C   C167      1.0  0.4014  0.75167  0.02216  1.0000
  C   C168      1.0  0.17621  0.98044  0.08614  1.0000
  C   C169      1.0  0.64848  0.33602  0.93837  1.0000
  C   C170      1.0  0.57585  0.27136999999999994  0.8729599999999998  1.0000
  C   C171      1.0  0.78479  0.38676000000000005  0.89946  1.0000
  C   C172      1.0  0.9110199999999999  0.51253  0.9463100000000001  1.0000
  C   C173      1.0  0.66145  0.31254  0.8718400000000001  1.0000
  C   C174      1.0  0.55503  0.29568999999999995  0.93939  1.0000
  C   C175      1.0  0.92101  0.48352  0.04506  1.0000
  C   C176      1.0  0.8397  0.43848  0.05051  1.0000
  C   C177      1.0  0.988  0.50749  0.07392  1.0000
  C   C178      1.0  0.49425  0.28517  0.9750599999999999  1.0000
  C   C179      1.0  0.8973  0.44379  0.11364  1.0000
  C   C180      1.0  0.82895  0.41842  0.08658  1.0000
  C   C181      1.0  0.91927  0.4615000000000001  0.9166  1.0000
  C   C182      1.0  0.69776  0.34503  0.9036200000000001  1.0000
  C   C183      1.0  0.34352  0.16345  0.58289  1.0000
  C   C184      1.0  0.30383  0.16885  0.54657  1.0000
  C   C185      1.0  0.20572  0.20444  0.54188  1.0000
  C   C186      1.0  0.28308  0.18762  0.6133  1.0000
  C   C187      1.0  0.18222  0.21672  0.60894  1.0000
  C   C188      1.0  0.1786  0.4784300000000001  0.55063  1.0000
  C   C189      1.0  0.18226  0.48210000000000003  0.4858700000000001  1.0000
  C   C190      1.0  0.65998  0.20334  0.67966  1.0000
  C   C191      1.0  0.04973999999999999  0.40961  0.40037  1.0000
  C   C192      1.0  0.06824  0.42488  0.43866  1.0000
  C   C193      1.0  0.15402  0.46705  0.44884999999999997  1.0000
  C   C194      1.0  0.37010000000000004  0.08647  0.04988  1.0000
  C   C195      1.0  0.27093  0.08685000000000002  0.89994  1.0000
  C   C196      1.0  0.38745  0.006259999999999997  0.91537  1.0000
  C   C197      1.0  0.58233  0.056150000000000005  0.57918  1.0000
  C   C198      1.0  0.51388  0.052450000000000004  0.44261000000000006  1.0000
  C   C199      1.0  0.57745  0.9999200000000001  0.5532  1.0000
  C   C200      1.0  0.60479  0.99306  0.48863000000000006  1.0000
  C   C201      1.0  0.15088  0.15103  0.9417  1.0000
  C   C202      1.0  0.48518  0.008900000000000003  0.94294  1.0000
  C   C203      1.0  0.59047  0.0073899999999999895  0.45199999999999996  1.0000
  C   C204      1.0  0.8735499999999999  0.35256  0.57607  1.0000
  C   C205      1.0  0.27237  0.43676000000000004  0.55923  1.0000
  C   C206      1.0  0.07828  0.47808000000000006  0.57694  1.0000
  C   C207      1.0  0.6972500000000001  0.27592  0.56036  1.0000
  C   C208      1.0  0.061090000000000005  0.19342000000000004  0.94524  1.0000
  C   C209      1.0  0.14924  0.22648  0.57296  1.0000
  C   C210      1.0  0.73984  0.28204  0.59635  1.0000
  C   C211      1.0  0.030720000000000004  0.22086  0.91456  1.0000
  C   C212      1.0  0.8338  0.34316  0.53919  1.0000
  C   C213      1.0  0.82687  0.32176  0.60403  1.0000
  C   C214      1.0  0.68697  0.24831  0.62303  1.0000
  C   C215      1.0  0.54728  0.23594000000000007  0.84008  1.0000
  C   C216      1.0  0.93908  0.50452  0.0102  1.0000
  C   C217      1.0  0.21499  0.49454  0.42224  1.0000
  C   C218      1.0  0.81691  0.55521  0.93871  1.0000
  C   C219      1.0  0.10700000000000001  0.23342  0.63913  1.0000
  C   C220      1.0  0.48186  0.01757  0.00802  1.0000
  C   C221      1.0  0.0017900000000000004  0.20764  0.98174  1.0000
  C   C222      1.0  0.05472  0.50896  0.13696  1.0000
  C   C223      1.0  0.27989  0.16618  0.09463  1.0000
  C   C224      1.0  0.99372  0.29104  0.8492  1.0000
  C   C225      1.0  0.65531  0.9926299999999998  0.38944  1.0000
  C   C226      1.0  0.96391  0.36230000000000007  0.38775  1.0000
  C   C227      1.0  0.01131  0.53477  0.58006  1.0000
  C   C228      1.0  0.35596999999999995  0.11274000000000002  0.08657  1.0000
  C   C229      1.0  0.39078  0.24543  0.9684899999999999  1.0000
  C   C230      1.0  0.09918  0.20562  0.67007  1.0000
  C   C231      1.0  0.62755  0.38245  0.08441  1.0000
  C   C232      1.0  0.47174  0.19158  0.8367  1.0000
  C   C233      1.0  0.04296  0.23759000000000002  0.84814  1.0000
  C   C234      1.0  0.58203  0.04666000000000002  0.93145  1.0000
  C   C235      1.0  0.4310300000000001  0.11542000000000001  0.39353  1.0000
  C   C236      1.0  0.50894  0.06694  0.40509  1.0000
  C   C237      1.0  0.1556  0.16213  0.8755299999999999  1.0000
  C   C238      1.0  0.45212  0.34343000000000007  0.9941199999999999  1.0000
  C   C239      1.0  0.75  0.36787  0.0942  1.0000
  C   C240      1.0  0.25728  0.51329  0.35946  1.0000
  C   C241      1.0  0.95683  0.31750999999999996  0.81626  1.0000
  C   C242      1.0  0.79007  0.3123  0.07152  1.0000
  C   C243      1.0  0.38247  0.45838000000000007  0.56169  1.0000
  C   C244      1.0  0.41619  0.08934  0.11399999999999999  1.0000
  C   C245      1.0  0.07733  0.20729  0.87944  1.0000
  C   C246      1.0  0.57963  0.03718000000000001  0.38035  1.0000
  C   C247      1.0  0.72625  0.23852  0.65645  1.0000
  C   C248      1.0  0.011579999999999998  0.22090000000000004  0.69743  1.0000
  C   C249      1.0  0.32492  0.21664  0.0732  1.0000
  C   C250      1.0  0.52287  0.26557  0.90702  1.0000
  C   C251      1.0  0.85173  0.9411600000000001  0.31245  1.0000
  C   C252      1.0  0.25211  0.50816  0.32277  1.0000
  C   C253      1.0  0.73455  0.96466  0.36458  1.0000
  C   C254      1.0  0.62755  0.0021400000000000013  0.19651  1.0000
  C   C255      1.0  0.65737  0.9776400000000001  0.42533  1.0000
  C   C256      1.0  0.32089  0.54648  0.30111  1.0000
  C   C257      1.0  0.7301999999999998  0.56872  0.96361  1.0000
  C   C258      1.0  0.14395  0.51428  0.19685  1.0000
  C   C259      1.0  0.55283  0.03313  0.17328  1.0000
  C   C260      1.0  0.76849  0.26724  0.46662999999999993  1.0000
  C   C261      1.0  0.81803  0.58259  0.9059699999999999  1.0000
  C   C262      1.0  0.28096  0.18761  0.13521  1.0000
  C   C263      1.0  0.65131  0.35788  0.48155999999999993  1.0000
  C   C264      1.0  0.25591  0.2473400000000001  0.4832000000000001  1.0000
  C   C265      1.0  0.31732  0.95071  0.9149800000000001  1.0000
  C   C266      1.0  0.84451  0.38007  0.40107  1.0000
  C   C267      1.0  0.55248  0.01702  0.13711  1.0000
  C   C268      1.0  0.76161  0.9755100000000002  0.32977  1.0000
  C   C269      1.0  0.08502  0.2381  0.00914  1.0000
  C   C270      1.0  0.99967  0.30387  0.4027  1.0000
  C   C271      1.0  0.64595  0.60837  0.95584  1.0000
  C   C272      1.0  0.30746  0.09963000000000001  0.40124  1.0000
  C   C273      1.0  0.05972  0.2567499999999999  0.50601  1.0000
  C   C274      1.0  0.12832  0.15858000000000005  0.48277  1.0000
  C   C275      1.0  0.6852499999999999  0.29757000000000006  0.49407000000000006  1.0000
  C   C276      1.0  0.0028600000000000006  0.56625  0.61404  1.0000
  C   C277      1.0  0.057089999999999995  0.49273  0.17155  1.0000
  C   C278      1.0  0.95614  0.15093  0.99665  1.0000
  C   C279      1.0  0.97856  0.48783  0.10849  1.0000
  C   C280      1.0  0.16306  0.21652  0.50398  1.0000
  C   C281      1.0  0.39647999999999994  0.94082  0.54064  1.0000
  C   C282      1.0  0.48587  0.95781  0.56372  1.0000
  C   C283      1.0  0.03371  0.43198  0.9151  1.0000
  C   C284      1.0  0.19480999999999998  0.48181000000000007  0.38544  1.0000
  C   C285      1.0  0.11237999999999998  0.43854  0.37564  1.0000
  C   C286      1.0  0.6971999999999999  0.08492  0.57979  1.0000
  C   C287      1.0  0.49334  0.9341100000000001  0.59758  1.0000
  C   C288      1.0  0.57525  0.25589  0.0009400000000000001  1.0000
  C   C289      1.0  0.06607  0.3924500000000001  0.94028  1.0000
  C   C290      1.0  0.11009  0.44509  0.8879399999999998  1.0000
  C   C291      1.0  0.57742  0.26045  0.49417  1.0000
  C   C292      1.0  0.7697499999999999  0.07587  0.60875  1.0000
  C   C293      1.0  0.45102  0.36378  0.57668  1.0000
  C   C294      1.0  0.7349699999999999  0.11801  0.55184  1.0000
  C   C295      1.0  0.46322  0.17394000000000004  0.41455  1.0000
  C   C296      1.0  0.95597  0.5561  0.55028  1.0000
  C   C297      1.0  0.41261  0.89465  0.60824  1.0000
  C   C298      1.0  0.8787  0.09872  0.6096  1.0000
  C   C299      1.0  0.64692  0.63494  0.9231000000000001  1.0000
  C   C300      1.0  0.25311  0.37763  0.56477  1.0000
  C   C301      1.0  0.95848  0.35208  0.34607  1.0000
  C   C302      1.0  0.21686  0.41958  0.88609  1.0000
  C   C303      1.0  0.75154  0.35458  0.13446  1.0000
  C   C304      1.0  0.3419  0.34149  0.57357  1.0000
  C   C305      1.0  0.50977  0.01864  0.07283  1.0000
  C   C306      1.0  0.19375999999999996  0.13428  0.9059999999999999  1.0000
  C   C307      1.0  0.45181  0.04051  0.04366  1.0000
  C   C308      1.0  0.49216  0.0418  0.10829  1.0000
  C   C309      1.0  0.24822  0.38003  0.91124  1.0000
  C   C310      1.0  0.15663  0.15154  0.08418  1.0000
  C   C311      1.0  0.8439300000000001  0.14082  0.55264  1.0000
  C   C312      1.0  0.26955  0.9309299999999998  0.9465899999999999  1.0000
  C   C313      1.0  0.17239999999999997  0.36656  0.9383  1.0000
  C   C314      1.0  0.20418  0.88016  0.9448499999999999  1.0000
  C   C315      1.0  0.91615  0.13102  0.58138  1.0000
  C   C316      1.0  0.2983  0.91852  0.8817099999999999  1.0000
  C   C317      1.0  0.44142  0.12411  0.35273  1.0000
  C   C318      1.0  0.73349  0.62198  0.89817  1.0000
  C   C319      1.0  0.47124999999999995  0.42211  0.57044  1.0000
  C   C320      1.0  0.57967  0.10789000000000003  0.9365400000000002  1.0000
  C   C321      1.0  0.94016  0.61792  0.6182  1.0000
  C   C322      1.0  0.43970999999999993  0.12907  0.59016  1.0000
  C   C323      1.0  0.95456  0.39703000000000005  0.58582  1.0000
  C   C324      1.0  0.31589  0.90113  0.5513  1.0000
  C   C325      1.0  0.32335  0.87804  0.58507  1.0000
  C   C326      1.0  0.89351  0.60773  0.55438  1.0000
  C   C327      1.0  0.88511  0.63871  0.58836  1.0000
  C   C328      1.0  0.18539000000000003  0.84853  0.9115  1.0000
  C   C329      1.0  0.23283  0.8677  0.87992  1.0000
  C   C330      1.0  0.4488  0.15831999999999996  0.80192  1.0000
  C   C331      1.0  0.76087  0.11388000000000002  0.9070100000000001  1.0000
  C   C332      1.0  0.66849  0.14123  0.9244200000000001  1.0000
  C   C333      1.0  0.7388599999999999  0.30511999999999995  0.53182  1.0000
  C   C334      1.0  0.76373  0.05289  0.90182  1.0000
  C   C335      1.0  0.90071  0.24862999999999996  0.9780299999999998  1.0000
  C   C336      1.0  0.67524  0.01951  0.91414  1.0000
  N   N1        1.0  0.32557  0.57813  0.07408  1.0000
  N   N2        1.0  0.38982  0.51592  0.01976  1.0000
  N   N3        1.0  0.05969000000000001  0.9792700000000001  0.48295000000000005  1.0000
  N   N4        1.0  0.99301  0.90711  0.43365  1.0000
  N   N5        1.0  0.50507  0.57157  0.43721000000000004  1.0000
  N   N6        1.0  0.62966  0.53744  0.48612  1.0000
  N   N7        1.0  0.82005  0.9406900000000001  0.07473  1.0000
  N   N8        1.0  0.93691  0.96782  0.02225  1.0000
  N   N9        1.0  0.82718  0.42146  0.9257  1.0000
  N   N10       1.0  0.89111  0.4839  0.9800700000000001  1.0000
  N   N11       1.0  0.55853  0.02097  0.51701  1.0000
  N   N12       1.0  0.49081  0.09323  0.5663  1.0000
  N   N13       1.0  0.0066  0.42841  0.56285  1.0000
  N   N14       1.0  0.13134  0.46273  0.51392  1.0000
  N   N15       1.0  0.31859  0.05899  0.9255  1.0000
  N   N16       1.0  0.43533  0.032019999999999986  0.9779499999999999  1.0000
  Cl  Cl1       1.0  0.18892999999999996  0.68485  0.2373  1.0000
  Cl  Cl2       1.0  0.68572  0.31292  0.76359  1.0000
  O   O1        1.0  0.18317  0.63664  0.031120000000000002  1.0000
  O   O2        1.0  0.27841  0.58573  0.97578  1.0000
  O   O3        1.0  0.85725  0.8568600000000001  0.4821  1.0000
  O   O4        1.0  0.20023  0.8114500000000001  0.28924  1.0000
  O   O5        1.0  0.79984  0.4604  0.73445  1.0000
  O   O6        1.0  0.45777  0.70818  0.21448  1.0000
  O   O7        1.0  0.72494  0.45453  0.81237  1.0000
  O   O8        1.0  0.954  0.91726  0.53302  1.0000
  O   O9        1.0  0.42360000000000003  0.62651  0.17806  1.0000
  O   O10       1.0  0.06333  0.81424  0.33046  1.0000
  O   O11       1.0  0.45748999999999995  0.73145  0.30531  1.0000
  O   O12       1.0  0.37725999999999993  0.63096  0.48775  1.0000
  O   O13       1.0  0.50308  0.59786  0.53744  1.0000
  O   O14       1.0  0.49209  0.81443  0.27854  1.0000
  O   O15       1.0  0.0147  0.83138  0.22543  1.0000
  O   O16       1.0  0.13602  0.98113  0.76928  1.0000
  O   O17       1.0  0.86856  0.87705  0.19841  1.0000
  O   O18       1.0  0.6911399999999999  0.8711600000000002  0.029320000000000002  1.0000
  O   O19       1.0  0.81174  0.89421  0.9765799999999999  1.0000
  O   O20       1.0  0.38384  0.05115  0.72109  1.0000
  O   O21       1.0  0.88471  0.41385  0.68547  1.0000
  O   O22       1.0  0.63486  0.50626  0.77048  1.0000
  O   O23       1.0  0.40547  0.09682000000000002  0.67104  1.0000
  O   O24       1.0  0.18867  0.03879  0.81815  1.0000
  O   O25       1.0  0.68547  0.36287  0.9687100000000001  1.0000
  O   O26       1.0  0.7774  0.41466000000000003  0.02411  1.0000
  O   O27       1.0  0.35459000000000007  0.14298  0.51802  1.0000
  O   O28       1.0  0.69758  0.18833  0.71072  1.0000
  O   O29       1.0  0.30261  0.53742  0.26527  1.0000
  O   O30       1.0  0.9596600000000001  0.28910999999999987  0.78525  1.0000
  O   O31       1.0  0.22372  0.54584  0.18747  1.0000
  O   O32       1.0  0.45009  0.08063  0.46682999999999997  1.0000
  O   O33       1.0  0.92101  0.37128  0.82091  1.0000
  O   O34       1.0  0.5612800000000001  0.18604999999999997  0.6694  1.0000
  O   O35       1.0  0.9555  0.26855  0.69595  1.0000
  O   O36       1.0  0.87959  0.36875  0.51237  1.0000
  O   O37       1.0  0.006379999999999999  0.40031  0.46273  1.0000
  O   O38       1.0  0.98963  0.18436  0.72134  1.0000
  O   O39       1.0  0.51407  0.16611  0.77477  1.0000
  O   O40       1.0  0.63843  0.01759  0.23056  1.0000
  O   O41       1.0  0.36447000000000007  0.12354000000000001  0.80178  1.0000
  O   O42       1.0  0.1889  0.12846  0.97087  1.0000
  O   O43       1.0  0.30969  0.10553000000000001  0.02368  1.0000
  O   O44       1.0  0.8854799999999999  0.94871  0.27896  1.0000
  O   O45       1.0  0.38871  0.58324  0.31433  1.0000
  O   O46       1.0  0.13168  0.49689000000000005  0.23027000000000003  1.0000
  O   O47       1.0  0.9032  0.9024700000000001  0.32894  1.0000
  O   O48       1.0  0.68613  0.95872  0.18177  1.0000
