data_image0
_chemical_formula_structural       Zn8H352C424N36O32
_chemical_formula_sum              "Zn8 H352 C424 N36 O32"
_cell_length_a       20.32803
_cell_length_b       26.87635
_cell_length_c       29.3408
_cell_angle_alpha    84.19887
_cell_angle_beta     69.80598
_cell_angle_gamma    67.79529

_space_group_name_H-M_alt    "P 1"
_space_group_IT_number       1

loop_
  _space_group_symop_operation_xyz
  'x, y, z'

loop_
  _atom_site_type_symbol
  _atom_site_label
  _atom_site_symmetry_multiplicity
  _atom_site_fract_x
  _atom_site_fract_y
  _atom_site_fract_z
  _atom_site_occupancy
  Zn  Zn1       1.0  0.6296899999999999  0.12471  0.43965  1.0000
  Zn  Zn2       1.0  0.46551  0.45215  0.37096999999999997  1.0000
  Zn  Zn3       1.0  0.69123  0.37547  0.06156  1.0000
  Zn  Zn4       1.0  0.7870600000000001  0.052300000000000006  0.13127  1.0000
  Zn  Zn5       1.0  0.37026  0.87435  0.56166  1.0000
  Zn  Zn6       1.0  0.5297799999999999  0.55163  0.63053  1.0000
  Zn  Zn7       1.0  0.30625999999999987  0.62495  0.94012  1.0000
  Zn  Zn8       1.0  0.21313999999999997  0.95041  0.87135  1.0000
  H   H1        1.0  0.08909000000000002  0.33068999999999993  0.29556  1.0000
  H   H2        1.0  0.09955000000000001  0.39184  0.34719  1.0000
  H   H3        1.0  0.19802999999999985  0.28621  0.22168  1.0000
  H   H4        1.0  0.40935000000000005  0.2817  0.27642  1.0000
  H   H5        1.0  0.35104999999999986  0.32916999999999996  0.32563000000000003  1.0000
  H   H6        1.0  0.53439  0.29101  0.21849  1.0000
  H   H7        1.0  0.6327900000000002  0.32902  0.2137  1.0000
  H   H8        1.0  0.60269  0.40118  0.27161  1.0000
  H   H9        1.0  0.38854  0.3966299999999999  0.34401999999999994  1.0000
  H   H10       1.0  0.35257  0.24396  0.19613  1.0000
  H   H11       1.0  0.38669  0.29715  0.18897  1.0000
  H   H12       1.0  0.25372999999999984  0.26107  0.06803  1.0000
  H   H13       1.0  0.29966  0.2296  0.13821  1.0000
  H   H14       1.0  0.23813999999999994  0.35331  0.03884  1.0000
  H   H15       1.0  0.4551799999999997  0.46709  0.22306  1.0000
  H   H16       1.0  0.3732300000000001  0.42908  0.20119999999999996  1.0000
  H   H17       1.0  0.5603  0.36257  0.07033  1.0000
  H   H18       1.0  0.5870799999999999  0.44784999999999997  0.16862999999999997  1.0000
  H   H19       1.0  0.4319299999999999  0.37043  0.07797  1.0000
  H   H20       1.0  0.44765  0.32014  0.12091  1.0000
  H   H21       1.0  0.26359  0.43513  0.03771  1.0000
  H   H22       1.0  0.32137  0.43943  0.06939  1.0000
  H   H23       1.0  0.011140000000000006  0.50726  0.14994  1.0000
  H   H24       1.0  0.1274  0.44571  0.0896  1.0000
  H   H25       1.0  0.02207  0.56315  0.20718  1.0000
  H   H26       1.0  0.25462000000000007  0.5831  0.12715  1.0000
  H   H27       1.0  0.34061  0.54467  0.13849  1.0000
  H   H28       1.0  0.43098  0.45997  0.0708  1.0000
  H   H29       1.0  0.48777  0.44493999999999995  0.97918  1.0000
  H   H30       1.0  0.43443  0.51467  0.92678  1.0000
  H   H31       1.0  0.26902999999999994  0.61008  0.04703  1.0000
  H   H32       1.0  0.10978999999999998  0.61057  0.21712  1.0000
  H   H33       1.0  0.20484999999999995  0.5672  0.20665  1.0000
  H   H34       1.0  0.9685899999999997  0.55056  0.36337  1.0000
  H   H35       1.0  0.005780000000000013  0.59247  0.28383  1.0000
  H   H36       1.0  0.06451  0.4734900000000001  0.38718  1.0000
  H   H37       1.0  0.33140999999999987  0.53173  0.248  1.0000
  H   H38       1.0  0.23591  0.57736  0.27047  1.0000
  H   H39       1.0  0.15932  0.57715  0.36406  1.0000
  H   H40       1.0  0.17649  0.56218  0.44575  1.0000
  H   H41       1.0  0.30152  0.50513  0.45206  1.0000
  H   H42       1.0  0.39574000000000004  0.48256  0.30108999999999997  1.0000
  H   H43       1.0  0.27116999999999997  0.42723  0.32146  1.0000
  H   H44       1.0  0.19984  0.41734000000000004  0.3733  1.0000
  H   H45       1.0  0.006129999999999973  0.44328  0.26698  1.0000
  H   H46       1.0  0.9261799999999996  0.48106  0.35016  1.0000
  H   H47       1.0  0.99886  0.36236  0.23726  1.0000
  H   H48       1.0  0.72431  0.43045  0.35535  1.0000
  H   H49       1.0  0.7654  0.3739799999999999  0.31506  1.0000
  H   H50       1.0  0.72727  0.30665  0.42387  1.0000
  H   H51       1.0  0.60334  0.29299  0.46567  1.0000
  H   H52       1.0  0.48905999999999994  0.35168  0.44648  1.0000
  H   H53       1.0  0.6115000000000002  0.43039999999999995  0.34361  1.0000
  H   H54       1.0  0.8518999999999998  0.30717  0.29583  1.0000
  H   H55       1.0  0.9394800000000002  0.29721  0.24919  1.0000
  H   H56       1.0  0.11859999999999993  0.1942  0.33125  1.0000
  H   H57       1.0  0.053989999999999996  0.26935  0.28568  1.0000
  H   H58       1.0  0.04583000000000003  0.14796  0.39206  1.0000
  H   H59       1.0  0.8446199999999999  0.22487  0.28269  1.0000
  H   H60       1.0  0.8654999999999999  0.16776000000000002  0.31922  1.0000
  H   H61       1.0  0.7053000000000001  0.2877  0.2984  1.0000
  H   H62       1.0  0.5707699999999999  0.2924  0.33368  1.0000
  H   H63       1.0  0.5411399999999998  0.22406  0.39212  1.0000
  H   H64       1.0  0.7675  0.14343  0.37832  1.0000
  H   H65       1.0  0.83791  0.18056  0.4199899999999999  1.0000
  H   H66       1.0  0.9190899999999997  0.12084  0.41195  1.0000
  H   H67       1.0  0.011779999999999995  0.12709  0.53872  1.0000
  H   H68       1.0  0.99476  0.10232999999999999  0.46519  1.0000
  H   H69       1.0  0.9351999999999999  0.21836  0.57763  1.0000
  H   H70       1.0  0.7178799999999999  0.26413  0.55141  1.0000
  H   H71       1.0  0.6773799999999999  0.28322  0.50471  1.0000
  H   H72       1.0  0.7708499999999999  0.16681  0.57194  1.0000
  H   H73       1.0  0.7721800000000002  0.07339000000000002  0.56464  1.0000
  H   H74       1.0  0.7268  0.05408  0.50253  1.0000
  H   H75       1.0  0.67735  0.21131  0.4559  1.0000
  H   H76       1.0  0.76611  0.3177  0.55658  1.0000
  H   H77       1.0  0.83423  0.30359  0.58497  1.0000
  H   H78       1.0  0.035880000000000016  0.34601  0.46377  1.0000
  H   H79       1.0  0.9682199999999999  0.29553  0.52509  1.0000
  H   H80       1.0  0.96771  0.41311999999999993  0.41453  1.0000
  H   H81       1.0  0.6250499999999998  0.43573  0.46956  1.0000
  H   H82       1.0  0.6008099999999998  0.43417  0.62146  1.0000
  H   H83       1.0  0.42542  0.54088  0.5768  1.0000
  H   H84       1.0  0.76523  0.44693  0.42925  1.0000
  H   H85       1.0  0.8232799999999999  0.48392  0.42501  1.0000
  H   H86       1.0  0.49308  0.30457  0.53033  1.0000
  H   H87       1.0  0.43515  0.27379  0.57417  1.0000
  H   H88       1.0  0.40782999999999997  0.30655  0.52383  1.0000
  H   H89       1.0  0.21719999999999995  0.16764  0.20586  1.0000
  H   H90       1.0  0.3408599999999997  0.10719999999999999  0.15431  1.0000
  H   H91       1.0  0.20699999999999993  0.21174  0.28031  1.0000
  H   H92       1.0  0.46642  0.21903000000000003  0.22847  1.0000
  H   H93       1.0  0.50604  0.17299  0.17799  1.0000
  H   H94       1.0  0.54424  0.20880999999999997  0.2866  1.0000
  H   H95       1.0  0.6760399999999999  0.17013  0.29087999999999997  1.0000
  H   H96       1.0  0.7755399999999999  0.09901  0.23204  1.0000
  H   H97       1.0  0.628  0.10554  0.1596  1.0000
  H   H98       1.0  0.29186999999999996  0.25446  0.30698999999999993  1.0000
  H   H99       1.0  0.37211999999999995  0.20158  0.31445  1.0000
  H   H100      1.0  0.08210999999999999  0.23484  0.43308  1.0000
  H   H101      1.0  0.16657000000000005  0.26763  0.36401999999999995  1.0000
  H   H102      1.0  0.13053999999999985  0.14256  0.46196  1.0000
  H   H103      1.0  0.6448100000000001  0.03125  0.27882  1.0000
  H   H104      1.0  0.50297  0.06781  0.30122  1.0000
  H   H105      1.0  0.49281999999999987  0.13622  0.43126  1.0000
  H   H106      1.0  0.7028899999999999  0.052410000000000005  0.33254  1.0000
  H   H107      1.0  0.38083  0.12423999999999999  0.42436999999999997  1.0000
  H   H108      1.0  0.38703  0.17670999999999998  0.38357  1.0000
  H   H109      1.0  0.23719000000000004  0.06081  0.46266  1.0000
  H   H110      1.0  0.33058  0.05711  0.43145  1.0000
  H   H111      1.0  0.17071  0.99057  0.34773  1.0000
  H   H112      1.0  0.16394  0.05103  0.40953  1.0000
  H   H113      1.0  0.29526  0.93515  0.2908200000000001  1.0000
  H   H114      1.0  0.46476999999999996  0.91464  0.37396  1.0000
  H   H115      1.0  0.52405  0.9526799999999999  0.36269  1.0000
  H   H116      1.0  0.46136999999999995  0.03829  0.42977  1.0000
  H   H117      1.0  0.41055999999999987  0.05416  0.52136  1.0000
  H   H118      1.0  0.37651000000000007  0.98407  0.57406  1.0000
  H   H119      1.0  0.4267499999999998  0.88782  0.45417  1.0000
  H   H120      1.0  0.4396700000000001  0.88772  0.2819  1.0000
  H   H121      1.0  0.48054999999999987  0.93082  0.2935  1.0000
  H   H122      1.0  0.3852099999999999  0.9492100000000001  0.13578  1.0000
  H   H123      1.0  0.3855400000000001  0.90622  0.21473  1.0000
  H   H124      1.0  0.42662  0.02698  0.11318  1.0000
  H   H125      1.0  0.61395  0.96632  0.25185  1.0000
  H   H126      1.0  0.5867100000000001  0.92163  0.22787  1.0000
  H   H127      1.0  0.60513  0.92288  0.13459  1.0000
  H   H128      1.0  0.68789  0.94049  0.05342  1.0000
  H   H129      1.0  0.75942  0.99881  0.04903  1.0000
  H   H130      1.0  0.6789999999999999  0.01895  0.20017  1.0000
  H   H131      1.0  0.52167  0.07211  0.17975  1.0000
  H   H132      1.0  0.4912399999999999  0.08323  0.12817  1.0000
  H   H133      1.0  0.21790000000000007  0.0568  0.23284999999999997  1.0000
  H   H134      1.0  0.26312  0.0202  0.14885  1.0000
  H   H135      1.0  0.09795999999999998  0.13627  0.26217  1.0000
  H   H136      1.0  0.02240999999999999  0.06627  0.13117  1.0000
  H   H137      1.0  0.9677099999999998  0.11461  0.17934  1.0000
  H   H138      1.0  0.97388  0.1853  0.06586  1.0000
  H   H139      1.0  0.87022  0.20465  0.02882  1.0000
  H   H140      1.0  0.7851199999999998  0.15367  0.05533  1.0000
  H   H141      1.0  0.87859  0.07984  0.16176999999999997  1.0000
  H   H142      1.0  0.9578599999999999  0.18907  0.19999  1.0000
  H   H143      1.0  0.98481  0.20091000000000003  0.24813  1.0000
  H   H144      1.0  0.14661999999999997  0.30227  0.16625  1.0000
  H   H145      1.0  0.11221999999999997  0.22639000000000004  0.2103  1.0000
  H   H146      1.0  0.08529999999999999  0.35145  0.10754  1.0000
  H   H147      1.0  0.85507  0.26974  0.21633  1.0000
  H   H148      1.0  0.8510899999999999  0.32918000000000003  0.18272  1.0000
  H   H149      1.0  0.7819099999999995  0.21369  0.20711  1.0000
  H   H150      1.0  0.6851  0.21133  0.17299  1.0000
  H   H151      1.0  0.64981  0.27795  0.11202  1.0000
  H   H152      1.0  0.7926699999999999  0.35168  0.11991  1.0000
  H   H153      1.0  0.93655  0.32154  0.07921000000000002  1.0000
  H   H154      1.0  0.95182  0.38012999999999997  0.08848  1.0000
  H   H155      1.0  0.17696  0.37367  0.96089  1.0000
  H   H156      1.0  0.06230999999999999  0.39846  0.03465  1.0000
  H   H157      1.0  0.22936999999999994  0.28265  0.92163  1.0000
  H   H158      1.0  0.030760000000000023  0.24047  0.9462299999999999  1.0000
  H   H159      1.0  0.9641099999999999  0.21903000000000003  0.99168  1.0000
  H   H160      1.0  0.0018099999999999668  0.33706  0.92561  1.0000
  H   H161      1.0  0.9005799999999998  0.43002  0.93503  1.0000
  H   H162      1.0  0.7767099999999998  0.44797  0.99965  1.0000
  H   H163      1.0  0.8429799999999997  0.28948  0.04374  1.0000
  H   H164      1.0  0.13801  0.18307  0.9441999999999999  1.0000
  H   H165      1.0  0.21947999999999984  0.19763  0.9140600000000001  1.0000
  H   H166      1.0  0.34969999999999996  0.15742  0.03112  1.0000
  H   H167      1.0  0.28716  0.20834  0.97244  1.0000
  H   H168      1.0  0.30469000000000007  0.08805  0.0804  1.0000
  H   H169      1.0  0.03376999999999999  0.06334  0.03087  1.0000
  H   H170      1.0  0.15732000000000007  0.06614  0.8788099999999999  1.0000
  H   H171      1.0  0.034890000000000004  0.96531  0.92244  1.0000
  H   H172      1.0  0.15105  0.05145000000000001  0.06779  1.0000
  H   H173      1.0  0.24168999999999993  0.016819999999999998  0.07307  1.0000
  H   H174      1.0  0.8424899999999997  0.23356  0.93244  1.0000
  H   H175      1.0  0.7620199999999998  0.22187  0.9311  1.0000
  H   H176      1.0  0.80797  0.18869  0.97397  1.0000
  H   H177      1.0  0.91062  0.66811  0.70503  1.0000
  H   H178      1.0  0.8996699999999999  0.60756  0.65313  1.0000
  H   H179      1.0  0.8017799999999998  0.7126600000000001  0.7789099999999999  1.0000
  H   H180      1.0  0.58938  0.7189300000000001  0.72513  1.0000
  H   H181      1.0  0.6459099999999999  0.6720299999999999  0.67526  1.0000
  H   H182      1.0  0.46358000000000016  0.7096799999999999  0.78393  1.0000
  H   H183      1.0  0.36497999999999997  0.67188  0.789  1.0000
  H   H184      1.0  0.39419000000000004  0.60013  0.73094  1.0000
  H   H185      1.0  0.60771  0.60548  0.65726  1.0000
  H   H186      1.0  0.6479599999999998  0.75563  0.80429  1.0000
  H   H187      1.0  0.6125499999999998  0.70315  0.81152  1.0000
  H   H188      1.0  0.74508  0.7378  0.9333  1.0000
  H   H189      1.0  0.69969  0.76976  0.8629299999999999  1.0000
  H   H190      1.0  0.76049  0.64535  0.9620399999999999  1.0000
  H   H191      1.0  0.54186  0.53382  0.77822  1.0000
  H   H192      1.0  0.6243700000000001  0.57187  0.79953  1.0000
  H   H193      1.0  0.43910999999999994  0.63725  0.93141  1.0000
  H   H194      1.0  0.4102500000000002  0.55302  0.83342  1.0000
  H   H195      1.0  0.5678499999999997  0.6298  0.9226  1.0000
  H   H196      1.0  0.5518699999999997  0.67996  0.8795499999999999  1.0000
  H   H197      1.0  0.73476  0.56361  0.96251  1.0000
  H   H198      1.0  0.67774  0.55969  0.93008  1.0000
  H   H199      1.0  0.98779  0.49247  0.84928  1.0000
  H   H200      1.0  0.87182  0.5539599999999998  0.90993  1.0000
  H   H201      1.0  0.97643  0.43614  0.79266  1.0000
  H   H202      1.0  0.7455200000000001  0.4166  0.8737699999999999  1.0000
  H   H203      1.0  0.65959  0.45369  0.86192  1.0000
  H   H204      1.0  0.5694100000000001  0.54008  0.92919  1.0000
  H   H205      1.0  0.5119599999999999  0.55547  0.020789999999999996  1.0000
  H   H206      1.0  0.5621699999999998  0.48488000000000003  0.07363  1.0000
  H   H207      1.0  0.72776  0.38863  0.95393  1.0000
  H   H208      1.0  0.88907  0.38911  0.78251  1.0000
  H   H209      1.0  0.7936999999999999  0.43202  0.79332  1.0000
  H   H210      1.0  0.029830000000000002  0.44876  0.63661  1.0000
  H   H211      1.0  0.9922200000000001  0.4067  0.71595  1.0000
  H   H212      1.0  0.9343999999999999  0.5263  0.61285  1.0000
  H   H213      1.0  0.6663199999999998  0.46957  0.75198  1.0000
  H   H214      1.0  0.7616599999999998  0.42378000000000005  0.7290900000000001  1.0000
  H   H215      1.0  0.83757  0.42442  0.63537  1.0000
  H   H216      1.0  0.8196  0.44111  0.55388  1.0000
  H   H217      1.0  0.6945100000000001  0.49879  0.54837  1.0000
  H   H218      1.0  0.6018899999999998  0.52023  0.6994299999999999  1.0000
  H   H219      1.0  0.72758  0.57302  0.67859  1.0000
  H   H220      1.0  0.7989699999999998  0.58285  0.62674  1.0000
  H   H221      1.0  0.9942399999999999  0.5546  0.73096  1.0000
  H   H222      1.0  0.07417999999999997  0.51812  0.6473899999999999  1.0000
  H   H223      1.0  0.99984  0.63575  0.76159  1.0000
  H   H224      1.0  0.27614999999999973  0.56958  0.6369  1.0000
  H   H225      1.0  0.23477999999999993  0.62137  0.68209  1.0000
  H   H226      1.0  0.2728599999999999  0.68894  0.56855  1.0000
  H   H227      1.0  0.39598999999999995  0.7050799999999999  0.52925  1.0000
  H   H228      1.0  0.5072399999999998  0.65074  0.55338  1.0000
  H   H229      1.0  0.38019999999999987  0.57921  0.66131  1.0000
  H   H230      1.0  0.14662  0.69133  0.70389  1.0000
  H   H231      1.0  0.05852999999999993  0.7018099999999999  0.75007  1.0000
  H   H232      1.0  0.8812200000000006  0.80527  0.6667099999999999  1.0000
  H   H233      1.0  0.9452799999999999  0.7295  0.71189  1.0000
  H   H234      1.0  0.9542099999999998  0.8524999999999999  0.6074100000000001  1.0000
  H   H235      1.0  0.15543999999999997  0.7712199999999999  0.71785  1.0000
  H   H236      1.0  0.1338699999999997  0.82996  0.68332  1.0000
  H   H237      1.0  0.29345000000000004  0.71447  0.70833  1.0000
  H   H238      1.0  0.42722999999999983  0.71086  0.67344  1.0000
  H   H239      1.0  0.45747  0.77696  0.61232  1.0000
  H   H240      1.0  0.23314  0.8517999999999999  0.62012  1.0000
  H   H241      1.0  0.16126000000000013  0.82022  0.58006  1.0000
  H   H242      1.0  0.07929999999999994  0.87972  0.58941  1.0000
  H   H243      1.0  0.98523  0.8755099999999999  0.46235  1.0000
  H   H244      1.0  0.0031299999999999813  0.89941  0.53582  1.0000
  H   H245      1.0  0.061770000000000026  0.78468  0.42249  1.0000
  H   H246      1.0  0.2791799999999998  0.74005  0.44632  1.0000
  H   H247      1.0  0.3222200000000001  0.71825  0.49165  1.0000
  H   H248      1.0  0.2312899999999999  0.83677  0.42636  1.0000
  H   H249      1.0  0.23100000000000004  0.9294699999999999  0.43555999999999995  1.0000
  H   H250      1.0  0.2750600000000001  0.9466799999999999  0.49928  1.0000
  H   H251      1.0  0.32117000000000007  0.7886  0.54387  1.0000
  H   H252      1.0  0.23193000000000003  0.68503  0.44250999999999996  1.0000
  H   H253      1.0  0.16359999999999997  0.69945  0.41422  1.0000
  H   H254      1.0  0.9625499999999999  0.65566  0.53337  1.0000
  H   H255      1.0  0.029939999999999987  0.70758  0.4739  1.0000
  H   H256      1.0  0.03053000000000001  0.58745  0.5822  1.0000
  H   H257      1.0  0.37217000000000006  0.5649  0.53033  1.0000
  H   H258      1.0  0.3967999999999999  0.56824  0.37842  1.0000
  H   H259      1.0  0.57743  0.46785  0.42138  1.0000
  H   H260      1.0  0.23259999999999997  0.55428  0.5685  1.0000
  H   H261      1.0  0.17434999999999998  0.51749  0.57255  1.0000
  H   H262      1.0  0.5162899999999999  0.6902600000000001  0.47239  1.0000
  H   H263      1.0  0.56255  0.7258999999999999  0.42583999999999994  1.0000
  H   H264      1.0  0.6015800000000002  0.6952900000000001  0.4724  1.0000
  H   H265      1.0  0.7858600000000001  0.83007  0.7925700000000001  1.0000
  H   H266      1.0  0.6626999999999997  0.89041  0.8445399999999998  1.0000
  H   H267      1.0  0.7951699999999997  0.78594  0.71842  1.0000
  H   H268      1.0  0.53228  0.77962  0.7740399999999998  1.0000
  H   H269      1.0  0.4957099999999999  0.82676  0.82331  1.0000
  H   H270      1.0  0.4538099999999998  0.7911199999999999  0.71639  1.0000
  H   H271      1.0  0.3210800000000001  0.82976  0.71364  1.0000
  H   H272      1.0  0.22308  0.90142  0.77267  1.0000
  H   H273      1.0  0.37350999999999973  0.89492  0.8426  1.0000
  H   H274      1.0  0.7095899999999998  0.74322  0.6923600000000001  1.0000
  H   H275      1.0  0.6291700000000001  0.7962  0.68531  1.0000
  H   H276      1.0  0.91858  0.76336  0.56542  1.0000
  H   H277      1.0  0.8349500000000002  0.7300499999999999  0.63449  1.0000
  H   H278      1.0  0.86982  0.85594  0.53737  1.0000
  H   H279      1.0  0.35678000000000004  0.9656299999999999  0.72258  1.0000
  H   H280      1.0  0.4986199999999999  0.92905  0.6994  1.0000
  H   H281      1.0  0.5069399999999997  0.86194  0.5693  1.0000
  H   H282      1.0  0.29758000000000007  0.94561  0.669  1.0000
  H   H283      1.0  0.61939  0.87325  0.5757  1.0000
  H   H284      1.0  0.6136699999999998  0.82081  0.61662  1.0000
  H   H285      1.0  0.76248  0.93727  0.53668  1.0000
  H   H286      1.0  0.6692299999999999  0.9409499999999998  0.56855  1.0000
  H   H287      1.0  0.83103  0.007930000000000001  0.65012  1.0000
  H   H288      1.0  0.8368200000000002  0.94726  0.58891  1.0000
  H   H289      1.0  0.7071000000000001  0.06314  0.7076699999999999  1.0000
  H   H290      1.0  0.5357300000000002  0.08323  0.62658  1.0000
  H   H291      1.0  0.4762900000000001  0.045279999999999994  0.638  1.0000
  H   H292      1.0  0.53591  0.96097  0.57033  1.0000
  H   H293      1.0  0.5865299999999999  0.94537  0.47878  1.0000
  H   H294      1.0  0.6253999999999998  0.013820000000000002  0.42622  1.0000
  H   H295      1.0  0.5768199999999999  0.10917  0.54626  1.0000
  H   H296      1.0  0.56232  0.11016000000000001  0.71823  1.0000
  H   H297      1.0  0.52092  0.06741  0.70672  1.0000
  H   H298      1.0  0.6186299999999998  0.04802  0.86334  1.0000
  H   H299      1.0  0.6176199999999998  0.09119  0.78446  1.0000
  H   H300      1.0  0.57698  0.97044  0.88622  1.0000
  H   H301      1.0  0.38822  0.03159  0.7485300000000001  1.0000
  H   H302      1.0  0.41689000000000015  0.07639999999999998  0.7710999999999999  1.0000
  H   H303      1.0  0.40085  0.07577  0.86461  1.0000
  H   H304      1.0  0.31753  0.0606  0.94624  1.0000
  H   H305      1.0  0.24358000000000002  0.00324  0.95273  1.0000
  H   H306      1.0  0.32118999999999986  0.98154  0.80168  1.0000
  H   H307      1.0  0.4811099999999999  0.9256  0.8198699999999999  1.0000
  H   H308      1.0  0.51137  0.91436  0.87149  1.0000
  H   H309      1.0  0.7825299999999998  0.942  0.76933  1.0000
  H   H310      1.0  0.7425299999999999  0.97971  0.85244  1.0000
  H   H311      1.0  0.8997100000000002  0.86049  0.73959  1.0000
  H   H312      1.0  0.9905899999999995  0.92856  0.8554500000000002  1.0000
  H   H313      1.0  0.0465  0.87141  0.81599  1.0000
  H   H314      1.0  0.0423500000000001  0.80568  0.92492  1.0000
  H   H315      1.0  0.13915000000000013  0.7911599999999999  0.96623  1.0000
  H   H316      1.0  0.21638999999999997  0.84815  0.9456099999999998  1.0000
  H   H317      1.0  0.11390000000000008  0.9299199999999999  0.84532  1.0000
  H   H318      1.0  0.04381000000000004  0.80487  0.7972999999999999  1.0000
  H   H319      1.0  0.011069999999999943  0.79549  0.75125  1.0000
  H   H320      1.0  0.85262  0.69338  0.83388  1.0000
  H   H321      1.0  0.8875399999999999  0.76851  0.7885099999999999  1.0000
  H   H322      1.0  0.9116499999999995  0.6466  0.89432  1.0000
  H   H323      1.0  0.14494  0.72214  0.78377  1.0000
  H   H324      1.0  0.14585000000000004  0.66534  0.8209  1.0000
  H   H325      1.0  0.20806000000000002  0.78491  0.79664  1.0000
  H   H326      1.0  0.30229000000000006  0.7911400000000001  0.83151  1.0000
  H   H327      1.0  0.34162000000000003  0.72451  0.89118  1.0000
  H   H328      1.0  0.20906  0.64298  0.8800999999999999  1.0000
  H   H329      1.0  0.06061000000000003  0.67759  0.92164  1.0000
  H   H330      1.0  0.04588000000000001  0.61849  0.91323  1.0000
  H   H331      1.0  0.82075  0.62615  0.042  1.0000
  H   H332      1.0  0.9347599999999998  0.60059  0.96788  1.0000
  H   H333      1.0  0.7695499999999998  0.71731  0.08069999999999998  1.0000
  H   H334      1.0  0.96683  0.7625  0.05288  1.0000
  H   H335      1.0  0.034090000000000016  0.78211  0.005979999999999999  1.0000
  H   H336      1.0  0.99206  0.66519  0.07346  1.0000
  H   H337      1.0  0.09179000000000004  0.57191  0.06559  1.0000
  H   H338      1.0  0.21795000000000003  0.5531  0.00312  1.0000
  H   H339      1.0  0.15578000000000003  0.71085  0.9577  1.0000
  H   H340      1.0  0.8607499999999999  0.81597  0.05857  1.0000
  H   H341      1.0  0.7782299999999998  0.80197  0.08658999999999999  1.0000
  H   H342      1.0  0.65195  0.84689  0.96804  1.0000
  H   H343      1.0  0.71104  0.7949999999999999  0.028030000000000003  1.0000
  H   H344      1.0  0.7033699999999999  0.9130500000000001  0.9178099999999999  1.0000
  H   H345      1.0  0.9763699999999997  0.93051  0.97106  1.0000
  H   H346      1.0  0.8434399999999999  0.93384  0.12207000000000001  1.0000
  H   H347      1.0  0.95282  0.04285  0.07628  1.0000
  H   H348      1.0  0.8597600000000001  0.94501  0.9312  1.0000
  H   H349      1.0  0.7687799999999998  0.98234  0.92727  1.0000
  H   H350      1.0  0.18045000000000008  0.8091399999999999  0.026099999999999998  1.0000
  H   H351      1.0  0.21326000000000003  0.7745599999999999  0.07397999999999999  1.0000
  H   H352      1.0  0.27005000000000007  0.8040199999999998  0.027630000000000002  1.0000
  C   C1        1.0  0.14221999999999996  0.33628  0.28702  1.0000
  C   C2        1.0  0.14852  0.37046  0.31657  1.0000
  C   C3        1.0  0.21534999999999996  0.3799  0.30612999999999996  1.0000
  C   C4        1.0  0.27816000000000013  0.35114  0.26643  1.0000
  C   C5        1.0  0.2723399999999999  0.31735  0.23547000000000004  1.0000
  C   C6        1.0  0.2030599999999999  0.31149  0.24595  1.0000
  C   C7        1.0  0.38902999999999993  0.3242499999999999  0.2877  1.0000
  C   C8        1.0  0.4532799999999999  0.34142999999999996  0.28261  1.0000
  C   C9        1.0  0.5234900000000001  0.32116  0.24492  1.0000
  C   C10       1.0  0.5779199999999998  0.34296  0.24184  1.0000
  C   C11       1.0  0.5615700000000001  0.38338  0.27427  1.0000
  C   C12       1.0  0.44193  0.38071  0.31457  1.0000
  C   C13       1.0  0.3379499999999999  0.28742  0.19129  1.0000
  C   C14       1.0  0.26975  0.28711  0.0847  1.0000
  C   C15       1.0  0.29607  0.26919  0.12389  1.0000
  C   C16       1.0  0.31694999999999995  0.30223  0.14566  1.0000
  C   C17       1.0  0.31299  0.35264  0.12599  1.0000
  C   C18       1.0  0.28278000000000003  0.37295  0.08867  1.0000
  C   C19       1.0  0.2612  0.33908  0.06823  1.0000
  C   C20       1.0  0.4764  0.4434  0.18959  1.0000
  C   C21       1.0  0.43083999999999995  0.42212  0.17782  1.0000
  C   C22       1.0  0.46204  0.39132999999999996  0.13445  1.0000
  C   C23       1.0  0.53546  0.38427  0.10532  1.0000
  C   C24       1.0  0.5503000000000001  0.43285999999999997  0.15942999999999996  1.0000
  C   C25       1.0  0.4224600000000002  0.36399  0.11711  1.0000
  C   C26       1.0  0.2715499999999999  0.43035  0.0733  1.0000
  C   C27       1.0  0.06625  0.50607  0.1477  1.0000
  C   C28       1.0  0.13131  0.47201999999999994  0.11366  1.0000
  C   C29       1.0  0.20286999999999997  0.47023  0.1098  1.0000
  C   C30       1.0  0.20823999999999995  0.50365  0.14152  1.0000
  C   C31       1.0  0.14299000000000003  0.5367  0.17766999999999997  1.0000
  C   C32       1.0  0.07256999999999998  0.53785  0.17954  1.0000
  C   C33       1.0  0.30288  0.54465  0.11917  1.0000
  C   C34       1.0  0.34381999999999996  0.53615  0.0654  1.0000
  C   C35       1.0  0.40836999999999996  0.48911000000000004  0.04644  1.0000
  C   C36       1.0  0.4391900000000003  0.48077  0.99575  1.0000
  C   C37       1.0  0.41028  0.51969  0.96602  1.0000
  C   C38       1.0  0.31794999999999995  0.57338  0.03345  1.0000
  C   C39       1.0  0.14732999999999993  0.56837  0.21625  1.0000
  C   C40       1.0  0.02724999999999999  0.53669  0.33998  1.0000
  C   C41       1.0  0.04835000000000004  0.5609  0.2957  1.0000
  C   C42       1.0  0.12424999999999997  0.54556  0.26631  1.0000
  C   C43       1.0  0.17843  0.50612  0.28343  1.0000
  C   C44       1.0  0.15766999999999998  0.4768  0.32489  1.0000
  C   C45       1.0  0.08134000000000004  0.49383  0.35361999999999993  1.0000
  C   C46       1.0  0.2755900000000001  0.53728  0.27457  1.0000
  C   C47       1.0  0.27831  0.53119  0.3255  1.0000
  C   C48       1.0  0.21401999999999996  0.55337  0.36745999999999995  1.0000
  C   C49       1.0  0.22349000000000002  0.54474  0.41275  1.0000
  C   C50       1.0  0.29389  0.5139  0.41694  1.0000
  C   C51       1.0  0.3457699999999997  0.50065  0.33229  1.0000
  C   C52       1.0  0.21517  0.4248  0.33422  1.0000
  C   C53       1.0  0.96559  0.426  0.28963  1.0000
  C   C54       1.0  0.92014  0.44747  0.33641  1.0000
  C   C55       1.0  0.8669900000000006  0.42624999999999996  0.36628  1.0000
  C   C56       1.0  0.86074  0.38306  0.34731  1.0000
  C   C57       1.0  0.9095199999999999  0.35818000000000005  0.30199  1.0000
  C   C58       1.0  0.9612999999999999  0.38079  0.27284  1.0000
  C   C59       1.0  0.7438600000000001  0.38616  0.35388  1.0000
  C   C60       1.0  0.6777899999999999  0.36977  0.38021  1.0000
  C   C61       1.0  0.6766200000000001  0.32995  0.41507  1.0000
  C   C62       1.0  0.6076099999999999  0.32321  0.43842  1.0000
  C   C63       1.0  0.5434700000000001  0.35505  0.42755999999999994  1.0000
  C   C64       1.0  0.6125399999999998  0.39842  0.36972  1.0000
  C   C65       1.0  0.90932  0.30552  0.28826  1.0000
  C   C66       1.0  0.05928000000000001  0.20509  0.33638  1.0000
  C   C67       1.0  0.023290000000000033  0.24675999999999998  0.31086  1.0000
  C   C68       1.0  0.94726  0.26005  0.3166  1.0000
  C   C69       1.0  0.9077399999999999  0.23075999999999997  0.34936  1.0000
  C   C70       1.0  0.94171  0.19087000000000004  0.37792000000000003  1.0000
  C   C71       1.0  0.01828000000000001  0.17822  0.37022999999999995  1.0000
  C   C72       1.0  0.82704  0.20964000000000002  0.31947  1.0000
  C   C73       1.0  0.7468199999999999  0.21379  0.33523  1.0000
  C   C74       1.0  0.6909699999999999  0.25721  0.32259  1.0000
  C   C75       1.0  0.61575  0.26027  0.34289  1.0000
  C   C76       1.0  0.5988399999999999  0.22220999999999996  0.37535  1.0000
  C   C77       1.0  0.72568  0.17655  0.36706  1.0000
  C   C78       1.0  0.8967100000000001  0.16457  0.41866  1.0000
  C   C79       1.0  0.9689  0.15528  0.52483  1.0000
  C   C80       1.0  0.9589499999999999  0.14118000000000006  0.48382  1.0000
  C   C81       1.0  0.90222  0.17632  0.46639  1.0000
  C   C82       1.0  0.85452  0.22523  0.49229  1.0000
  C   C83       1.0  0.86782  0.24266  0.53084  1.0000
  C   C84       1.0  0.9249700000000001  0.20621  0.54721  1.0000
  C   C85       1.0  0.7232099999999999  0.25275  0.51502  1.0000
  C   C86       1.0  0.7223200000000001  0.19692  0.51456  1.0000
  C   C87       1.0  0.7504799999999999  0.15712  0.54554  1.0000
  C   C88       1.0  0.75205  0.10518  0.5411  1.0000
  C   C89       1.0  0.7268999999999999  0.09384000000000002  0.50647  1.0000
  C   C90       1.0  0.69821  0.18223  0.48098  1.0000
  C   C91       1.0  0.82733  0.30041  0.54994  1.0000
  C   C92       1.0  0.9766999999999999  0.35432  0.4701  1.0000
  C   C93       1.0  0.93832  0.32649  0.50477  1.0000
  C   C94       1.0  0.8620099999999999  0.33612  0.51394  1.0000
  C   C95       1.0  0.8232500000000003  0.37616999999999995  0.48732  1.0000
  C   C96       1.0  0.86211  0.40343  0.45089  1.0000
  C   C97       1.0  0.9383599999999999  0.39208  0.44289  1.0000
  C   C98       1.0  0.69828  0.39727000000000007  0.54296  1.0000
  C   C99       1.0  0.5185599999999999  0.49003  0.51802  1.0000
  C   C100      1.0  0.5910100000000001  0.45041000000000003  0.50664  1.0000
  C   C101      1.0  0.62338  0.42874  0.54467  1.0000
  C   C102      1.0  0.57704  0.44922  0.59249  1.0000
  C   C103      1.0  0.48066000000000003  0.50965  0.56642  1.0000
  C   C104      1.0  0.82377  0.44405000000000006  0.41899  1.0000
  C   C105      1.0  0.49649  0.23167  0.50721  1.0000
  C   C106      1.0  0.4561099999999996  0.28181  0.53536  1.0000
  C   C107      1.0  0.26712  0.16233999999999998  0.21464  1.0000
  C   C108      1.0  0.33734  0.12863  0.1851  1.0000
  C   C109      1.0  0.40296  0.11953  0.19572  1.0000
  C   C110      1.0  0.39692999999999995  0.14819  0.23569  1.0000
  C   C111      1.0  0.32603999999999994  0.18132  0.26677  1.0000
  C   C112      1.0  0.2617  0.18688  0.256  1.0000
  C   C113      1.0  0.5006999999999999  0.17683  0.21622  1.0000
  C   C114      1.0  0.5768899999999999  0.15967  0.22164  1.0000
  C   C115      1.0  0.5895400000000001  0.17904  0.25973  1.0000
  C   C116      1.0  0.66292  0.15692  0.26248  1.0000
  C   C117      1.0  0.7192800000000001  0.11714  0.22946  1.0000
  C   C118      1.0  0.6365899999999999  0.12082  0.18919  1.0000
  C   C119      1.0  0.3164199999999999  0.21096999999999996  0.31151  1.0000
  C   C120      1.0  0.14108000000000004  0.20931  0.41668  1.0000
  C   C121      1.0  0.18855  0.22791  0.37808  1.0000
  C   C122      1.0  0.26449999999999996  0.19541  0.35656  1.0000
  C   C123      1.0  0.2914700000000001  0.14475  0.3758  1.0000
  C   C124      1.0  0.24451000000000006  0.12384000000000002  0.41259  1.0000
  C   C125      1.0  0.16849  0.15725999999999998  0.4329  1.0000
  C   C126      1.0  0.60883  0.05508  0.3122  1.0000
  C   C127      1.0  0.5302599999999997  0.07551000000000001  0.3243  1.0000
  C   C128      1.0  0.48736999999999997  0.10638  0.36756  1.0000
  C   C129      1.0  0.52469  0.11442  0.3963  1.0000
  C   C130      1.0  0.6419599999999998  0.06664  0.34198  1.0000
  C   C131      1.0  0.4030599999999999  0.13263  0.38559  1.0000
  C   C132      1.0  0.27573999999999993  0.06621999999999999  0.42729  1.0000
  C   C133      1.0  0.22208999999999987  0.9916000000000001  0.35065  1.0000
  C   C134      1.0  0.21840999999999997  0.02516  0.38543  1.0000
  C   C135      1.0  0.2838999999999999  0.026899999999999997  0.39005  1.0000
  C   C136      1.0  0.35460000000000014  0.99393  0.35835  1.0000
  C   C137      1.0  0.35926999999999987  0.96123  0.32161  1.0000
  C   C138      1.0  0.29227999999999993  0.9601300000000001  0.31896  1.0000
  C   C139      1.0  0.4668399999999999  0.95304  0.38184  1.0000
  C   C140      1.0  0.44538000000000016  0.9619099999999998  0.43558  1.0000
  C   C141      1.0  0.44355  0.009280000000000002  0.45424  1.0000
  C   C142      1.0  0.41543  0.01785  0.50495  1.0000
  C   C143      1.0  0.3966499999999999  0.97877  0.53484  1.0000
  C   C144      1.0  0.4254099999999999  0.92459  0.46764  1.0000
  C   C145      1.0  0.43419999999999975  0.92987  0.28323  1.0000
  C   C146      1.0  0.40631999999999996  0.96299  0.15949  1.0000
  C   C147      1.0  0.40787  0.93812  0.20346  1.0000
  C   C148      1.0  0.43875000000000003  0.9532  0.23329  1.0000
  C   C149      1.0  0.47019000000000005  0.99294  0.21672  1.0000
  C   C150      1.0  0.46110999999999996  0.022849999999999995  0.1756  1.0000
  C   C151      1.0  0.43054999999999993  0.006200000000000001  0.14653  1.0000
  C   C152      1.0  0.5899900000000001  0.96181  0.22497999999999999  1.0000
  C   C153      1.0  0.63703  0.9694200000000001  0.17431999999999997  1.0000
  C   C154      1.0  0.6380499999999999  0.94753  0.13194  1.0000
  C   C155      1.0  0.6834699999999999  0.95768  0.08688  1.0000
  C   C156      1.0  0.72477  0.9898799999999999  0.08382  1.0000
  C   C157      1.0  0.67895  0.0012200000000000004  0.16851  1.0000
  C   C158      1.0  0.47566  0.07499  0.16711  1.0000
  C   C159      1.0  0.18373000000000003  0.07393  0.20954  1.0000
  C   C160      1.0  0.20896999999999996  0.05311  0.16223  1.0000
  C   C161      1.0  0.16583  0.07396  0.13144  1.0000
  C   C162      1.0  0.09641000000000002  0.11622  0.15007999999999996  1.0000
  C   C163      1.0  0.07232000000000001  0.14041  0.1961  1.0000
  C   C164      1.0  0.11621999999999999  0.11823  0.22614  1.0000
  C   C165      1.0  0.9935199999999993  0.10997  0.13943  1.0000
  C   C166      1.0  0.93289  0.13111  0.11663  1.0000
  C   C167      1.0  0.9319299999999999  0.16665  0.07863  1.0000
  C   C168      1.0  0.8750699999999999  0.17651  0.05788  1.0000
  C   C169      1.0  0.82645  0.14885  0.07273  1.0000
  C   C170      1.0  0.8775299999999999  0.10862  0.13279  1.0000
  C   C171      1.0  0.004200000000000019  0.19219  0.20895  1.0000
  C   C172      1.0  0.10228000000000002  0.29234  0.16149  1.0000
  C   C173      1.0  0.08269999999999995  0.25029  0.18622  1.0000
  C   C174      1.0  0.02456999999999997  0.23802  0.18092  1.0000
  C   C175      1.0  0.98759  0.26831  0.14885  1.0000
  C   C176      1.0  0.010050000000000007  0.30865  0.12097  1.0000
  C   C177      1.0  0.06684000000000001  0.32061  0.12868  1.0000
  C   C178      1.0  0.8563699999999999  0.28711  0.18052999999999997  1.0000
  C   C179      1.0  0.7947799999999999  0.28355  0.16564  1.0000
  C   C180      1.0  0.76415  0.24315  0.18134  1.0000
  C   C181      1.0  0.71057  0.24155999999999997  0.16184  1.0000
  C   C182      1.0  0.6902999999999999  0.27864  0.12812  1.0000
  C   C183      1.0  0.76998  0.32007  0.1326  1.0000
  C   C184      1.0  0.9788800000000001  0.3365099999999999  0.08082  1.0000
  C   C185      1.0  0.14791999999999994  0.34576  0.97463  1.0000
  C   C186      1.0  0.08309000000000001  0.3599  0.0157  1.0000
  C   C187      1.0  0.043290000000000016  0.32519  0.03281  1.0000
  C   C188      1.0  0.06964  0.27668  0.00643  1.0000
  C   C189      1.0  0.13914  0.25887  0.96828  1.0000
  C   C190      1.0  0.17670000000000002  0.295  0.95206  1.0000
  C   C191      1.0  0.9881999999999999  0.25036  0.98266  1.0000
  C   C192      1.0  0.92936  0.30574  0.98424  1.0000
  C   C193      1.0  0.9463499999999999  0.3461199999999999  0.95299  1.0000
  C   C194      1.0  0.89048  0.39776  0.95859  1.0000
  C   C195      1.0  0.82084  0.4082799999999999  0.99455  1.0000
  C   C196      1.0  0.8580199999999999  0.31932  0.01885  1.0000
  C   C197      1.0  0.17550999999999997  0.20098  0.9496  1.0000
  C   C198      1.0  0.3047599999999999  0.14847  0.02603  1.0000
  C   C199      1.0  0.27007  0.17655  0.99277  1.0000
  C   C200      1.0  0.21232999999999996  0.1659  0.9849  1.0000
  C   C201      1.0  0.18977  0.12484  0.01153  1.0000
  C   C202      1.0  0.2224  0.09744  0.04673  1.0000
  C   C203      1.0  0.27982  0.10952  0.05328  1.0000
  C   C204      1.0  0.14087  0.10251  0.95697  1.0000
  C   C205      1.0  0.025390000000000034  0.012129999999999998  0.98184  1.0000
  C   C206      1.0  0.049450000000000056  0.05009  0.99357  1.0000
  C   C207      1.0  0.09822  0.07159  0.95558  1.0000
  C   C208      1.0  0.11886  0.05169  0.9077  1.0000
  C   C209      1.0  0.05198000000000002  0.99451  0.93308  1.0000
  C   C210      1.0  0.19501999999999994  0.05599  0.07862  1.0000
  C   C211      1.0  0.74225  0.27076  0.98945  1.0000
  C   C212      1.0  0.79123  0.22634  0.95487  1.0000
  C   C213      1.0  0.8573199999999999  0.6628300000000001  0.71346  1.0000
  C   C214      1.0  0.8507199999999999  0.62905  0.68372  1.0000
  C   C215      1.0  0.7836399999999999  0.6200100000000002  0.6940300000000001  1.0000
  C   C216      1.0  0.7209199999999999  0.64871  0.7338199999999999  1.0000
  C   C217      1.0  0.7271000000000001  0.6820899999999999  0.76497  1.0000
  C   C218      1.0  0.7965700000000007  0.68759  0.75456  1.0000
  C   C219      1.0  0.6089100000000001  0.67661  0.71344  1.0000
  C   C220      1.0  0.5440399999999995  0.65992  0.7191300000000002  1.0000
  C   C221      1.0  0.47418  0.67978  0.75738  1.0000
  C   C222      1.0  0.4196400000000001  0.65804  0.76062  1.0000
  C   C223      1.0  0.43526000000000004  0.61801  0.72805  1.0000
  C   C224      1.0  0.5546500000000001  0.62107  0.68704  1.0000
  C   C225      1.0  0.6617899999999993  0.71225  0.80918  1.0000
  C   C226      1.0  0.72917  0.71193  0.91636  1.0000
  C   C227      1.0  0.7032199999999998  0.7301  0.8770400000000002  1.0000
  C   C228      1.0  0.68264  0.6972299999999999  0.85486  1.0000
  C   C229      1.0  0.6864699999999998  0.64678  0.87431  1.0000
  C   C230      1.0  0.7162500000000003  0.62622  0.9117699999999999  1.0000
  C   C231      1.0  0.7376299999999998  0.65989  0.9326  1.0000
  C   C232      1.0  0.5211399999999998  0.55734  0.81173  1.0000
  C   C233      1.0  0.56698  0.57857  0.82318  1.0000
  C   C234      1.0  0.53652  0.60897  0.86668  1.0000
  C   C235      1.0  0.4633600000000001  0.61586  0.8962900000000001  1.0000
  C   C236      1.0  0.44746000000000025  0.56784  0.84231  1.0000
  C   C237      1.0  0.5767799999999997  0.63611  0.88348  1.0000
  C   C238      1.0  0.7273300000000001  0.56878  0.92676  1.0000
  C   C239      1.0  0.9326100000000003  0.49355  0.85184  1.0000
  C   C240      1.0  0.8677200000000003  0.52763  0.886  1.0000
  C   C241      1.0  0.7961599999999999  0.52925  0.89012  1.0000
  C   C242      1.0  0.7905300000000001  0.49594  0.85848  1.0000
  C   C243      1.0  0.85553  0.46282  0.82226  1.0000
  C   C244      1.0  0.9260400000000002  0.46161  0.82026  1.0000
  C   C245      1.0  0.6966099999999997  0.45463  0.88143  1.0000
  C   C246      1.0  0.6550199999999998  0.46327999999999997  0.93513  1.0000
  C   C247      1.0  0.5910400000000001  0.51074  0.95375  1.0000
  C   C248      1.0  0.55974  0.51914  0.00443  1.0000
  C   C249      1.0  0.58695  0.47975  0.03441  1.0000
  C   C250      1.0  0.6793299999999999  0.42562  0.96729  1.0000
  C   C251      1.0  0.8510700000000002  0.43123  0.78366  1.0000
  C   C252      1.0  0.97117  0.46289  0.66001  1.0000
  C   C253      1.0  0.94982  0.43861  0.7042  1.0000
  C   C254      1.0  0.8739100000000002  0.4542999999999999  0.73369  1.0000
  C   C255      1.0  0.81995  0.49416  0.71669  1.0000
  C   C256      1.0  0.841  0.52327  0.67514  1.0000
  C   C257      1.0  0.9173399999999999  0.506  0.64639  1.0000
  C   C258      1.0  0.7220799999999999  0.46405  0.72533  1.0000
  C   C259      1.0  0.7190299999999998  0.47086000000000006  0.67443  1.0000
  C   C260      1.0  0.7828199999999998  0.44879  0.6323200000000001  1.0000
  C   C261      1.0  0.7729400000000001  0.4584  0.58708  1.0000
  C   C262      1.0  0.7025900000000002  0.49001  0.58338  1.0000
  C   C263      1.0  0.65148  0.50221  0.66801  1.0000
  C   C264      1.0  0.7836300000000003  0.57534  0.66581  1.0000
  C   C265      1.0  0.03394999999999993  0.57263  0.7084800000000001  1.0000
  C   C266      1.0  0.07923999999999996  0.55198  0.66145  1.0000
  C   C267      1.0  0.13111999999999996  0.57431  0.63168  1.0000
  C   C268      1.0  0.13654999999999998  0.61753  0.65113  1.0000
  C   C269      1.0  0.0883300000000001  0.64129  0.6968999999999999  1.0000
  C   C270      1.0  0.03739000000000004  0.6179  0.7258199999999999  1.0000
  C   C271      1.0  0.2543899999999999  0.61369  0.64249  1.0000
  C   C272      1.0  0.31831  0.6328  0.61798  1.0000
  C   C273      1.0  0.32154  0.66877  0.58026  1.0000
  C   C274      1.0  0.39031999999999994  0.67684  0.55825  1.0000
  C   C275      1.0  0.4525299999999999  0.64761  0.57192  1.0000
  C   C276      1.0  0.38120000000000004  0.6084  0.63267  1.0000
  C   C277      1.0  0.08898999999999996  0.6936  0.71103  1.0000
  C   C278      1.0  0.9403299999999994  0.7944800000000001  0.66212  1.0000
  C   C279      1.0  0.9761  0.7525  0.68748  1.0000
  C   C280      1.0  0.05189000000000004  0.73932  0.68247  1.0000
  C   C281      1.0  0.09169999999999988  0.76885  0.65024  1.0000
  C   C282      1.0  0.05789999999999963  0.8090100000000001  0.62176  1.0000
  C   C283      1.0  0.98146  0.82176  0.62904  1.0000
  C   C284      1.0  0.17264000000000002  0.78792  0.68171  1.0000
  C   C285      1.0  0.25277000000000005  0.78411  0.66649  1.0000
  C   C286      1.0  0.30793999999999994  0.74356  0.6822599999999999  1.0000
  C   C287      1.0  0.38275999999999993  0.74132  0.66242  1.0000
  C   C288      1.0  0.40006999999999987  0.77805  0.62846  1.0000
  C   C289      1.0  0.2745300000000001  0.82015  0.63301  1.0000
  C   C290      1.0  0.1023599999999999  0.83617  0.58161  1.0000
  C   C291      1.0  0.028680000000000098  0.84723  0.47574  1.0000
  C   C292      1.0  0.03918999999999989  0.86084  0.51672  1.0000
  C   C293      1.0  0.09654000000000004  0.82555  0.5336  1.0000
  C   C294      1.0  0.14434000000000008  0.77715  0.50691  1.0000
  C   C295      1.0  0.13034  0.7600299999999999  0.46855  1.0000
  C   C296      1.0  0.07254000000000002  0.79655  0.4528  1.0000
  C   C297      1.0  0.27581999999999995  0.74976  0.48273  1.0000
  C   C298      1.0  0.27781  0.80504  0.48439  1.0000
  C   C299      1.0  0.25105999999999973  0.84565  0.45347  1.0000
  C   C300      1.0  0.2501800000000001  0.89709  0.45892  1.0000
  C   C301      1.0  0.27466  0.90726  0.49446  1.0000
  C   C302      1.0  0.30139  0.81847  0.51889  1.0000
  C   C303      1.0  0.17072999999999997  0.70236  0.44923  1.0000
  C   C304      1.0  0.021490000000000023  0.64756  0.52766  1.0000
  C   C305      1.0  0.05977999999999999  0.67613  0.49389  1.0000
  C   C306      1.0  0.13596999999999995  0.66656  0.48507999999999996  1.0000
  C   C307      1.0  0.1744800000000001  0.6261699999999998  0.51155  1.0000
  C   C308      1.0  0.13566000000000009  0.59827  0.54722  1.0000
  C   C309      1.0  0.059690000000000014  0.60924  0.55459  1.0000
  C   C310      1.0  0.29969000000000007  0.60511  0.45652  1.0000
  C   C311      1.0  0.4809499999999999  0.51422  0.48113  1.0000
  C   C312      1.0  0.40708999999999995  0.55202  0.49298  1.0000
  C   C313      1.0  0.3746500000000001  0.57389  0.45503  1.0000
  C   C314      1.0  0.4212599999999999  0.55388  0.40716  1.0000
  C   C315      1.0  0.5204700000000001  0.49692  0.43228  1.0000
  C   C316      1.0  0.17402000000000004  0.55723  0.57881  1.0000
  C   C317      1.0  0.50596  0.76602  0.49397  1.0000
  C   C318      1.0  0.5488099999999999  0.71668  0.46460000000000007  1.0000
  C   C319      1.0  0.7357299999999999  0.83536  0.78409  1.0000
  C   C320      1.0  0.6657100000000001  0.8689700000000001  0.81393  1.0000
  C   C321      1.0  0.5997400000000002  0.87799  0.80379  1.0000
  C   C322      1.0  0.6052899999999997  0.8493200000000001  0.76397  1.0000
  C   C323      1.0  0.6759899999999999  0.81633  0.73254  1.0000
  C   C324      1.0  0.7406399999999997  0.81083  0.74289  1.0000
  C   C325      1.0  0.4998  0.82223  0.78547  1.0000
  C   C326      1.0  0.42294999999999994  0.8402299999999999  0.781  1.0000
  C   C327      1.0  0.4089900000000001  0.8207799999999998  0.74355  1.0000
  C   C328      1.0  0.3352400000000001  0.8431  0.74148  1.0000
  C   C329      1.0  0.27975999999999995  0.8831800000000001  0.77456  1.0000
  C   C330      1.0  0.3640500000000001  0.8793899999999999  0.81354  1.0000
  C   C331      1.0  0.68511  0.7867200000000001  0.6879  1.0000
  C   C332      1.0  0.85965  0.78878  0.5821200000000001  1.0000
  C   C333      1.0  0.81259  0.7698699999999999  0.62073  1.0000
  C   C334      1.0  0.73673  0.8023  0.64267  1.0000
  C   C335      1.0  0.7094399999999998  0.85307  0.62368  1.0000
  C   C336      1.0  0.75598  0.8742700000000001  0.58688  1.0000
  C   C337      1.0  0.83202  0.84099  0.5663  1.0000
  C   C338      1.0  0.39228999999999986  0.9421700000000001  0.68894  1.0000
  C   C339      1.0  0.47091000000000016  0.92165  0.67646  1.0000
  C   C340      1.0  0.5132599999999998  0.89111  0.63293  1.0000
  C   C341      1.0  0.47543  0.88346  0.6044000000000002  1.0000
  C   C342      1.0  0.35855999999999993  0.93115  0.65928  1.0000
  C   C343      1.0  0.59756  0.86489  0.61452  1.0000
  C   C344      1.0  0.7243500000000002  0.9319  0.57226  1.0000
  C   C345      1.0  0.7794299999999997  0.00684  0.64764  1.0000
  C   C346      1.0  0.78256  0.97322  0.61314  1.0000
  C   C347      1.0  0.7167500000000001  0.9713400000000001  0.60918  1.0000
  C   C348      1.0  0.6463099999999999  0.004159999999999998  0.64125  1.0000
  C   C349      1.0  0.64224  0.03692  0.67773  1.0000
  C   C350      1.0  0.70954  0.03817999999999999  0.67972  1.0000
  C   C351      1.0  0.5334400000000002  0.04493  0.61863  1.0000
  C   C352      1.0  0.55479  0.03626  0.56485  1.0000
  C   C353      1.0  0.55498  0.9896099999999999  0.54599  1.0000
  C   C354      1.0  0.5835399999999998  0.98096  0.49527  1.0000
  C   C355      1.0  0.60497  0.01916  0.46544  1.0000
  C   C356      1.0  0.5770899999999998  0.07281  0.53278  1.0000
  C   C357      1.0  0.56777  0.06806  0.71659  1.0000
  C   C358      1.0  0.59716  0.03437  0.83981  1.0000
  C   C359      1.0  0.59533  0.05929999999999999  0.7959  1.0000
  C   C360      1.0  0.56402  0.04433  0.76631  1.0000
  C   C361      1.0  0.5326599999999999  0.00456  0.78294  1.0000
  C   C362      1.0  0.54192  0.9746299999999999  0.82402  1.0000
  C   C363      1.0  0.5727999999999998  0.99122  0.85291  1.0000
  C   C364      1.0  0.4127399999999999  0.03646  0.77494  1.0000
  C   C365      1.0  0.36584999999999995  0.0301  0.82597  1.0000
  C   C366      1.0  0.36640999999999996  0.052079999999999994  0.86796  1.0000
  C   C367      1.0  0.32071  0.04324000000000001  0.91324  1.0000
  C   C368      1.0  0.27688000000000007  0.01238  0.91754  1.0000
  C   C369      1.0  0.3221699999999998  0.99951  0.83287  1.0000
  C   C370      1.0  0.5271500000000001  0.92257  0.83254  1.0000
  C   C371      1.0  0.8177799999999998  0.92454  0.79193  1.0000
  C   C372      1.0  0.79572  0.94601  0.83864  1.0000
  C   C373      1.0  0.84066  0.9247  0.86833  1.0000
  C   C374      1.0  0.9087800000000001  0.88139  0.84913  1.0000
  C   C375      1.0  0.9290999999999998  0.8564700000000001  0.80404  1.0000
  C   C376      1.0  0.8835900000000001  0.87914  0.77505  1.0000
  C   C377      1.0  0.016830000000000126  0.8843099999999999  0.85463  1.0000
  C   C378      1.0  0.07274999999999994  0.86852  0.88112  1.0000
  C   C379      1.0  0.07890999999999997  0.82867  0.91598  1.0000
  C   C380      1.0  0.13198999999999966  0.82138  0.93893  1.0000
  C   C381      1.0  0.17599999999999993  0.85267  0.92755  1.0000
  C   C382      1.0  0.1196600000000001  0.89728  0.8707399999999998  1.0000
  C   C383      1.0  0.9949899999999999  0.80361  0.7902300000000001  1.0000
  C   C384      1.0  0.8962399999999993  0.70399  0.83887  1.0000
  C   C385      1.0  0.91612  0.74562  0.8134  1.0000
  C   C386      1.0  0.9737299999999998  0.7584499999999998  0.81883  1.0000
  C   C387      1.0  0.010249999999999993  0.72887  0.85131  1.0000
  C   C388      1.0  0.9873599999999998  0.68914  0.87999  1.0000
  C   C389      1.0  0.9306600000000003  0.67688  0.87251  1.0000
  C   C390      1.0  0.14204  0.70731  0.82056  1.0000
  C   C391      1.0  0.20278  0.7121  0.83546  1.0000
  C   C392      1.0  0.22823999999999997  0.7553  0.82159  1.0000
  C   C393      1.0  0.28001000000000004  0.75916  0.84156  1.0000
  C   C394      1.0  0.3024099999999999  0.72207  0.87476  1.0000
  C   C395      1.0  0.22917000000000004  0.6759  0.86797  1.0000
  C   C396      1.0  0.018460000000000025  0.66218  0.92041  1.0000
  C   C397      1.0  0.8499699999999998  0.6538700000000001  0.027729999999999998  1.0000
  C   C398      1.0  0.9143699999999999  0.63939  0.98637  1.0000
  C   C399      1.0  0.9541399999999997  0.67402  0.96847  1.0000
  C   C400      1.0  0.9281799999999998  0.7228999999999999  0.99426  1.0000
  C   C401      1.0  0.8593899999999999  0.74078  0.033  1.0000
  C   C402      1.0  0.82181  0.70475  0.049969999999999994  1.0000
  C   C403      1.0  0.009230000000000033  0.75123  0.0165  1.0000
  C   C404      1.0  0.06703000000000003  0.69578  0.0161  1.0000
  C   C405      1.0  0.04829999999999994  0.65571  0.04693  1.0000
  C   C406      1.0  0.10329  0.60388  0.04219  1.0000
  C   C407      1.0  0.17415999999999998  0.59289  0.00741  1.0000
  C   C408      1.0  0.13925999999999988  0.68149  0.98255  1.0000
  C   C409      1.0  0.8236199999999999  0.79862  0.05174  1.0000
  C   C410      1.0  0.6980000000000002  0.85412  0.97332  1.0000
  C   C411      1.0  0.73065  0.8256100000000001  0.00733  1.0000
  C   C412      1.0  0.7894600000000002  0.83432  0.01563  1.0000
  C   C413      1.0  0.8152599999999993  0.87396  0.98869  1.0000
  C   C414      1.0  0.7844399999999999  0.90187  0.95291  1.0000
  C   C415      1.0  0.72617  0.89149  0.94574  1.0000
  C   C416      1.0  0.8641899999999999  0.89493  0.043780000000000006  1.0000
  C   C417      1.0  0.97499  0.9882  0.01874  1.0000
  C   C418      1.0  0.9559200000000001  0.94704  0.00777  1.0000
  C   C419      1.0  0.90583  0.92639  0.04565  1.0000
  C   C420      1.0  0.88152  0.94856  0.09319  1.0000
  C   C421      1.0  0.9416599999999999  0.01002  0.06651  1.0000
  C   C422      1.0  0.8140700000000001  0.94243  0.92102  1.0000
  C   C423      1.0  0.26704000000000006  0.73277  0.00675  1.0000
  C   C424      1.0  0.23069000000000006  0.78283  0.03504  1.0000
  N   N1        1.0  0.49388999999999994  0.40328  0.31108  1.0000
  N   N2        1.0  0.58017  0.40385999999999994  0.11706999999999998  1.0000
  N   N3        1.0  0.35128999999999994  0.56741  0.98393  1.0000
  N   N4        1.0  0.3553  0.48907  0.37682  1.0000
  N   N5        1.0  0.5448300000000003  0.39318  0.39356  1.0000
  N   N6        1.0  0.65245  0.18035  0.38839  1.0000
  N   N7        1.0  0.7002600000000001  0.13172  0.47572  1.0000
  N   N8        1.0  0.51101  0.49095999999999995  0.60331  1.0000
  N   N9        1.0  0.52734  0.19107  0.48457  1.0000
  N   N10       1.0  0.7077799999999999  0.09800999999999999  0.19232  1.0000
  N   N11       1.0  0.60054  0.09586  0.38414  1.0000
  N   N12       1.0  0.40401000000000004  0.93061  0.51721  1.0000
  N   N13       1.0  0.72087  0.013909999999999999  0.12439  1.0000
  N   N14       1.0  0.82806  0.11354  0.10923  1.0000
  N   N15       1.0  0.7198299999999997  0.31796  0.11261  1.0000
  N   N16       1.0  0.8033099999999999  0.36971  0.02547  1.0000
  N   N17       1.0  0.10227000000000004  0.011720000000000001  0.89637  1.0000
  N   N18       1.0  0.7015199999999998  0.30673  0.01708  1.0000
  N   N19       1.0  0.50277  0.59843  0.69078  1.0000
  N   N20       1.0  0.41826  0.59664  0.88468  1.0000
  N   N21       1.0  0.64476  0.43135999999999997  0.01677  1.0000
  N   N22       1.0  0.64143  0.51431  0.62367  1.0000
  N   N23       1.0  0.44961999999999974  0.61226  0.60835  1.0000
  N   N24       1.0  0.34691999999999984  0.81757  0.6128800000000001  1.0000
  N   N25       1.0  0.30001  0.86855  0.52517  1.0000
  N   N26       1.0  0.48907  0.51388  0.39573  1.0000
  N   N27       1.0  0.47314999999999985  0.80577  0.51762  1.0000
  N   N28       1.0  0.29245000000000004  0.90241  0.81105  1.0000
  N   N29       1.0  0.3994599999999999  0.90227  0.61685  1.0000
  N   N30       1.0  0.5997599999999997  0.06656  0.48319  1.0000
  N   N31       1.0  0.28023  0.98761  0.87738  1.0000
  N   N32       1.0  0.16964000000000004  0.8914599999999999  0.89413  1.0000
  N   N33       1.0  0.27736999999999995  0.68039  0.88888  1.0000
  N   N34       1.0  0.19317999999999994  0.63113  0.9769899999999999  1.0000
  N   N35       1.0  0.8929799999999999  0.99155  0.10338  1.0000
  N   N36       1.0  0.29801999999999995  0.6921100000000001  0.9842999999999998  1.0000
  O   O1        1.0  0.34678  0.35725  0.25698  1.0000
  O   O2        1.0  0.3432  0.38252  0.14327  1.0000
  O   O3        1.0  0.27882  0.50023  0.13993  1.0000
  O   O4        1.0  0.2543699999999999  0.49663  0.25938  1.0000
  O   O5        1.0  0.8034399999999998  0.36442  0.37417000000000006  1.0000
  O   O6        1.0  0.8329600000000004  0.24178000000000002  0.35399  1.0000
  O   O7        1.0  0.7918  0.25731  0.47963  1.0000
  O   O8        1.0  0.74705  0.39255  0.49452  1.0000
  O   O9        1.0  0.4618300000000001  0.14253  0.24546  1.0000
  O   O10       1.0  0.3688299999999999  0.11506  0.35848  1.0000
  O   O11       1.0  0.41969  0.99741  0.36074  1.0000
  O   O12       1.0  0.5129  0.00222  0.24081  1.0000
  O   O13       1.0  0.048120000000000024  0.13511  0.12266999999999999  1.0000
  O   O14       1.0  0.9281699999999998  0.25774  0.14397  1.0000
  O   O15       1.0  0.025639999999999986  0.24513000000000001  0.01842  1.0000
  O   O16       1.0  0.13719  0.10759  0.00525  1.0000
  O   O17       1.0  0.65228  0.64271  0.74324  1.0000
  O   O18       1.0  0.65594  0.6173  0.85686  1.0000
  O   O19       1.0  0.7197200000000001  0.49935  0.86067  1.0000
  O   O20       1.0  0.7437599999999998  0.5043  0.74075  1.0000
  O   O21       1.0  0.19241999999999995  0.63763  0.62464  1.0000
  O   O22       1.0  0.16651999999999997  0.75772  0.64578  1.0000
  O   O23       1.0  0.20783  0.74495  0.51866  1.0000
  O   O24       1.0  0.25047999999999987  0.60994  0.50485  1.0000
  O   O25       1.0  0.54009  0.8549099999999998  0.75462  1.0000
  O   O26       1.0  0.6321  0.88258  0.64131  1.0000
  O   O27       1.0  0.58099  0.0004900000000000007  0.63945  1.0000
  O   O28       1.0  0.48961000000000005  0.9954499999999998  0.7591  1.0000
  O   O29       1.0  0.9589100000000002  0.8624499999999999  0.8752999999999999  1.0000
  O   O30       1.0  0.07002000000000003  0.7395  0.8553799999999999  1.0000
  O   O31       1.0  0.9716999999999996  0.75479  0.98111  1.0000
  O   O32       1.0  0.8691199999999999  0.8896099999999999  0.99528  1.0000
