data_image0
_chemical_formula_structural       Zn32H168C336N24O104
_chemical_formula_sum              "Zn32 H168 C336 N24 O104"
_cell_length_a       30.19341
_cell_length_b       31.1807
_cell_length_c       31.166649999999997
_cell_angle_alpha    110.12821999999998
_cell_angle_beta     108.82616999999999
_cell_angle_gamma    108.80645

_space_group_name_H-M_alt    "P 1"
_space_group_IT_number       1

loop_
  _space_group_symop_operation_xyz
  'x, y, z'

loop_
  _atom_site_type_symbol
  _atom_site_label
  _atom_site_symmetry_multiplicity
  _atom_site_fract_x
  _atom_site_fract_y
  _atom_site_fract_z
  _atom_site_occupancy
  Zn  Zn1       1.0  0.91065  0.2875099999999999  0.53897  1.0000
  Zn  Zn2       1.0  0.74967  0.04520999999999998  0.97371  1.0000
  Zn  Zn3       1.0  0.57723  0.13104999999999997  0.63784  1.0000
  Zn  Zn4       1.0  0.6607999999999998  0.1880099999999998  0.7619199999999998  1.0000
  Zn  Zn5       1.0  0.70021  0.21196999999999996  0.68349  1.0000
  Zn  Zn6       1.0  0.4463299999999999  0.5067099999999998  0.86999  1.0000
  Zn  Zn7       1.0  0.7048499999999999  0.9283599999999996  0.9546199999999998  1.0000
  Zn  Zn8       1.0  0.48681  0.47161  0.78836  1.0000
  Zn  Zn9       1.0  0.0161  0.31825  0.52864  1.0000
  Zn  Zn10      1.0  0.93958  0.36340999999999996  0.49328  1.0000
  Zn  Zn11      1.0  0.47318999999999994  0.5738699999999999  0.8119999999999999  1.0000
  Zn  Zn12      1.0  0.6231  0.25157  0.71263  1.0000
  Zn  Zn13      1.0  0.89934  0.2382799999999999  0.42612999999999995  1.0000
  Zn  Zn14      1.0  0.77639  0.02619  0.07151  1.0000
  Zn  Zn15      1.0  0.83025  0.9999199999999999  1.9999999999999995e-05  1.0000
  Zn  Zn16      1.0  0.3706099999999999  0.4610399999999998  0.7484199999999998  1.0000
  Zn  Zn17      1.0  0.29517  0.07164999999999999  0.04537999999999998  1.0000
  Zn  Zn18      1.0  0.42278999999999994  0.8689599999999998  0.3621599999999999  1.0000
  Zn  Zn19      1.0  0.5131999999999999  0.5283899999999998  0.21163999999999997  1.0000
  Zn  Zn20      1.0  0.25034  0.95479  0.026299999999999994  1.0000
  Zn  Zn21      1.0  0.6294  0.53897  0.25159  1.0000
  Zn  Zn22      1.0  0.55368  0.49329999999999996  0.13002  1.0000
  Zn  Zn23      1.0  0.29979999999999996  0.7880299999999999  0.3165099999999999  1.0000
  Zn  Zn24      1.0  0.06042999999999993  0.6365899999999998  0.50672  1.0000
  Zn  Zn25      1.0  0.16974999999999996  7.999999999994649e-05  0.9999799999999999  1.0000
  Zn  Zn26      1.0  0.52682  0.42614  0.188  1.0000
  Zn  Zn27      1.0  0.10067000000000002  0.76172  0.57387  1.0000
  Zn  Zn28      1.0  0.3769099999999999  0.7484399999999998  0.28737  1.0000
  Zn  Zn29      1.0  0.22362000000000004  0.9738099999999997  0.92849  1.0000
  Zn  Zn30      1.0  0.9839099999999997  0.68175  0.4713599999999999  1.0000
  Zn  Zn31      1.0  0.08935999999999993  0.7124899999999997  0.46102999999999994  1.0000
  Zn  Zn32      1.0  0.33921  0.81199  0.23807999999999996  1.0000
  H   H1        1.0  0.74225  0.59095  0.8566699999999999  1.0000
  H   H2        1.0  0.6192  0.96561  0.3688899999999999  1.0000
  H   H3        1.0  0.26672  0.4943299999999999  0.6617699999999999  1.0000
  H   H4        1.0  0.69258  0.33496999999999993  0.9975199999999997  1.0000
  H   H5        1.0  0.7052400000000001  0.14637000000000006  0.54876  1.0000
  H   H6        1.0  0.29269  0.31973  0.60797  1.0000
  H   H7        1.0  0.1375599999999999  0.5755299999999999  0.5326399999999999  1.0000
  H   H8        1.0  0.35772999999999994  0.6625799999999997  0.66518  1.0000
  H   H9        1.0  0.8658  0.8798999999999998  0.9576899999999998  1.0000
  H   H10       1.0  0.71897  0.4662299999999999  0.69578  1.0000
  H   H11       1.0  0.6848700000000001  0.39222999999999997  0.7119899999999998  1.0000
  H   H12       1.0  0.55964  0.8152099999999999  0.13481999999999997  1.0000
  H   H13       1.0  0.07724999999999997  0.13791999999999993  0.19776999999999995  1.0000
  H   H14       1.0  0.25041  0.63163  0.59658  1.0000
  H   H15       1.0  0.55022  0.8653299999999998  0.83229  1.0000
  H   H16       1.0  0.11933999999999995  0.3518299999999999  0.6746099999999999  1.0000
  H   H17       1.0  0.46373999999999993  0.6262699999999999  0.9977999999999998  1.0000
  H   H18       1.0  0.15680999999999998  0.4522099999999999  0.59776  1.0000
  H   H19       1.0  0.62721  0.010359999999999961  0.8366  1.0000
  H   H20       1.0  0.15123999999999996  0.2655499999999999  0.40905999999999987  1.0000
  H   H21       1.0  0.5444199999999998  0.7195599999999996  0.9447599999999998  1.0000
  H   H22       1.0  0.69655  0.78437  0.89312  1.0000
  H   H23       1.0  0.8228699999999999  0.17902999999999988  0.7180199999999998  1.0000
  H   H24       1.0  0.12921999999999992  0.3464099999999999  0.8494499999999998  1.0000
  H   H25       1.0  0.6537699999999999  0.4033799999999998  0.03490999999999999  1.0000
  H   H26       1.0  0.6915299999999999  0.28152999999999984  0.9158299999999998  1.0000
  H   H27       1.0  0.5997500000000001  0.054799999999999995  0.77445  1.0000
  H   H28       1.0  0.41010999999999986  0.6345499999999997  0.7187199999999999  1.0000
  H   H29       1.0  0.05755999999999997  0.49561  0.50769  1.0000
  H   H30       1.0  0.5592900000000001  0.4025799999999999  0.8541899999999998  1.0000
  H   H31       1.0  0.7669800000000001  0.32291  0.64826  1.0000
  H   H32       1.0  0.62589  0.6757299999999999  0.8504199999999997  1.0000
  H   H33       1.0  0.49348  0.70533  0.07983999999999997  1.0000
  H   H34       1.0  0.7443599999999998  0.31974999999999987  0.18460999999999994  1.0000
  H   H35       1.0  0.88575  0.14322999999999989  0.7346299999999999  1.0000
  H   H36       1.0  0.02343999999999993  0.30460999999999994  0.7702499999999999  1.0000
  H   H37       1.0  0.27992  0.15039  0.49714  1.0000
  H   H38       1.0  0.89208  0.46808999999999984  0.56794  1.0000
  H   H39       1.0  0.2531  0.22948  0.53394  1.0000
  H   H40       1.0  0.44427999999999995  0.3254999999999999  0.6773599999999997  1.0000
  H   H41       1.0  0.83097  0.34612  0.60193  1.0000
  H   H42       1.0  0.71777  0.16716  0.03282999999999999  1.0000
  H   H43       1.0  0.82329  0.69403  0.90206  1.0000
  H   H44       1.0  0.98546  0.07773999999999998  0.11995  1.0000
  H   H45       1.0  0.9733199999999999  0.28811999999999993  0.67982  1.0000
  H   H46       1.0  0.42459000000000013  0.8651199999999999  0.6801  1.0000
  H   H47       1.0  0.63183  0.91828  0.16523999999999994  1.0000
  H   H48       1.0  0.3357  0.09320999999999992  0.4862199999999999  1.0000
  H   H49       1.0  0.56286  0.012969999999999938  0.5055699999999999  1.0000
  H   H50       1.0  0.48518  0.25624  0.65405  1.0000
  H   H51       1.0  0.77536  0.14965999999999993  0.82542  1.0000
  H   H52       1.0  0.7878900000000001  0.37452999999999986  0.29478999999999994  1.0000
  H   H53       1.0  0.12894  0.20782999999999996  0.30577  1.0000
  H   H54       1.0  0.77297  0.16800000000000004  0.50622  1.0000
  H   H55       1.0  0.78266  0.50312  0.65357  1.0000
  H   H56       1.0  0.4663099999999999  0.8344499999999998  0.7524399999999999  1.0000
  H   H57       1.0  0.46578  0.0024499999999999635  0.62839  1.0000
  H   H58       1.0  0.24226999999999996  0.3928999999999999  0.9070199999999998  1.0000
  H   H59       1.0  0.8796099999999999  0.80193  0.9397199999999999  1.0000
  H   H60       1.0  0.95023  0.17507  0.32496  1.0000
  H   H61       1.0  0.6166999999999999  0.8259999999999997  0.98919  1.0000
  H   H62       1.0  0.60462  0.4672499999999999  0.04256  1.0000
  H   H63       1.0  0.4136899999999999  0.9203199999999999  0.62525  1.0000
  H   H64       1.0  0.68455  0.9670799999999998  0.13407  1.0000
  H   H65       1.0  0.83708  0.37149999999999994  0.3737799999999999  1.0000
  H   H66       1.0  0.6050799999999998  0.33823  0.8323799999999998  1.0000
  H   H67       1.0  0.77578  0.08436999999999997  0.36574  1.0000
  H   H68       1.0  0.6435900000000004  0.53859  0.82097  1.0000
  H   H69       1.0  0.9078399999999999  0.0420899999999999  0.9224499999999998  1.0000
  H   H70       1.0  0.4246599999999999  0.10023999999999997  0.5322099999999998  1.0000
  H   H71       1.0  0.71395  0.24725999999999995  0.08154999999999997  1.0000
  H   H72       1.0  0.32427  0.4318299999999999  0.90011  1.0000
  H   H73       1.0  0.5500999999999999  0.49267999999999984  0.9877499999999999  1.0000
  H   H74       1.0  0.9395200000000001  0.05983999999999987  0.8623299999999998  1.0000
  H   H75       1.0  0.5626699999999999  0.95798  0.4253599999999999  1.0000
  H   H76       1.0  0.6951600000000002  0.0030400000000000127  0.33762  1.0000
  H   H77       1.0  0.84909  0.5139599999999998  0.6070599999999999  1.0000
  H   H78       1.0  0.92112  0.0977099999999999  0.7922799999999998  1.0000
  H   H79       1.0  0.9120599999999999  0.10897999999999995  0.21592999999999996  1.0000
  H   H80       1.0  0.22910999999999998  0.3979799999999999  0.74415  1.0000
  H   H81       1.0  0.10507999999999995  0.28237999999999996  0.46168999999999993  1.0000
  H   H82       1.0  0.82515  0.22549999999999992  0.28013999999999994  1.0000
  H   H83       1.0  0.80319  0.10678  0.89137  1.0000
  H   H84       1.0  0.79012  0.1631  0.17383999999999997  1.0000
  H   H85       1.0  0.30848  0.71848  0.08417  1.0000
  H   H86       1.0  0.34624  0.59663  0.9650899999999998  1.0000
  H   H87       1.0  0.31545999999999996  0.03291999999999986  0.8659299999999998  1.0000
  H   H88       1.0  0.19682000000000002  0.89322  0.10862999999999998  1.0000
  H   H89       1.0  0.16293  0.62851  0.62622  1.0000
  H   H90       1.0  0.3048599999999999  0.9969699999999999  0.6623799999999997  1.0000
  H   H91       1.0  0.7073199999999998  0.6802699999999998  0.39204  1.0000
  H   H92       1.0  0.53423  0.99756  0.37160999999999994  1.0000
  H   H93       1.0  0.2173499999999999  0.4968799999999998  0.3464299999999999  1.0000
  H   H94       1.0  0.22465  0.85035  0.17458  1.0000
  H   H95       1.0  0.89493  0.71763  0.53831  1.0000
  H   H96       1.0  0.21212000000000006  0.62548  0.70521  1.0000
  H   H97       1.0  0.15091999999999992  0.48604999999999976  0.39293999999999996  1.0000
  H   H98       1.0  0.51483  0.7437699999999998  0.34594999999999987  1.0000
  H   H99       1.0  0.7496100000000001  0.36837  0.4034199999999999  1.0000
  H   H100      1.0  0.04977999999999997  0.8249399999999998  0.67504  1.0000
  H   H101      1.0  0.57542  0.13487999999999994  0.31989999999999996  1.0000
  H   H102      1.0  0.2556599999999999  0.6802499999999998  0.81539  1.0000
  H   H103      1.0  0.77091  0.60202  0.25584999999999997  1.0000
  H   H104      1.0  0.50653  0.29466999999999993  0.9201599999999999  1.0000
  H   H105      1.0  0.55573  0.6744999999999999  0.32263999999999987  1.0000
  H   H106      1.0  0.4498  0.13467999999999994  0.16770999999999994  1.0000
  H   H107      1.0  0.84877  0.73445  0.59094  1.0000
  H   H108      1.0  0.6757499999999999  0.5681699999999997  0.09989  1.0000
  H   H109      1.0  0.22422999999999987  0.9156299999999999  0.6342599999999998  1.0000
  H   H110      1.0  0.36818000000000006  0.08172999999999989  0.8347599999999997  1.0000
  H   H111      1.0  0.35642  0.4614099999999999  0.17902999999999994  1.0000
  H   H112      1.0  0.10793999999999995  0.5319099999999999  0.43205999999999994  1.0000
  H   H113      1.0  0.66431  0.90679  0.51378  1.0000
  H   H114      1.0  0.8707899999999998  0.65359  0.15054999999999996  1.0000
  H   H115      1.0  0.13421  0.1201  0.04231  1.0000
  H   H116      1.0  0.25776  0.40904999999999997  0.14333  1.0000
  H   H117      1.0  0.9227700000000002  0.8620799999999996  0.8022299999999998  1.0000
  H   H118      1.0  0.17485999999999996  0.7745  0.7198599999999999  1.0000
  H   H119      1.0  0.4002699999999999  0.9451999999999998  0.22554999999999994  1.0000
  H   H120      1.0  0.11425999999999997  0.85677  0.26536999999999994  1.0000
  H   H121      1.0  0.026689999999999908  0.7118799999999997  0.3201799999999999  1.0000
  H   H122      1.0  0.31514  0.60777  0.28801  1.0000
  H   H123      1.0  0.22703999999999988  0.8319999999999996  0.4937899999999999  1.0000
  H   H124      1.0  0.38331  0.17399999999999993  0.010809999999999998  1.0000
  H   H125      1.0  0.6422799999999999  0.3374199999999999  0.33483  1.0000
  H   H126      1.0  0.2098899999999999  0.8369  0.82616  1.0000
  H   H127      1.0  0.17713999999999994  0.8209699999999998  0.28198999999999996  1.0000
  H   H128      1.0  0.44073  0.59742  0.14581  1.0000
  H   H129      1.0  0.44991000000000003  0.50732  0.01225  1.0000
  H   H130      1.0  0.16904  0.65389  0.39807  1.0000
  H   H131      1.0  0.29477  0.85363  0.4512399999999999  1.0000
  H   H132      1.0  0.06049000000000006  0.9401599999999999  0.13768  1.0000
  H   H133      1.0  0.74691  0.77052  0.4660599999999999  1.0000
  H   H134      1.0  0.39539999999999986  0.5327499999999997  0.9574399999999997  1.0000
  H   H135      1.0  0.37413000000000024  0.32428  0.14958  1.0000
  H   H136      1.0  0.07888999999999999  0.9023  0.20771999999999996  1.0000
  H   H137      1.0  0.8432  0.5478  0.40223999999999993  1.0000
  H   H138      1.0  0.3728100000000001  0.98965  0.1634  1.0000
  H   H139      1.0  0.09217000000000002  0.9579100000000002  0.07755  1.0000
  H   H140      1.0  0.39493  0.66177  0.16762  1.0000
  H   H141      1.0  0.12040999999999998  0.19806999999999997  0.060279999999999986  1.0000
  H   H142      1.0  0.014550000000000007  0.92226  0.88005  1.0000
  H   H143      1.0  0.57536  0.89976  0.46779  1.0000
  H   H144      1.0  0.9424499999999998  0.50439  0.4923099999999999  1.0000
  H   H145      1.0  0.8710799999999999  0.7921699999999999  0.6942299999999998  1.0000
  H   H146      1.0  0.43734  0.04203000000000001  0.57465  1.0000
  H   H147      1.0  0.38081  0.03439999999999998  0.63111  1.0000
  H   H148      1.0  0.73329  0.50567  0.33823  1.0000
  H   H149      1.0  0.17671999999999993  0.3059699999999999  0.09794  1.0000
  H   H150      1.0  0.08794999999999999  0.89103  0.78407  1.0000
  H   H151      1.0  0.44037  0.18479000000000007  0.86518  1.0000
  H   H152      1.0  0.28605999999999987  0.7527399999999999  0.9184499999999998  1.0000
  H   H153      1.0  0.4371499999999999  0.9870299999999997  0.49443  1.0000
  H   H154      1.0  0.45559  0.28044  0.055239999999999984  1.0000
  H   H155      1.0  0.28223999999999994  0.8328399999999999  0.9671699999999998  1.0000
  H   H156      1.0  0.23303  0.67709  0.35174  1.0000
  H   H157      1.0  0.86246  0.42447  0.46736  1.0000
  H   H158      1.0  0.5863199999999998  0.07967999999999995  0.37474999999999997  1.0000
  H   H159      1.0  0.7577399999999999  0.60711  0.09297999999999997  1.0000
  H   H160      1.0  0.53627  0.37373  0.0022  1.0000
  H   H161      1.0  0.5337  0.16554999999999992  0.24755999999999995  1.0000
  H   H162      1.0  0.28104  0.53378  0.30422  1.0000
  H   H163      1.0  0.88067  0.64817  0.3253899999999999  1.0000
  H   H164      1.0  0.30743  0.66503  0.00248  1.0000
  H   H165      1.0  0.72009  0.8496099999999999  0.5028599999999999  1.0000
  H   H166      1.0  0.9765699999999999  0.6953899999999997  0.22976  1.0000
  H   H167      1.0  0.5899  0.36544999999999994  0.28128  1.0000
  H   H168      1.0  0.30346  0.21563999999999997  0.10688  1.0000
  C   C1        1.0  0.7806799999999999  0.83618  0.9264499999999998  1.0000
  C   C2        1.0  0.77888  0.13058999999999998  0.43742999999999993  1.0000
  C   C3        1.0  0.9484  0.11584999999999997  0.21307  1.0000
  C   C4        1.0  0.7538  0.16079999999999994  0.10055  1.0000
  C   C5        1.0  0.65759  0.9251299999999999  0.10961  1.0000
  C   C6        1.0  0.40269000000000005  0.2179799999999999  0.5929799999999998  1.0000
  C   C7        1.0  0.45214  0.22131999999999996  0.61785  1.0000
  C   C8        1.0  0.99363  0.19368  0.34224  1.0000
  C   C9        1.0  0.2856199999999999  0.5307299999999999  0.6621799999999998  1.0000
  C   C10       1.0  0.18473999999999996  0.37499  0.78223  1.0000
  C   C11       1.0  0.45392999999999983  0.9490599999999997  0.6577199999999997  1.0000
  C   C12       1.0  0.59992  0.40120999999999984  0.9248199999999999  1.0000
  C   C13       1.0  0.68822  0.040619999999999955  0.40637999999999996  1.0000
  C   C14       1.0  0.70967  0.08727999999999997  0.45414999999999994  1.0000
  C   C15       1.0  0.10272999999999997  0.4695299999999999  0.55114  1.0000
  C   C16       1.0  0.77362  0.18181  0.15462  1.0000
  C   C17       1.0  0.62359  0.33792999999999995  0.86844  1.0000
  C   C18       1.0  0.99982  0.24301999999999996  0.4285299999999999  1.0000
  C   C19       1.0  0.041680000000000016  0.1319  0.20196  1.0000
  C   C20       1.0  0.14225  0.54891  0.54668  1.0000
  C   C21       1.0  0.58978  0.81715  0.04392  1.0000
  C   C22       1.0  0.77265  0.22697  0.18268  1.0000
  C   C23       1.0  0.36773  0.12851  0.52272  1.0000
  C   C24       1.0  0.7425899999999999  0.7431399999999997  0.8930799999999998  1.0000
  C   C25       1.0  0.18927999999999995  0.37412  0.82885  1.0000
  C   C26       1.0  0.71157  0.03866999999999994  0.3740199999999999  1.0000
  C   C27       1.0  0.8272800000000002  0.16470999999999994  0.74552  1.0000
  C   C28       1.0  0.8888199999999999  0.3772199999999999  0.5588499999999998  1.0000
  C   C29       1.0  0.8904600000000003  0.05606999999999999  0.11612999999999997  1.0000
  C   C30       1.0  0.23084999999999992  0.39659999999999984  0.7789999999999998  1.0000
  C   C31       1.0  0.63411  0.08248000000000001  0.53154  1.0000
  C   C32       1.0  0.7553999999999998  0.13199999999999995  0.4697499999999999  1.0000
  C   C33       1.0  0.75719  0.18548999999999985  0.7576199999999997  1.0000
  C   C34       1.0  0.34141  0.56294  0.69315  1.0000
  C   C35       1.0  0.10036999999999999  0.33756  0.77295  1.0000
  C   C36       1.0  0.73046  0.22932999999999998  0.10187  1.0000
  C   C37       1.0  0.83413  0.38236  0.60336  1.0000
  C   C38       1.0  0.36682999999999993  0.6104299999999999  0.6941999999999998  1.0000
  C   C39       1.0  0.65335  0.89919  0.06007999999999999  1.0000
  C   C40       1.0  0.41742999999999997  0.13258999999999996  0.54843  1.0000
  C   C41       1.0  0.3706400000000001  0.32755  0.64612  1.0000
  C   C42       1.0  0.6479100000000001  0.36601999999999996  0.9599099999999999  1.0000
  C   C43       1.0  0.6732600000000001  0.3356599999999998  0.9618499999999998  1.0000
  C   C44       1.0  0.59484  0.8439599999999999  0.09409999999999998  1.0000
  C   C45       1.0  0.78056  0.30178  0.24235  1.0000
  C   C46       1.0  0.09948999999999998  0.34159  0.69593  1.0000
  C   C47       1.0  0.83277  0.29793  0.3314199999999999  1.0000
  C   C48       1.0  0.5697799999999998  0.4162899999999999  0.8950299999999998  1.0000
  C   C49       1.0  0.6516999999999998  0.6580899999999998  0.8516099999999998  1.0000
  C   C50       1.0  0.7747899999999999  0.8839599999999997  0.94007  1.0000
  C   C51       1.0  0.48775999999999997  0.6648799999999999  0.004789999999999998  1.0000
  C   C52       1.0  0.01669999999999998  0.3055499999999999  0.69941  1.0000
  C   C53       1.0  0.09762000000000001  0.50429  0.53285  1.0000
  C   C54       1.0  0.55949  0.025179999999999994  0.74258  1.0000
  C   C55       1.0  0.8353899999999997  0.1286399999999999  0.8170299999999998  1.0000
  C   C56       1.0  0.79603  0.16628  0.77085  1.0000
  C   C57       1.0  0.36070999999999986  0.17134999999999984  0.5454699999999999  1.0000
  C   C58       1.0  0.53498  0.03372999999999992  0.7021299999999998  1.0000
  C   C59       1.0  0.82706  0.17883  0.45379999999999987  1.0000
  C   C60       1.0  0.67535  0.07575999999999997  0.47669999999999996  1.0000
  C   C61       1.0  0.08199999999999992  0.2548899999999999  0.4198399999999999  1.0000
  C   C62       1.0  0.70667  0.68799  0.8712199999999998  1.0000
  C   C63       1.0  0.5381599999999999  0.7575999999999998  0.05918  1.0000
  C   C64       1.0  0.75666  0.08408  0.38989999999999997  1.0000
  C   C65       1.0  0.48262  0.6201399999999998  0.9178999999999999  1.0000
  C   C66       1.0  0.38158000000000003  0.2535  0.60508  1.0000
  C   C67       1.0  0.50496  0.70902  0.05107  1.0000
  C   C68       1.0  0.751  0.25041  0.15595  1.0000
  C   C69       1.0  0.6622999999999999  0.5804099999999999  0.8352599999999999  1.0000
  C   C70       1.0  0.99925  0.15009999999999996  0.25696  1.0000
  C   C71       1.0  0.3930699999999999  0.38117999999999996  0.6897099999999999  1.0000
  C   C72       1.0  0.94415  0.0903  0.16388  1.0000
  C   C73       1.0  0.044519999999999886  0.3146599999999999  0.7497599999999998  1.0000
  C   C74       1.0  0.07568  0.20985  0.33701  1.0000
  C   C75       1.0  0.59191  0.9725099999999999  0.81782  1.0000
  C   C76       1.0  0.56492  0.4674499999999999  0.9711799999999999  1.0000
  C   C77       1.0  0.5477099999999999  0.8898499999999997  0.8148899999999999  1.0000
  C   C78       1.0  0.8659899999999999  0.12696999999999983  0.7904799999999997  1.0000
  C   C79       1.0  0.6333899999999999  0.11493999999999996  0.5789299999999998  1.0000
  C   C80       1.0  0.8150499999999999  0.45473999999999987  0.6259499999999999  1.0000
  C   C81       1.0  0.8326799999999998  0.0970499999999999  0.8844999999999997  1.0000
  C   C82       1.0  0.6428  0.9563299999999999  0.8856599999999998  1.0000
  C   C83       1.0  0.6749900000000002  0.10553999999999998  0.52159  1.0000
  C   C84       1.0  0.32969999999999994  0.44095  0.81805  1.0000
  C   C85       1.0  0.73888  0.6630499999999998  0.87285  1.0000
  C   C86       1.0  0.50141  0.66856  0.96639  1.0000
  C   C87       1.0  0.80961  0.40724999999999995  0.6250499999999999  1.0000
  C   C88       1.0  0.80011  0.14832  0.80675  1.0000
  C   C89       1.0  0.5712899999999999  0.5717899999999998  0.8143  1.0000
  C   C90       1.0  0.70377  0.31082999999999994  0.6919899999999999  1.0000
  C   C91       1.0  0.3731400000000002  0.5464199999999999  0.72494  1.0000
  C   C92       1.0  0.59397  0.99865  0.4519499999999999  1.0000
  C   C93       1.0  0.63469  0.02238  0.44215  1.0000
  C   C94       1.0  0.6484299999999998  0.3070099999999999  0.8698299999999998  1.0000
  C   C95       1.0  0.12822  0.3514999999999999  0.74655  1.0000
  C   C96       1.0  0.012439999999999979  0.30844999999999995  0.6186399999999999  1.0000
  C   C97       1.0  0.8687  0.45179999999999987  0.5840799999999999  1.0000
  C   C98       1.0  0.5534900000000003  0.76219  0.021539999999999997  1.0000
  C   C99       1.0  0.51832  0.46393999999999985  0.8856499999999999  1.0000
  C   C100      1.0  0.99063  0.09831999999999998  0.15882  1.0000
  C   C101      1.0  0.7765300000000002  0.39519999999999994  0.64859  1.0000
  C   C102      1.0  0.75652  0.11378999999999997  0.07063  1.0000
  C   C103      1.0  0.7950100000000002  0.7492399999999999  0.9069899999999997  1.0000
  C   C104      1.0  0.2945499999999999  0.25004999999999994  0.5647299999999998  1.0000
  C   C105      1.0  0.62269  0.3671299999999999  0.91326  1.0000
  C   C106      1.0  0.50055  0.9056199999999998  0.74937  1.0000
  C   C107      1.0  0.8623900000000003  0.14495000000000005  0.75479  1.0000
  C   C108      1.0  0.67282  0.30607  0.91635  1.0000
  C   C109      1.0  0.8447300000000002  0.4774799999999999  0.6058099999999998  1.0000
  C   C110      1.0  0.025449999999999962  0.22961999999999988  0.39613  1.0000
  C   C111      1.0  0.54576  0.9556999999999999  0.7728199999999997  1.0000
  C   C112      1.0  0.48294000000000004  0.9954300000000001  0.65998  1.0000
  C   C113      1.0  0.5941399999999999  0.029449999999999928  0.4967699999999999  1.0000
  C   C114      1.0  0.6125599999999998  0.4199599999999999  0.9782099999999998  1.0000
  C   C115      1.0  0.7247  0.35425  0.6817  1.0000
  C   C116      1.0  0.7325  0.18464  0.07475  1.0000
  C   C117      1.0  0.8634899999999999  0.40451  0.58259  1.0000
  C   C118      1.0  0.018560000000000014  0.18334  0.31218  1.0000
  C   C119      1.0  0.56457  0.0825399999999999  0.7026399999999998  1.0000
  C   C120      1.0  0.8167400000000001  0.25736999999999993  0.28241999999999995  1.0000
  C   C121      1.0  0.7357000000000002  0.78709  0.9027899999999998  1.0000
  C   C122      1.0  0.28092999999999996  0.4172699999999998  0.8219099999999999  1.0000
  C   C123      1.0  0.10774999999999997  0.24549999999999994  0.39071  1.0000
  C   C124      1.0  0.59303  0.93935  0.8386899999999998  1.0000
  C   C125      1.0  0.2819799999999999  0.59405  0.6340799999999998  1.0000
  C   C126      1.0  0.6294499999999998  0.60416  0.8335899999999998  1.0000
  C   C127      1.0  0.47894000000000003  0.9407399999999998  0.69807  1.0000
  C   C128      1.0  0.25557  0.54635  0.63297  1.0000
  C   C129      1.0  0.6191  0.8451499999999998  0.02699  1.0000
  C   C130      1.0  0.19875999999999994  0.52395  0.5989  1.0000
  C   C131      1.0  0.04547  0.15785999999999997  0.25068  1.0000
  C   C132      1.0  0.6483300000000001  0.2750000000000001  0.8216  1.0000
  C   C133      1.0  0.5121199999999999  0.18225999999999984  0.6231499999999999  1.0000
  C   C134      1.0  0.8321300000000001  0.84108  0.9393899999999998  1.0000
  C   C135      1.0  0.8493  0.10669999999999986  0.8502399999999998  1.0000
  C   C136      1.0  0.9099599999999999  0.06997999999999988  0.8683599999999998  1.0000
  C   C137      1.0  0.1927299999999999  0.5585099999999998  0.5800699999999999  1.0000
  C   C138      1.0  0.71087  0.3943499999999999  0.6945999999999999  1.0000
  C   C139      1.0  0.5009499999999999  0.8725399999999998  0.77035  1.0000
  C   C140      1.0  0.62829  0.89802  0.12707999999999997  1.0000
  C   C141      1.0  0.5954700000000002  0.45339  0.0019399999999999997  1.0000
  C   C142      1.0  0.23907  0.39415  0.87176  1.0000
  C   C143      1.0  0.79138  0.25958999999999993  0.23769999999999994  1.0000
  C   C144      1.0  0.04353000000000002  0.31844  0.67227  1.0000
  C   C145      1.0  0.28472999999999987  0.4157899999999999  0.8677499999999998  1.0000
  C   C146      1.0  0.05446999999999997  0.4225699999999999  0.53647  1.0000
  C   C147      1.0  0.8623999999999999  0.2978599999999999  0.37985999999999986  1.0000
  C   C148      1.0  0.40313999999999983  0.3040599999999999  0.6457399999999998  1.0000
  C   C149      1.0  0.7575  0.3545599999999999  0.65851  1.0000
  C   C150      1.0  0.7627599999999999  0.43566  0.66262  1.0000
  C   C151      1.0  0.1535300000000001  0.47925  0.58399  1.0000
  C   C152      1.0  0.83464  0.0599  0.94427  1.0000
  C   C153      1.0  0.53194  0.97821  0.7403  1.0000
  C   C154      1.0  0.53409  0.71746  0.9746  1.0000
  C   C155      1.0  0.89247  0.060379999999999975  0.90191  1.0000
  C   C156      1.0  0.32738  0.22701  0.56463  1.0000
  C   C157      1.0  0.7298299999999999  0.43557  0.6855599999999998  1.0000
  C   C158      1.0  0.7171800000000003  0.6094  0.85496  1.0000
  C   C159      1.0  0.83993  0.7978699999999997  0.92968  1.0000
  C   C160      1.0  0.82261  0.33991  0.33515  1.0000
  C   C161      1.0  0.45946  0.17845999999999995  0.59569  1.0000
  C   C162      1.0  0.88776  0.0926899999999999  0.8424399999999997  1.0000
  C   C163      1.0  0.3166999999999999  0.30031999999999986  0.60598  1.0000
  C   C164      1.0  0.8540300000000001  0.07342999999999993  0.9099999999999999  1.0000
  C   C165      1.0  0.55186  0.44924  0.9181  1.0000
  C   C166      1.0  0.7957400000000001  0.34209  0.291  1.0000
  C   C167      1.0  0.6861999999999999  0.9289  0.04298999999999999  1.0000
  C   C168      1.0  0.33768000000000004  0.62629  0.6645299999999998  1.0000
  C   C169      1.0  0.22113999999999992  0.8694199999999997  0.56258  1.0000
  C   C170      1.0  0.15072000000000005  0.89331  0.14976  1.0000
  C   C171      1.0  0.6393  0.82865  0.45453  1.0000
  C   C172      1.0  0.80126  0.4760499999999999  0.40109999999999996  1.0000
  C   C173      1.0  0.44052  0.97483  0.25742  1.0000
  C   C174      1.0  0.6586100000000003  0.43705999999999984  0.30684999999999996  1.0000
  C   C175      1.0  0.24349  0.88621  0.92937  1.0000
  C   C176      1.0  0.00018999999999992298  0.7569799999999998  0.57147  1.0000
  C   C177      1.0  0.90239  0.49571999999999994  0.4671499999999999  1.0000
  C   C178      1.0  0.13130999999999993  0.5481999999999998  0.41591999999999996  1.0000
  C   C179      1.0  0.9875699999999998  0.6915499999999998  0.38136  1.0000
  C   C180      1.0  0.60694  0.61883  0.31028999999999995  1.0000
  C   C181      1.0  0.49945999999999996  0.09438999999999999  0.25062999999999996  1.0000
  C   C182      1.0  0.14597999999999997  0.9265699999999999  0.09  1.0000
  C   C183      1.0  0.40586999999999995  0.9705499999999998  0.50323  1.0000
  C   C184      1.0  0.76094  0.60585  0.12824  1.0000
  C   C185      1.0  0.52107  0.059259999999999945  0.3019299999999999  1.0000
  C   C186      1.0  0.1774  0.66009  0.66485  1.0000
  C   C187      1.0  0.9455399999999999  0.5774299999999998  0.4635299999999999  1.0000
  C   C188      1.0  0.66233  0.37370999999999993  0.33546999999999993  1.0000
  C   C189      1.0  0.71528  0.58422  0.13225  1.0000
  C   C190      1.0  0.9833099999999999  0.6944499999999998  0.30058999999999997  1.0000
  C   C191      1.0  0.29623999999999995  0.6891699999999998  0.30800999999999995  1.0000
  C   C192      1.0  0.4069799999999999  0.06065999999999997  0.16131999999999994  1.0000
  C   C193      1.0  0.4523  0.11014999999999994  0.18510999999999994  1.0000
  C   C194      1.0  0.055859999999999826  0.9097099999999997  0.8361299999999998  1.0000
  C   C195      1.0  0.15528  0.52252  0.39419  1.0000
  C   C196      1.0  0.8717899999999998  0.6484999999999997  0.25344999999999995  1.0000
  C   C197      1.0  0.54055  0.82154  0.4043099999999999  1.0000
  C   C198      1.0  0.7180300000000001  0.40595  0.36593  1.0000
  C   C199      1.0  0.31382000000000004  0.07111000000000003  0.95701  1.0000
  C   C200      1.0  0.20426999999999987  0.6579099999999999  0.7089999999999997  1.0000
  C   C201      1.0  0.22522  0.11604  0.05992999999999998  1.0000
  C   C202      1.0  0.6726299999999998  0.7729899999999998  0.43536999999999987  1.0000
  C   C203      1.0  0.3466599999999999  0.1008099999999998  0.9399299999999998  1.0000
  C   C204      1.0  0.46503  0.9662700000000001  0.29787  1.0000
  C   C205      1.0  0.4001000000000001  0.59879  0.07517999999999998  1.0000
  C   C206      1.0  0.6184299999999999  0.7464999999999998  0.3949199999999999  1.0000
  C   C207      1.0  0.54788  0.77868  0.38214999999999993  1.0000
  C   C208      1.0  0.2903399999999999  0.9127299999999998  0.54585  1.0000
  C   C209      1.0  0.18326999999999996  0.74263  0.7175799999999999  1.0000
  C   C210      1.0  0.26750999999999997  0.81537  0.9252499999999999  1.0000
  C   C211      1.0  0.80728  0.44149  0.41993  1.0000
  C   C212      1.0  0.43544  0.91746  0.29736  1.0000
  C   C213      1.0  0.46806999999999993  0.021789999999999997  0.25971  1.0000
  C   C214      1.0  0.2753099999999999  0.6457499999999998  0.3183  1.0000
  C   C215      1.0  0.33770999999999995  0.41959  0.16473999999999994  1.0000
  C   C216      1.0  0.10954999999999997  0.94393  0.88387  1.0000
  C   C217      1.0  0.17272999999999997  0.8352999999999999  0.25449  1.0000
  C   C218      1.0  0.16733  0.90295  0.1155  1.0000
  C   C219      1.0  0.3272  0.69393  0.08365  1.0000
  C   C220      1.0  0.63318  0.38957  0.3058  1.0000
  C   C221      1.0  0.32501999999999986  0.8944599999999998  0.47840999999999995  1.0000
  C   C222      1.0  0.22348999999999994  0.60481  0.3514199999999999  1.0000
  C   C223      1.0  0.37731999999999993  0.6328699999999998  0.08673999999999998  1.0000
  C   C224      1.0  0.16461999999999993  0.8713599999999998  0.18297999999999998  1.0000
  C   C225      1.0  0.16007999999999994  0.20213999999999993  0.07033  1.0000
  C   C226      1.0  0.3521  0.63398  0.04009  1.0000
  C   C227      1.0  0.11224999999999988  0.9073099999999995  0.15756  1.0000
  C   C228      1.0  0.1111899999999999  0.6227799999999998  0.4411599999999999  1.0000
  C   C229      1.0  0.40516999999999986  0.1560399999999999  0.9058999999999998  1.0000
  C   C230      1.0  0.48168999999999995  0.5360599999999999  0.11434999999999997  1.0000
  C   C231      1.0  0.21933  0.16383  0.07354999999999999  1.0000
  C   C232      1.0  0.97456  0.7703799999999998  0.6038699999999999  1.0000
  C   C233      1.0  0.13760999999999998  0.7021399999999998  0.62014  1.0000
  C   C234      1.0  0.40455  0.54662  0.99806  1.0000
  C   C235      1.0  0.21945000000000003  0.69822  0.75765  1.0000
  C   C236      1.0  0.48789000000000005  0.8177399999999999  0.37685  1.0000
  C   C237      1.0  0.2086299999999999  0.74042  0.7622999999999998  1.0000
  C   C238      1.0  0.3424199999999999  0.07487999999999992  0.8903899999999999  1.0000
  C   C239      1.0  0.46184999999999987  0.24239999999999984  0.9408199999999998  1.0000
  C   C240      1.0  0.4081  0.02748999999999999  0.18218  1.0000
  C   C241      1.0  0.16788  0.15892  0.06061  1.0000
  C   C242      1.0  0.16589000000000004  0.61764  0.39665  1.0000
  C   C243      1.0  0.24901999999999996  0.74959  0.84405  1.0000
  C   C244      1.0  0.44815000000000005  0.55076  0.08190999999999998  1.0000
  C   C245      1.0  0.13652000000000003  0.59549  0.41741  1.0000
  C   C246      1.0  0.009389999999999817  0.9016799999999998  0.8411899999999999  1.0000
  C   C247      1.0  0.26113  0.33694999999999997  0.12715  1.0000
  C   C248      1.0  0.24335999999999997  0.9159199999999998  0.61011  1.0000
  C   C249      1.0  0.9545399999999999  0.8421399999999998  0.74932  1.0000
  C   C250      1.0  0.38745  0.58004  0.021799999999999993  1.0000
  C   C251      1.0  0.24282999999999996  0.81452  0.24237999999999996  1.0000
  C   C252      1.0  0.23726  0.56434  0.33738  1.0000
  C   C253      1.0  0.7691600000000001  0.6033999999999998  0.221  1.0000
  C   C254      1.0  0.13402000000000003  0.87303  0.20953  1.0000
  C   C255      1.0  0.84648  0.52075  0.41600999999999994  1.0000
  C   C256      1.0  0.2695499999999999  0.77067  0.8981299999999998  1.0000
  C   C257      1.0  0.28284  0.39061  0.14504  1.0000
  C   C258      1.0  0.2884399999999999  0.9613299999999998  0.62598  1.0000
  C   C259      1.0  0.42872  0.42820999999999987  0.1857  1.0000
  C   C260      1.0  0.49905999999999995  0.12745999999999993  0.22964999999999994  1.0000
  C   C261      1.0  0.43509  0.53255  0.02883  1.0000
  C   C262      1.0  0.09004999999999992  0.9300199999999997  0.13164999999999996  1.0000
  C   C263      1.0  0.16724000000000003  0.70207  0.66858  1.0000
  C   C264      1.0  0.0063799999999999074  0.80632  0.65776  1.0000
  C   C265      1.0  0.36531999999999987  0.9776299999999999  0.5578499999999998  1.0000
  C   C266      1.0  0.89226  0.7545  0.6092899999999999  1.0000
  C   C267      1.0  0.20398999999999992  0.8337199999999998  0.22914999999999994  1.0000
  C   C268      1.0  0.35722  0.04366999999999999  0.11434999999999997  1.0000
  C   C269      1.0  0.26431  0.21292  0.09721999999999997  1.0000
  C   C270      1.0  0.67031  0.55906  0.18194999999999995  1.0000
  C   C271      1.0  0.3666199999999998  0.8850699999999996  0.4210699999999999  1.0000
  C   C272      1.0  0.28914  0.60565  0.30541  1.0000
  C   C273      1.0  0.18496000000000004  0.54527  0.37405  1.0000
  C   C274      1.0  0.0007599999999999861  0.8499  0.7430399999999999  1.0000
  C   C275      1.0  0.62688  0.4535899999999999  0.27505999999999997  1.0000
  C   C276      1.0  0.3516899999999999  0.7249999999999998  0.17839999999999998  1.0000
  C   C277      1.0  0.6293699999999999  0.6724499999999999  0.35387999999999986  1.0000
  C   C278      1.0  0.16537  0.9401  0.055729999999999995  1.0000
  C   C279      1.0  0.2263899999999998  0.8181999999999997  0.8453799999999998  1.0000
  C   C280      1.0  0.9554900000000002  0.68535  0.25024  1.0000
  C   C281      1.0  0.40604  0.0013499999999999923  0.54805  1.0000
  C   C282      1.0  0.20500999999999997  0.25076  0.09300999999999998  1.0000
  C   C283      1.0  0.32467  0.9242400000000001  0.5233  1.0000
  C   C284      1.0  0.13763000000000003  0.85505  0.24520999999999996  1.0000
  C   C285      1.0  0.17295  0.82117  0.5462  1.0000
  C   C286      1.0  0.32676  0.66434  0.03815  1.0000
  C   C287      1.0  0.7143899999999999  0.46926999999999996  0.33782  1.0000
  C   C288      1.0  0.46592  0.28254  0.025399999999999992  1.0000
  C   C289      1.0  0.29334  0.31201  0.12877999999999998  1.0000
  C   C290      1.0  0.91801  0.74512  0.58016  1.0000
  C   C291      1.0  0.81527  0.62501  0.21777  1.0000
  C   C292      1.0  0.2462199999999999  0.8392  0.8994499999999997  1.0000
  C   C293      1.0  0.5122599999999999  0.3351299999999998  0.9952099999999998  1.0000
  C   C294      1.0  0.71908  0.5827399999999999  0.17808999999999997  1.0000
  C   C295      1.0  0.34831  0.34192  0.1484  1.0000
  C   C296      1.0  0.24461999999999998  0.8679999999999999  0.53025  1.0000
  C   C297      1.0  0.70547  0.7499499999999999  0.4352799999999999  1.0000
  C   C298      1.0  0.22735999999999995  0.7730299999999999  0.8173199999999999  1.0000
  C   C299      1.0  0.3764199999999999  0.66207  0.13155999999999998  1.0000
  C   C300      1.0  0.10754000000000005  0.93962  0.09808999999999998  1.0000
  C   C301      1.0  0.8996400000000002  0.6624499999999998  0.22704999999999997  1.0000
  C   C302      1.0  0.58258  0.86741  0.4515699999999999  1.0000
  C   C303      1.0  0.7444399999999999  0.4536599999999999  0.36703  1.0000
  C   C304      1.0  0.3809099999999999  0.15484999999999985  0.9730099999999998  1.0000
  C   C305      1.0  0.85776  0.45109  0.4533199999999999  1.0000
  C   C306      1.0  0.5968700000000001  0.69594  0.35426  1.0000
  C   C307      1.0  0.49505  0.29098  0.94893  1.0000
  C   C308      1.0  0.3658999999999999  0.9175299999999996  0.4684599999999999  1.0000
  C   C309      1.0  0.27017999999999986  0.5644299999999998  0.31443999999999994  1.0000
  C   C310      1.0  0.37056  0.39584  0.16641  1.0000
  C   C311      1.0  0.51739  0.37985999999999975  0.08209999999999999  1.0000
  C   C312      1.0  0.8107300000000001  0.62588  0.17114999999999994  1.0000
  C   C313      1.0  0.95833  0.8681099999999998  0.79804  1.0000
  C   C314      1.0  0.45425  0.044299999999999964  0.22717999999999994  1.0000
  C   C315      1.0  0.41022999999999993  0.18284999999999996  0.9560799999999999  1.0000
  C   C316      1.0  0.68331  0.69969  0.39403  1.0000
  C   C317      1.0  0.051609999999999996  0.88415  0.78694  1.0000
  C   C318      1.0  0.25742  0.25687  0.10692999999999997  1.0000
  C   C319      1.0  0.8972799999999999  0.5304799999999998  0.44885999999999987  1.0000
  C   C320      1.0  0.90052  0.65841  0.30406999999999995  1.0000
  C   C321      1.0  0.5460800000000001  0.05093999999999997  0.34228  1.0000
  C   C322      1.0  0.43023  0.58371  0.10496999999999997  1.0000
  C   C323      1.0  0.37171999999999994  0.10197999999999989  0.8729199999999998  1.0000
  C   C324      1.0  0.59733  0.7820199999999997  0.4070199999999999  1.0000
  C   C325      1.0  0.1904  0.59276  0.37495  1.0000
  C   C326      1.0  0.63228  0.8714999999999999  0.47728  1.0000
  C   C327      1.0  0.4465199999999999  0.23780999999999988  0.9784599999999998  1.0000
  C   C328      1.0  0.3515799999999999  0.6929899999999997  0.13016999999999998  1.0000
  C   C329      1.0  0.31178999999999985  0.9593799999999999  0.5936199999999999  1.0000
  C   C330      1.0  0.24251  0.64544  0.3414899999999999  1.0000
  C   C331      1.0  0.4986  0.33144  0.03361  1.0000
  C   C332      1.0  0.9564800000000002  0.68156  0.3277299999999999  1.0000
  C   C333      1.0  0.1999  0.85168  0.19325  1.0000
  C   C334      1.0  0.9243299999999999  0.7901499999999996  0.6629899999999997  1.0000
  C   C335      1.0  0.9814600000000001  0.81667  0.68783  1.0000
  C   C336      1.0  0.51708  0.00456999999999993  0.3400199999999999  1.0000
  N   N1        1.0  0.7555599999999999  0.29487  0.19260999999999995  1.0000
  N   N2        1.0  0.89723  0.10549999999999995  0.80663  1.0000
  N   N3        1.0  0.64366  0.0020999999999999344  0.40045999999999987  1.0000
  N   N4        1.0  0.13792999999999986  0.3512499999999998  0.8221199999999997  1.0000
  N   N5        1.0  0.7916  0.7005999999999999  0.8941899999999999  1.0000
  N   N6        1.0  0.4607199999999999  0.8979199999999998  0.7049499999999997  1.0000
  N   N7        1.0  0.78675  0.47111  0.64899  1.0000
  N   N8        1.0  0.64181  0.39856999999999987  0.99846  1.0000
  N   N9        1.0  0.56282  0.80733  0.10194  1.0000
  N   N10       1.0  0.09073999999999997  0.19367999999999996  0.29929999999999995  1.0000
  N   N11       1.0  0.2433899999999999  0.6000299999999997  0.60142  1.0000
  N   N12       1.0  0.31598999999999994  0.17792999999999992  0.5291599999999999  1.0000
  N   N13       1.0  0.35636  0.9979  0.5995499999999999  1.0000
  N   N14       1.0  0.5392899999999999  0.10207999999999996  0.2950499999999999  1.0000
  N   N15       1.0  0.21326  0.5289  0.35101  1.0000
  N   N16       1.0  0.8620799999999998  0.6487499999999998  0.17788  1.0000
  N   N17       1.0  0.35820000000000013  0.60143  0.0015399999999999995  1.0000
  N   N18       1.0  0.43720000000000003  0.19267000000000006  0.89806  1.0000
  N   N19       1.0  0.9092700000000002  0.80632  0.7007  1.0000
  N   N20       1.0  0.20841  0.29941  0.10581  1.0000
  N   N21       1.0  0.10277999999999987  0.8944999999999999  0.19336999999999993  1.0000
  N   N22       1.0  0.24444999999999992  0.7051299999999997  0.8073899999999999  1.0000
  N   N23       1.0  0.75663  0.39996999999999994  0.39857999999999993  1.0000
  N   N24       1.0  0.68402  0.82207  0.47083999999999987  1.0000
  O   O1        1.0  0.6678300000000003  0.30791  0.70591  1.0000
  O   O2        1.0  0.7272099999999999  0.8775099999999999  0.9253499999999999  1.0000
  O   O3        1.0  0.94854  0.21916999999999998  0.40551999999999994  1.0000
  O   O4        1.0  0.54329  0.0850199999999999  0.6612899999999998  1.0000
  O   O5        1.0  0.94111  0.30151  0.4956499999999999  1.0000
  O   O6        1.0  0.68046  0.0033299999999999766  0.90799  1.0000
  O   O7        1.0  0.4228199999999999  0.57941  0.7579399999999998  1.0000
  O   O8        1.0  0.6408700000000002  0.19506999999999988  0.6991699999999997  1.0000
  O   O9        1.0  0.8657600000000001  0.25651999999999997  0.3741699999999999  1.0000
  O   O10       1.0  0.81811  0.9279299999999999  0.9659999999999997  1.0000
  O   O11       1.0  0.72901  0.18563999999999992  0.78071  1.0000
  O   O12       1.0  0.6313  0.28296  0.78337  1.0000
  O   O13       1.0  0.008370000000000004  0.41537  0.50751  1.0000
  O   O14       1.0  0.06259  0.39284  0.55426  1.0000
  O   O15       1.0  0.88173  0.33452  0.55898  1.0000
  O   O16       1.0  0.84826  0.21687999999999996  0.50014  1.0000
  O   O17       1.0  0.88975  0.03759999999999998  0.07213999999999998  1.0000
  O   O18       1.0  0.03144999999999998  0.27776  0.4771  1.0000
  O   O19       1.0  0.5182999999999998  0.14273999999999992  0.6027299999999999  1.0000
  O   O20       1.0  0.77157  0.09129  0.0952  1.0000
  O   O21       1.0  0.85244  0.034359999999999856  0.9626599999999997  1.0000
  O   O22       1.0  0.4446799999999999  0.5043199999999998  0.8053499999999998  1.0000
  O   O23       1.0  0.49110000000000004  0.6257699999999998  0.8819799999999999  1.0000
  O   O24       1.0  0.6772199999999999  0.904  0.9961399999999999  1.0000
  O   O25       1.0  0.34788999999999987  0.5001099999999998  0.7166199999999998  1.0000
  O   O26       1.0  0.35981999999999986  0.3975899999999999  0.6929899999999998  1.0000
  O   O27       1.0  0.5089799999999999  0.44659999999999983  0.8382299999999998  1.0000
  O   O28       1.0  0.5008999999999999  0.4925999999999999  0.9074199999999998  1.0000
  O   O29       1.0  0.3753799999999999  0.4593699999999998  0.8572399999999998  1.0000
  O   O30       1.0  0.5943599999999998  0.09350999999999994  0.5861099999999999  1.0000
  O   O31       1.0  0.03791999999999999  0.31438  0.59341  1.0000
  O   O32       1.0  0.7654099999999999  0.9999399999999999  0.99991  1.0000
  O   O33       1.0  0.6650499999999998  0.24202999999999983  0.8219599999999999  1.0000
  O   O34       1.0  0.72119  0.97699  0.07665999999999999  1.0000
  O   O35       1.0  0.9626200000000001  0.29469  0.60201  1.0000
  O   O36       1.0  0.44388999999999995  0.4066499999999999  0.7204699999999998  1.0000
  O   O37       1.0  0.67185  0.16213  0.60889  1.0000
  O   O38       1.0  0.45941999999999994  0.57652  0.9159799999999999  1.0000
  O   O39       1.0  0.74394  0.09982  0.02266  1.0000
  O   O40       1.0  0.6089399999999999  0.11832999999999999  0.7443299999999999  1.0000
  O   O41       1.0  0.5538499999999997  0.5229699999999998  0.7994399999999998  1.0000
  O   O42       1.0  0.7551700000000002  0.2003  0.72365  1.0000
  O   O43       1.0  0.91539  0.39804999999999996  0.5399399999999999  1.0000
  O   O44       1.0  0.32178  0.44118  0.77521  1.0000
  O   O45       1.0  0.6442  0.92253  0.89986  1.0000
  O   O46       1.0  0.5432899999999999  0.5951099999999997  0.8141799999999999  1.0000
  O   O47       1.0  0.7235200000000003  0.27983  0.68611  1.0000
  O   O48       1.0  0.88234  0.33931  0.42357  1.0000
  O   O49       1.0  0.84937  0.048179999999999994  0.12262999999999999  1.0000
  O   O50       1.0  0.5474199999999999  0.22535999999999992  0.6657999999999998  1.0000
  O   O51       1.0  0.8435000000000004  0.17877999999999994  0.42058  1.0000
  O   O52       1.0  0.80153  0.07434  0.9523  1.0000
  O   O53       1.0  0.1819  0.07207  0.033999999999999996  1.0000
  O   O54       1.0  0.2764899999999999  0.7201699999999998  0.31389  1.0000
  O   O55       1.0  0.5553299999999999  0.49568999999999985  0.19464999999999993  1.0000
  O   O56       1.0  0.31955000000000006  0.9966699999999997  0.09200999999999997  1.0000
  O   O57       1.0  0.2284399999999999  0.9087099999999999  0.9048099999999998  1.0000
  O   O58       1.0  0.9685599999999999  0.7222399999999999  0.5229  1.0000
  O   O59       1.0  0.271  0.8143699999999999  0.21929  1.0000
  O   O60       1.0  0.11766999999999993  0.66069  0.5764299999999999  1.0000
  O   O61       1.0  0.2346  6.000000000000001e-05  9e-05  1.0000
  O   O62       1.0  0.49911  0.5074  0.09257999999999997  1.0000
  O   O63       1.0  0.65212  0.4998999999999999  0.28338  1.0000
  O   O64       1.0  0.64019  0.60242  0.30701999999999996  1.0000
  O   O65       1.0  0.99164  0.58463  0.4924899999999999  1.0000
  O   O66       1.0  0.27882  0.023009999999999992  0.92334  1.0000
  O   O67       1.0  0.35581000000000007  0.07746999999999997  0.10014  1.0000
  O   O68       1.0  0.54059  0.42347999999999997  0.08401999999999997  1.0000
  O   O69       1.0  0.45673  0.4048899999999999  0.18582  1.0000
  O   O70       1.0  0.9621  0.68562  0.4065899999999999  1.0000
  O   O71       1.0  0.24483999999999997  0.7996999999999999  0.27635  1.0000
  O   O72       1.0  0.15650999999999995  0.82123  0.5794199999999999  1.0000
  O   O73       1.0  0.05148  0.78083  0.59448  1.0000
  O   O74       1.0  0.49102999999999997  0.55341  0.16176999999999994  1.0000
  O   O75       1.0  0.33218  0.69209  0.29409  1.0000
  O   O76       1.0  0.50891  0.37422999999999995  0.11801999999999997  1.0000
  O   O77       1.0  0.5561200000000001  0.59335  0.27953  1.0000
  O   O78       1.0  0.13425999999999993  0.7434799999999999  0.6258399999999998  1.0000
  O   O79       1.0  0.45672000000000007  0.91498  0.33871  1.0000
  O   O80       1.0  0.48171  0.8572600000000001  0.39727  1.0000
  O   O81       1.0  0.11025999999999987  0.9623999999999997  0.9278599999999999  1.0000
  O   O82       1.0  0.32280000000000003  0.096  0.0038599999999999993  1.0000
  O   O83       1.0  0.11827999999999991  0.6654799999999998  0.4410199999999999  1.0000
  O   O84       1.0  0.35913999999999996  0.80493  0.30083  1.0000
  O   O85       1.0  0.15174999999999997  0.78312  0.4998599999999999  1.0000
  O   O86       1.0  0.93743  0.60717  0.44575  1.0000
  O   O87       1.0  0.57719  0.4205899999999999  0.24206  1.0000
  O   O88       1.0  0.03739999999999997  0.70531  0.39799  1.0000
  O   O89       1.0  0.67823  0.55883  0.22478999999999996  1.0000
  O   O90       1.0  0.32816  0.83787  0.3911099999999999  1.0000
  O   O91       1.0  0.44616  0.47703  0.20056  1.0000
  O   O92       1.0  0.15063999999999989  0.9518199999999998  0.8773699999999999  1.0000
  O   O93       1.0  0.058900000000000036  0.69849  0.50435  1.0000
  O   O94       1.0  0.39107  0.8816700000000001  0.25567  1.0000
  O   O95       1.0  0.62463  0.5406299999999998  0.14277  1.0000
  O   O96       1.0  0.2728  0.12250000000000001  0.07465  1.0000
  O   O97       1.0  0.19848  0.92567  0.0477  1.0000
  O   O98       1.0  0.14756999999999998  0.9656499999999998  0.03734  1.0000
  O   O99       1.0  0.33496999999999993  0.7579699999999999  0.17803999999999998  1.0000
  O   O100      1.0  0.36872  0.71704  0.21663  1.0000
  O   O101      1.0  0.25606999999999996  0.9001799999999999  0.9773399999999999  1.0000
  O   O102      1.0  0.45259  0.77464  0.3342  1.0000
  O   O103      1.0  0.08461999999999983  0.6019499999999997  0.46006999999999987  1.0000
  O   O104      1.0  0.40565  0.9064899999999998  0.41389  1.0000
