data_image0
_chemical_formula_structural       Zn24H144C264O120
_chemical_formula_sum              "Zn24 H144 C264 O120"
_cell_length_a       29.78836
_cell_length_b       29.787659999999995
_cell_length_c       29.829520000000002
_cell_angle_alpha    119.94224
_cell_angle_beta     119.94714
_cell_angle_gamma    89.99955

_space_group_name_H-M_alt    "P 1"
_space_group_IT_number       1

loop_
  _space_group_symop_operation_xyz
  'x, y, z'

loop_
  _atom_site_type_symbol
  _atom_site_label
  _atom_site_symmetry_multiplicity
  _atom_site_fract_x
  _atom_site_fract_y
  _atom_site_fract_z
  _atom_site_occupancy
  Zn  Zn1       1.0  0.010819999999999984  0.9891399999999996  0.72634  1.0000
  Zn  Zn2       1.0  0.6531499999999998  0.012279999999999956  0.64008  1.0000
  Zn  Zn3       1.0  0.7155399999999997  0.73679  0.72602  1.0000
  Zn  Zn4       1.0  0.9871  0.6277699999999999  0.64003  1.0000
  Zn  Zn5       1.0  0.73705  0.010729999999999996  0.72628  1.0000
  Zn  Zn6       1.0  0.62768  0.6530299999999998  0.64005  1.0000
  Zn  Zn7       1.0  0.9891799999999997  0.71547  0.72606  1.0000
  Zn  Zn8       1.0  0.012210000000000049  0.9870199999999999  0.64006  1.0000
  Zn  Zn9       1.0  0.9891799999999997  0.010860000000000017  0.27365  1.0000
  Zn  Zn10      1.0  0.3468499999999999  0.9877200000000002  0.35992  1.0000
  Zn  Zn11      1.0  0.2844599999999999  0.26319999999999993  0.27398  1.0000
  Zn  Zn12      1.0  0.012899999999999983  0.3722299999999999  0.35997  1.0000
  Zn  Zn13      1.0  0.2629599999999999  0.9892699999999998  0.27372  1.0000
  Zn  Zn14      1.0  0.37232  0.3469599999999999  0.35995  1.0000
  Zn  Zn15      1.0  0.010830000000000013  0.28453  0.27393  1.0000
  Zn  Zn16      1.0  0.9877899999999997  0.01297  0.35993  1.0000
  Zn  Zn17      1.0  0.27267999999999987  0.9794799999999998  1e-05  1.0000
  Zn  Zn18      1.0  0.64116  0.02485  4e-05  1.0000
  Zn  Zn19      1.0  0.7273299999999998  0.020519999999999986  0.99999  1.0000
  Zn  Zn20      1.0  0.35884  0.9751499999999997  0.99996  1.0000
  Zn  Zn21      1.0  0.020549999999999992  0.27269  5.000000000000001e-05  1.0000
  Zn  Zn22      1.0  0.9752099999999999  0.6411699999999998  6e-05  1.0000
  Zn  Zn23      1.0  0.9794599999999998  0.7273099999999998  0.99995  1.0000
  Zn  Zn24      1.0  0.024800000000000048  0.35883000000000004  0.9999400000000002  1.0000
  H   H1        1.0  0.17563  0.9941699999999998  0.84725  1.0000
  H   H2        1.0  0.32670999999999994  0.011150000000000037  0.8615100000000001  1.0000
  H   H3        1.0  0.18479999999999988  0.019520000000000027  0.72207  1.0000
  H   H4        1.0  0.2584  0.07231  0.74024  1.0000
  H   H5        1.0  0.23308000000000004  0.0003000000000000117  0.68186  1.0000
  H   H6        1.0  0.68642  0.032510000000000046  0.8441000000000001  1.0000
  H   H7        1.0  0.54898  0.05008999999999999  0.71153  1.0000
  H   H8        1.0  0.5515199999999999  0.05491000000000004  0.8601300000000001  1.0000
  H   H9        1.0  0.48147  0.09134999999999997  0.82965  1.0000
  H   H10       1.0  0.4621399999999999  0.018630000000000046  0.77998  1.0000
  H   H11       1.0  0.15385999999999994  0.012750000000000018  0.3345  1.0000
  H   H12       1.0  0.1605299999999999  0.04096  0.49453  1.0000
  H   H13       1.0  0.30275999999999986  0.02977999999999996  0.48918  1.0000
  H   H14       1.0  0.25258999999999987  0.03658000000000001  0.62792  1.0000
  H   H15       1.0  0.34276  0.08019000000000004  0.60032  1.0000
  H   H16       1.0  0.31809  0.007190000000000049  0.55429  1.0000
  H   H17       1.0  0.3793499999999999  0.04611000000000001  0.79232  1.0000
  H   H18       1.0  0.41659  0.05646  0.67504  1.0000
  H   H19       1.0  0.67175  0.8529699999999998  0.8471500000000001  1.0000
  H   H20       1.0  0.5349499999999998  0.8504999999999999  0.86158  1.0000
  H   H21       1.0  0.53742  0.7026099999999997  0.72208  1.0000
  H   H22       1.0  0.48186  0.6679799999999998  0.74028  1.0000
  H   H23       1.0  0.44877  0.68155  0.68182  1.0000
  H   H24       1.0  0.15781000000000006  0.81177  0.8442100000000001  1.0000
  H   H25       1.0  0.16264  0.66147  0.71162  1.0000
  H   H26       1.0  0.30863  0.8050499999999998  0.85998  1.0000
  H   H27       1.0  0.3481999999999999  0.7383299999999998  0.82967  1.0000
  H   H28       1.0  0.3178500000000001  0.76135  0.78  1.0000
  H   H29       1.0  0.18066  0.32182  0.3345  1.0000
  H   H30       1.0  0.33394  0.45344  0.49449  1.0000
  H   H31       1.0  0.18638  0.45943  0.48927000000000004  1.0000
  H   H32       1.0  0.3753599999999999  0.59134  0.62791  1.0000
  H   H33       1.0  0.25752  0.5202  0.60038  1.0000
  H   H34       1.0  0.23621999999999996  0.5471199999999998  0.55431  1.0000
  H   H35       1.0  0.41288999999999987  0.7461899999999998  0.7923  1.0000
  H   H36       1.0  0.2585  0.61873  0.67527  1.0000
  H   H37       1.0  0.85305  0.17555  0.84727  1.0000
  H   H38       1.0  0.8503699999999998  0.3266800000000001  0.8614900000000001  1.0000
  H   H39       1.0  0.7025899999999998  0.18477999999999994  0.72209  1.0000
  H   H40       1.0  0.66796  0.25843  0.74026  1.0000
  H   H41       1.0  0.6815399999999998  0.23309  0.68184  1.0000
  H   H42       1.0  0.8116  0.68641  0.84404  1.0000
  H   H43       1.0  0.6614799999999997  0.54904  0.71161  1.0000
  H   H44       1.0  0.8052299999999999  0.55149  0.8601500000000001  1.0000
  H   H45       1.0  0.73836  0.4814999999999999  0.8297  1.0000
  H   H46       1.0  0.76137  0.4621499999999999  0.77999  1.0000
  H   H47       1.0  0.32180999999999993  0.15387999999999993  0.33451  1.0000
  H   H48       1.0  0.45352999999999993  0.16055  0.49460000000000004  1.0000
  H   H49       1.0  0.4593499999999999  0.3028  0.48918  1.0000
  H   H50       1.0  0.5913999999999998  0.25264  0.62799  1.0000
  H   H51       1.0  0.5201699999999999  0.34282999999999997  0.60036  1.0000
  H   H52       1.0  0.54711  0.31806999999999996  0.55429  1.0000
  H   H53       1.0  0.74622  0.37932  0.79232  1.0000
  H   H54       1.0  0.61866  0.41673999999999994  0.67518  1.0000
  H   H55       1.0  0.9941299999999997  0.6716699999999998  0.84711  1.0000
  H   H56       1.0  0.011100000000000006  0.53498  0.86161  1.0000
  H   H57       1.0  0.019499999999999986  0.53737  0.72206  1.0000
  H   H58       1.0  0.07231999999999991  0.4818199999999999  0.74025  1.0000
  H   H59       1.0  0.00029000000000003665  0.44876999999999995  0.68186  1.0000
  H   H60       1.0  0.03252  0.1579  0.84431  1.0000
  H   H61       1.0  0.05011999999999999  0.16261  0.71156  1.0000
  H   H62       1.0  0.05492000000000002  0.3086199999999999  0.85997  1.0000
  H   H63       1.0  0.09135000000000004  0.34818  0.82962  1.0000
  H   H64       1.0  0.018650000000000003  0.31788000000000005  0.77997  1.0000
  H   H65       1.0  0.012729999999999997  0.18067999999999995  0.33451  1.0000
  H   H66       1.0  0.040950000000000014  0.33391  0.4944700000000001  1.0000
  H   H67       1.0  0.02976999999999997  0.18639999999999995  0.48923999999999995  1.0000
  H   H68       1.0  0.036569999999999964  0.37529  0.62784  1.0000
  H   H69       1.0  0.08017  0.2574899999999999  0.60025  1.0000
  H   H70       1.0  0.007219999999999998  0.23615  0.55425  1.0000
  H   H71       1.0  0.04612999999999989  0.4128199999999999  0.79228  1.0000
  H   H72       1.0  0.0564699999999999  0.25844  0.6751  1.0000
  H   H73       1.0  0.8243699999999998  0.005819999999999997  0.15274  1.0000
  H   H74       1.0  0.6732899999999998  0.9888499999999999  0.13849  1.0000
  H   H75       1.0  0.8152099999999998  0.9804699999999997  0.27793  1.0000
  H   H76       1.0  0.74161  0.92769  0.25976  1.0000
  H   H77       1.0  0.7669199999999998  0.9996900000000001  0.31814  1.0000
  H   H78       1.0  0.31358  0.96749  0.15589  1.0000
  H   H79       1.0  0.4510199999999999  0.94991  0.28846  1.0000
  H   H80       1.0  0.4484899999999999  0.9450799999999998  0.13987  1.0000
  H   H81       1.0  0.5185299999999998  0.9086499999999998  0.17035  1.0000
  H   H82       1.0  0.5378699999999997  0.9813599999999997  0.22001999999999997  1.0000
  H   H83       1.0  0.84614  0.9872399999999998  0.6655  1.0000
  H   H84       1.0  0.83947  0.95903  0.50547  1.0000
  H   H85       1.0  0.6972499999999999  0.9702099999999997  0.51082  1.0000
  H   H86       1.0  0.7474099999999998  0.96342  0.37208  1.0000
  H   H87       1.0  0.65724  0.91981  0.3996799999999999  1.0000
  H   H88       1.0  0.6819099999999998  0.9927999999999999  0.44571  1.0000
  H   H89       1.0  0.62065  0.9538899999999998  0.20768  1.0000
  H   H90       1.0  0.5834099999999998  0.9435299999999998  0.32496  1.0000
  H   H91       1.0  0.3282499999999999  0.14702999999999997  0.15285  1.0000
  H   H92       1.0  0.46505  0.14949999999999994  0.13842  1.0000
  H   H93       1.0  0.4625799999999999  0.29739  0.27791  1.0000
  H   H94       1.0  0.5181399999999998  0.33202  0.25972  1.0000
  H   H95       1.0  0.5512299999999998  0.3184499999999999  0.31818  1.0000
  H   H96       1.0  0.84219  0.18821999999999994  0.15578  1.0000
  H   H97       1.0  0.83737  0.33853  0.28838  1.0000
  H   H98       1.0  0.6913699999999999  0.19494  0.14001  1.0000
  H   H99       1.0  0.6518099999999998  0.26166999999999996  0.17033  1.0000
  H   H100      1.0  0.6821499999999998  0.23864999999999995  0.22  1.0000
  H   H101      1.0  0.8193399999999997  0.6781699999999998  0.6655  1.0000
  H   H102      1.0  0.6660599999999998  0.54655  0.5055  1.0000
  H   H103      1.0  0.8136199999999998  0.5405699999999998  0.51073  1.0000
  H   H104      1.0  0.6246399999999998  0.4086499999999999  0.37209  1.0000
  H   H105      1.0  0.7424799999999998  0.47979999999999995  0.39962  1.0000
  H   H106      1.0  0.7637799999999997  0.45288  0.44569  1.0000
  H   H107      1.0  0.58712  0.25381  0.20770000000000002  1.0000
  H   H108      1.0  0.7415  0.38126999999999994  0.32473  1.0000
  H   H109      1.0  0.14695  0.8244499999999997  0.15273  1.0000
  H   H110      1.0  0.14963  0.6733199999999998  0.13851  1.0000
  H   H111      1.0  0.2974099999999999  0.8152199999999997  0.27791  1.0000
  H   H112      1.0  0.3320499999999999  0.7415599999999999  0.25974  1.0000
  H   H113      1.0  0.3184599999999999  0.7669099999999998  0.31816  1.0000
  H   H114      1.0  0.18839999999999996  0.31359  0.15596  1.0000
  H   H115      1.0  0.3385199999999999  0.45094999999999996  0.28839  1.0000
  H   H116      1.0  0.19476999999999994  0.4485  0.13985  1.0000
  H   H117      1.0  0.2616399999999999  0.51849  0.1703  1.0000
  H   H118      1.0  0.23862999999999995  0.5378499999999998  0.22001  1.0000
  H   H119      1.0  0.67819  0.8461199999999998  0.66549  1.0000
  H   H120      1.0  0.54647  0.83944  0.5054  1.0000
  H   H121      1.0  0.5406599999999998  0.6972  0.51082  1.0000
  H   H122      1.0  0.40859999999999996  0.7473599999999999  0.37201  1.0000
  H   H123      1.0  0.47983000000000003  0.6571599999999997  0.39964  1.0000
  H   H124      1.0  0.45289  0.68193  0.44571  1.0000
  H   H125      1.0  0.2537799999999999  0.6206799999999998  0.20768  1.0000
  H   H126      1.0  0.38134  0.5832499999999998  0.32482  1.0000
  H   H127      1.0  0.00587000000000001  0.3283299999999999  0.15289  1.0000
  H   H128      1.0  0.9888999999999998  0.4650199999999999  0.13839  1.0000
  H   H129      1.0  0.9804999999999998  0.4626299999999999  0.27794  1.0000
  H   H130      1.0  0.9276799999999997  0.51817  0.25975  1.0000
  H   H131      1.0  0.9997099999999999  0.5512199999999998  0.31814  1.0000
  H   H132      1.0  0.9674799999999998  0.8421  0.15569  1.0000
  H   H133      1.0  0.94988  0.8373799999999998  0.28844  1.0000
  H   H134      1.0  0.9450799999999998  0.69137  0.14003  1.0000
  H   H135      1.0  0.90866  0.6518199999999997  0.17037  1.0000
  H   H136      1.0  0.9813499999999998  0.68211  0.22002999999999998  1.0000
  H   H137      1.0  0.9872699999999996  0.8193099999999998  0.66549  1.0000
  H   H138      1.0  0.9590499999999995  0.66609  0.50553  1.0000
  H   H139      1.0  0.9702299999999998  0.8135999999999997  0.51075  1.0000
  H   H140      1.0  0.9634299999999998  0.6247  0.37216  1.0000
  H   H141      1.0  0.9198299999999998  0.74251  0.39974  1.0000
  H   H142      1.0  0.9927799999999998  0.7638499999999998  0.44574  1.0000
  H   H143      1.0  0.9538699999999998  0.5871699999999997  0.20772  1.0000
  H   H144      1.0  0.9435299999999998  0.7415599999999999  0.32489  1.0000
  C   C1        1.0  0.11573999999999993  0.0019600000000000086  0.74876  1.0000
  C   C2        1.0  0.1749599999999999  0.006620000000000003  0.78168  1.0000
  C   C3        1.0  0.19922999999999993  0.0007399999999999175  0.8314699999999999  1.0000
  C   C4        1.0  0.25396999999999986  0.002100000000000022  0.86  1.0000
  C   C5        1.0  0.2792  0.9939299999999999  0.91193  1.0000
  C   C6        1.0  0.28436  0.010360000000000038  0.83954  1.0000
  C   C7        1.0  0.26016  0.017740000000000002  0.79058  1.0000
  C   C8        1.0  0.20525  0.015290000000000007  0.76104  1.0000
  C   C9        1.0  0.27044999999999986  0.03520000000000004  0.7254  1.0000
  C   C10       1.0  0.6470899999999998  0.038499999999999986  0.91136  1.0000
  C   C11       1.0  0.6213199999999998  0.04378999999999998  0.85732  1.0000
  C   C12       1.0  0.6469899999999997  0.03901000000000002  0.82749  1.0000
  C   C13       1.0  0.62066  0.04120000000000003  0.7747  1.0000
  C   C14       1.0  0.64654  0.032550000000000016  0.7403  1.0000
  C   C15       1.0  0.5695699999999998  0.04897999999999999  0.75283  1.0000
  C   C16       1.0  0.5442399999999998  0.05416999999999994  0.7833599999999998  1.0000
  C   C17       1.0  0.56999  0.05156000000000001  0.83561  1.0000
  C   C18       1.0  0.46235999999999994  0.05583  0.78034  1.0000
  C   C19       1.0  0.25754  0.009819999999999999  0.37523  1.0000
  C   C20       1.0  0.23092  0.02045000000000001  0.40914  1.0000
  C   C21       1.0  0.17664000000000002  0.019920000000000024  0.38071000000000005  1.0000
  C   C22       1.0  0.15136  0.027299999999999987  0.41179  1.0000
  C   C23       1.0  0.09246999999999998  0.02425000000000003  0.38040000000000007  1.0000
  C   C24       1.0  0.18043  0.03578000000000005  0.47090000000000004  1.0000
  C   C25       1.0  0.23515999999999995  0.036999999999999984  0.49957  1.0000
  C   C26       1.0  0.2605999999999999  0.029410000000000002  0.46882  1.0000
  C   C27       1.0  0.3322699999999999  0.046729999999999966  0.64547  1.0000
  C   C28       1.0  0.29502  0.04116  0.65914  1.0000
  C   C29       1.0  0.3151799999999999  0.04476000000000005  0.58742  1.0000
  C   C30       1.0  0.3666599999999999  0.046689999999999995  0.75158  1.0000
  C   C31       1.0  0.4042399999999999  0.05185999999999996  0.73777  1.0000
  C   C32       1.0  0.3871  0.05232999999999996  0.6852  1.0000
  C   C33       1.0  0.3122  0.041380000000000014  0.71251  1.0000
  C   C34       1.0  0.63292  0.7466699999999997  0.74855  1.0000
  C   C35       1.0  0.60675  0.7750699999999998  0.78162  1.0000
  C   C36       1.0  0.6323399999999998  0.8307199999999998  0.83142  1.0000
  C   C37       1.0  0.60614  0.8578699999999998  0.85998  1.0000
  C   C38       1.0  0.6328399999999997  0.9179599999999998  0.9118800000000001  1.0000
  C   C39       1.0  0.5552799999999998  0.8292  0.83957  1.0000
  C   C40       1.0  0.5304499999999998  0.77287  0.79059  1.0000
  C   C41       1.0  0.5558299999999998  0.74579  0.76105  1.0000
  C   C42       1.0  0.4549499999999999  0.69022  0.72538  1.0000
  C   C43       1.0  0.26432999999999995  0.8728399999999997  0.9111800000000001  1.0000
  C   C44       1.0  0.23603999999999994  0.8135199999999998  0.85725  1.0000
  C   C45       1.0  0.1805700000000001  0.78856  0.8275400000000002  1.0000
  C   C46       1.0  0.15414000000000005  0.7335800000000001  0.7747900000000001  1.0000
  C   C47       1.0  0.09389000000000003  0.70785  0.74038  1.0000
  C   C48       1.0  0.1833199999999999  0.70386  0.75289  1.0000
  C   C49       1.0  0.23915  0.7291599999999998  0.78337  1.0000
  C   C50       1.0  0.26564  0.7839899999999997  0.83556  1.0000
  C   C51       1.0  0.3179899999999999  0.7245  0.78035  1.0000
  C   C52       1.0  0.11767999999999998  0.36545  0.37528  1.0000
  C   C53       1.0  0.17819999999999994  0.3887599999999999  0.40921  1.0000
  C   C54       1.0  0.20401000000000002  0.36083999999999994  0.38073000000000007  1.0000
  C   C55       1.0  0.2603399999999999  0.3844799999999999  0.41179  1.0000
  C   C56       1.0  0.28768  0.356  0.38025  1.0000
  C   C57       1.0  0.29042  0.43509  0.47091000000000005  1.0000
  C   C58       1.0  0.2643999999999999  0.46259  0.49964  1.0000
  C   C59       1.0  0.20820000000000002  0.4394600000000001  0.46891000000000005  1.0000
  C   C60       1.0  0.3132199999999999  0.5987399999999998  0.64552  1.0000
  C   C61       1.0  0.36413  0.6179599999999998  0.65915  1.0000
  C   C62       1.0  0.27225  0.54268  0.58747  1.0000
  C   C63       1.0  0.38490999999999986  0.70487  0.75156  1.0000
  C   C64       1.0  0.33354  0.68591  0.73778  1.0000
  C   C65       1.0  0.2981099999999999  0.6328799999999999  0.68525  1.0000
  C   C66       1.0  0.40031  0.6710999999999998  0.71249  1.0000
  C   C67       1.0  0.7468099999999998  0.11570999999999998  0.74869  1.0000
  C   C68       1.0  0.77509  0.17494  0.78167  1.0000
  C   C69       1.0  0.8307499999999998  0.19917  0.8314800000000001  1.0000
  C   C70       1.0  0.85789  0.2539299999999999  0.86002  1.0000
  C   C71       1.0  0.9179599999999998  0.27915  0.91197  1.0000
  C   C72       1.0  0.8291899999999998  0.28433999999999987  0.83955  1.0000
  C   C73       1.0  0.77286  0.26016  0.79058  1.0000
  C   C74       1.0  0.7457799999999999  0.20524  0.76105  1.0000
  C   C75       1.0  0.69022  0.27045999999999976  0.72539  1.0000
  C   C76       1.0  0.8728299999999998  0.64701  0.91128  1.0000
  C   C77       1.0  0.8135099999999997  0.6212899999999998  0.85729  1.0000
  C   C78       1.0  0.7885099999999998  0.64699  0.82749  1.0000
  C   C79       1.0  0.7335399999999997  0.6206199999999997  0.77471  1.0000
  C   C80       1.0  0.70776  0.6464199999999998  0.74024  1.0000
  C   C81       1.0  0.7038799999999997  0.5695699999999998  0.75288  1.0000
  C   C82       1.0  0.72921  0.5442299999999998  0.78339  1.0000
  C   C83       1.0  0.7840499999999998  0.5699699999999998  0.83562  1.0000
  C   C84       1.0  0.7245399999999997  0.46238  0.78037  1.0000
  C   C85       1.0  0.3654099999999999  0.25755  0.37525  1.0000
  C   C86       1.0  0.38873  0.23093999999999995  0.40918  1.0000
  C   C87       1.0  0.3608399999999999  0.17666999999999997  0.3807400000000001  1.0000
  C   C88       1.0  0.3845299999999999  0.15142  0.41185  1.0000
  C   C89       1.0  0.35617  0.09253  0.38044  1.0000
  C   C90       1.0  0.4351399999999999  0.18047999999999995  0.47099  1.0000
  C   C91       1.0  0.4625899999999999  0.23520999999999995  0.49965  1.0000
  C   C92       1.0  0.43942  0.26063999999999987  0.46887  1.0000
  C   C93       1.0  0.5987499999999999  0.33233999999999997  0.64553  1.0000
  C   C94       1.0  0.618  0.29508  0.65918  1.0000
  C   C95       1.0  0.54268  0.3152299999999999  0.58746  1.0000
  C   C96       1.0  0.7049199999999998  0.3666699999999999  0.7516  1.0000
  C   C97       1.0  0.6859399999999998  0.40426999999999996  0.73781  1.0000
  C   C98       1.0  0.6328899999999998  0.38718  0.68527  1.0000
  C   C99       1.0  0.67114  0.3122299999999999  0.71252  1.0000
  C   C100      1.0  0.001960000000000007  0.63298  0.74861  1.0000
  C   C101      1.0  0.006579999999999946  0.60673  0.7816  1.0000
  C   C102      1.0  0.0007000000000000582  0.6323  0.83138  1.0000
  C   C103      1.0  0.002079999999999943  0.6061099999999998  0.85996  1.0000
  C   C104      1.0  0.9938699999999997  0.6328299999999998  0.9118600000000001  1.0000
  C   C105      1.0  0.010349999999999972  0.5552599999999998  0.83955  1.0000
  C   C106      1.0  0.01773  0.53045  0.79059  1.0000
  C   C107      1.0  0.01527  0.55581  0.76102  1.0000
  C   C108      1.0  0.035189999999999944  0.45495  0.7254  1.0000
  C   C109      1.0  0.03839999999999998  0.26438  0.91127  1.0000
  C   C110      1.0  0.04376  0.2360699999999999  0.85729  1.0000
  C   C111      1.0  0.039020000000000034  0.18059999999999996  0.82757  1.0000
  C   C112      1.0  0.04123999999999993  0.15412999999999985  0.7747999999999999  1.0000
  C   C113      1.0  0.03258999999999999  0.09384999999999999  0.74043  1.0000
  C   C114      1.0  0.04903  0.1833  0.75286  1.0000
  C   C115      1.0  0.05420000000000001  0.23913  0.78333  1.0000
  C   C116      1.0  0.05155999999999993  0.2656399999999999  0.83555  1.0000
  C   C117      1.0  0.05583999999999998  0.31798  0.78031  1.0000
  C   C118      1.0  0.009769999999999994  0.11767999999999998  0.37521  1.0000
  C   C119      1.0  0.020419999999999983  0.17819999999999994  0.40916  1.0000
  C   C120      1.0  0.01990000000000003  0.20403000000000002  0.38071000000000005  1.0000
  C   C121      1.0  0.027300000000000036  0.26036  0.41175000000000006  1.0000
  C   C122      1.0  0.024269999999999993  0.28775  0.38027  1.0000
  C   C123      1.0  0.03576000000000002  0.2903999999999999  0.47085  1.0000
  C   C124      1.0  0.03698000000000001  0.26436  0.49955  1.0000
  C   C125      1.0  0.02938  0.20816999999999994  0.46884  1.0000
  C   C126      1.0  0.04674000000000004  0.3131799999999999  0.64544  1.0000
  C   C127      1.0  0.04117000000000001  0.3640999999999999  0.6591  1.0000
  C   C128      1.0  0.044759999999999946  0.27221  0.58739  1.0000
  C   C129      1.0  0.04669999999999999  0.3848699999999999  0.75152  1.0000
  C   C130      1.0  0.051859999999999955  0.3334999999999998  0.73772  1.0000
  C   C131      1.0  0.05233999999999999  0.29807  0.68517  1.0000
  C   C132      1.0  0.04137999999999999  0.4002799999999999  0.71246  1.0000
  C   C133      1.0  0.8842599999999998  0.9980299999999998  0.25123  1.0000
  C   C134      1.0  0.8250399999999999  0.9933799999999998  0.21832  1.0000
  C   C135      1.0  0.8007699999999998  0.99926  0.16853  1.0000
  C   C136      1.0  0.7460299999999997  0.9978999999999998  0.14  1.0000
  C   C137      1.0  0.7207999999999999  0.006070000000000002  0.08807  1.0000
  C   C138      1.0  0.7156399999999998  0.9896399999999997  0.16046  1.0000
  C   C139      1.0  0.7398399999999998  0.9822499999999997  0.20941  1.0000
  C   C140      1.0  0.7947499999999997  0.9846999999999998  0.23895999999999998  1.0000
  C   C141      1.0  0.7295499999999998  0.9648000000000001  0.2746  1.0000
  C   C142      1.0  0.3529199999999999  0.9614999999999998  0.08864  1.0000
  C   C143      1.0  0.3786799999999999  0.9562099999999998  0.14268  1.0000
  C   C144      1.0  0.35301  0.9609899999999999  0.17251  1.0000
  C   C145      1.0  0.3793399999999999  0.9587899999999998  0.22530000000000003  1.0000
  C   C146      1.0  0.3534599999999999  0.9674399999999997  0.2597  1.0000
  C   C147      1.0  0.43042999999999987  0.95101  0.24717  1.0000
  C   C148      1.0  0.45576  0.9458299999999997  0.21664  1.0000
  C   C149      1.0  0.4300099999999999  0.94844  0.16439  1.0000
  C   C150      1.0  0.5376399999999998  0.9441599999999998  0.21966  1.0000
  C   C151      1.0  0.7424599999999998  0.9901799999999997  0.62477  1.0000
  C   C152      1.0  0.76909  0.97955  0.59086  1.0000
  C   C153      1.0  0.82336  0.9800799999999997  0.61929  1.0000
  C   C154      1.0  0.8486399999999997  0.9726899999999997  0.58821  1.0000
  C   C155      1.0  0.9075299999999997  0.9757499999999998  0.6196  1.0000
  C   C156      1.0  0.81957  0.9642099999999998  0.52909  1.0000
  C   C157      1.0  0.7648399999999997  0.9629899999999999  0.50042  1.0000
  C   C158      1.0  0.7394  0.9705799999999999  0.53118  1.0000
  C   C159      1.0  0.66774  0.95326  0.35453  1.0000
  C   C160      1.0  0.70498  0.95884  0.34086  1.0000
  C   C161      1.0  0.6848199999999999  0.9552399999999998  0.41258000000000006  1.0000
  C   C162      1.0  0.63334  0.9533099999999998  0.24841  1.0000
  C   C163      1.0  0.59576  0.9481399999999998  0.26223  1.0000
  C   C164      1.0  0.6129  0.94766  0.3148  1.0000
  C   C165      1.0  0.6877999999999997  0.9586099999999997  0.28749  1.0000
  C   C166      1.0  0.36708  0.25332  0.25144  1.0000
  C   C167      1.0  0.39325  0.22492999999999994  0.21836999999999998  1.0000
  C   C168      1.0  0.36766  0.16927999999999996  0.16858  1.0000
  C   C169      1.0  0.3938599999999999  0.14213  0.14001  1.0000
  C   C170      1.0  0.3671599999999999  0.08203  0.08812  1.0000
  C   C171      1.0  0.4447199999999999  0.17078999999999994  0.16043  1.0000
  C   C172      1.0  0.46956  0.22711999999999993  0.20941  1.0000
  C   C173      1.0  0.4441699999999999  0.2542099999999999  0.23894999999999997  1.0000
  C   C174      1.0  0.54505  0.30978  0.27462  1.0000
  C   C175      1.0  0.7356699999999998  0.12716  0.08882  1.0000
  C   C176      1.0  0.7639599999999998  0.18647999999999995  0.14274  1.0000
  C   C177      1.0  0.81943  0.21142999999999995  0.17246  1.0000
  C   C178      1.0  0.8458600000000001  0.26642  0.22521000000000002  1.0000
  C   C179      1.0  0.9061199999999998  0.29215  0.25962  1.0000
  C   C180      1.0  0.81668  0.29613  0.24711  1.0000
  C   C181      1.0  0.76085  0.27084  0.21663  1.0000
  C   C182      1.0  0.7343599999999996  0.216  0.16444  1.0000
  C   C183      1.0  0.6820099999999998  0.2754899999999999  0.21965  1.0000
  C   C184      1.0  0.8823199999999997  0.63454  0.62472  1.0000
  C   C185      1.0  0.8218  0.6112399999999998  0.59079  1.0000
  C   C186      1.0  0.7959899999999998  0.6391499999999998  0.61927  1.0000
  C   C187      1.0  0.73966  0.6155099999999998  0.58821  1.0000
  C   C188      1.0  0.71232  0.6439999999999998  0.61974  1.0000
  C   C189      1.0  0.70959  0.56491  0.52908  1.0000
  C   C190      1.0  0.7356  0.53741  0.50036  1.0000
  C   C191      1.0  0.7917999999999997  0.56053  0.53109  1.0000
  C   C192      1.0  0.6867799999999998  0.4012599999999999  0.35448  1.0000
  C   C193      1.0  0.6358699999999998  0.3820399999999999  0.34085  1.0000
  C   C194      1.0  0.72775  0.45731  0.41253  1.0000
  C   C195      1.0  0.6150899999999998  0.2951299999999999  0.24844  1.0000
  C   C196      1.0  0.6664699999999998  0.31408999999999987  0.26222  1.0000
  C   C197      1.0  0.7018899999999998  0.3671199999999999  0.31475  1.0000
  C   C198      1.0  0.5997  0.3289  0.28751  1.0000
  C   C199      1.0  0.2532  0.88429  0.25131  1.0000
  C   C200      1.0  0.22491  0.8250599999999998  0.21833  1.0000
  C   C201      1.0  0.16925  0.8008199999999998  0.16852  1.0000
  C   C202      1.0  0.14211999999999994  0.7460699999999998  0.13998  1.0000
  C   C203      1.0  0.08204  0.7208399999999998  0.08803  1.0000
  C   C204      1.0  0.17080999999999993  0.7156599999999997  0.16045  1.0000
  C   C205      1.0  0.22713999999999995  0.7398399999999998  0.20941  1.0000
  C   C206      1.0  0.2542199999999999  0.7947499999999997  0.23894999999999997  1.0000
  C   C207      1.0  0.30978  0.7295399999999997  0.27461  1.0000
  C   C208      1.0  0.12717  0.35298999999999997  0.08872  1.0000
  C   C209      1.0  0.18648999999999993  0.3787  0.14271  1.0000
  C   C210      1.0  0.21148999999999996  0.353  0.17251  1.0000
  C   C211      1.0  0.26647  0.3793699999999999  0.22529000000000002  1.0000
  C   C212      1.0  0.2922399999999999  0.3535699999999999  0.25976  1.0000
  C   C213      1.0  0.29612  0.43043  0.24712  1.0000
  C   C214      1.0  0.27078999999999986  0.4557599999999999  0.21659999999999996  1.0000
  C   C215      1.0  0.21595  0.4300199999999999  0.16438  1.0000
  C   C216      1.0  0.27546  0.5376199999999998  0.21963  1.0000
  C   C217      1.0  0.6345899999999999  0.7424399999999998  0.62475  1.0000
  C   C218      1.0  0.6112799999999998  0.76905  0.59082  1.0000
  C   C219      1.0  0.6391699999999999  0.8233299999999998  0.61926  1.0000
  C   C220      1.0  0.6154799999999998  0.8485799999999997  0.58815  1.0000
  C   C221      1.0  0.6438299999999998  0.90746  0.61956  1.0000
  C   C222      1.0  0.5648599999999998  0.8195099999999997  0.52901  1.0000
  C   C223      1.0  0.5374099999999999  0.76478  0.50035  1.0000
  C   C224      1.0  0.56058  0.7393499999999997  0.53113  1.0000
  C   C225      1.0  0.4012499999999999  0.66765  0.35447  1.0000
  C   C226      1.0  0.382  0.7049099999999999  0.34081  1.0000
  C   C227      1.0  0.4573199999999999  0.6847699999999998  0.41254  1.0000
  C   C228      1.0  0.29508  0.6333199999999998  0.24840000000000004  1.0000
  C   C229      1.0  0.3140599999999999  0.5957199999999998  0.26219  1.0000
  C   C230      1.0  0.3671199999999999  0.61281  0.31473  1.0000
  C   C231      1.0  0.3288699999999999  0.68776  0.28748  1.0000
  C   C232      1.0  0.9980399999999998  0.3670199999999999  0.25139  1.0000
  C   C233      1.0  0.9934199999999997  0.39326  0.2184  1.0000
  C   C234      1.0  0.9993099999999999  0.3677  0.16861  1.0000
  C   C235      1.0  0.9979199999999996  0.39388000000000006  0.14004  1.0000
  C   C236      1.0  0.006129999999999997  0.36717  0.08814  1.0000
  C   C237      1.0  0.9896499999999998  0.4447299999999999  0.16045  1.0000
  C   C238      1.0  0.9822699999999999  0.46954999999999997  0.20941  1.0000
  C   C239      1.0  0.9847299999999998  0.44418  0.23898  1.0000
  C   C240      1.0  0.9648099999999996  0.54505  0.2746  1.0000
  C   C241      1.0  0.9615999999999998  0.7356199999999998  0.08873  1.0000
  C   C242      1.0  0.9562399999999999  0.76392  0.1427  1.0000
  C   C243      1.0  0.9609899999999998  0.81939  0.17243  1.0000
  C   C244      1.0  0.9587599999999997  0.8458599999999997  0.2252  1.0000
  C   C245      1.0  0.9674099999999998  0.9061399999999998  0.25957  1.0000
  C   C246      1.0  0.9509699999999998  0.8167  0.24714000000000003  1.0000
  C   C247      1.0  0.94581  0.76087  0.21666  1.0000
  C   C248      1.0  0.9484399999999997  0.7343599999999998  0.16445  1.0000
  C   C249      1.0  0.9441599999999998  0.68202  0.21968999999999997  1.0000
  C   C250      1.0  0.99023  0.8823099999999998  0.62478  1.0000
  C   C251      1.0  0.9795799999999998  0.8217999999999998  0.59084  1.0000
  C   C252      1.0  0.9800999999999997  0.7959599999999998  0.61929  1.0000
  C   C253      1.0  0.9727099999999999  0.7396399999999997  0.58825  1.0000
  C   C254      1.0  0.9757399999999999  0.7122499999999998  0.61973  1.0000
  C   C255      1.0  0.96425  0.7096  0.52915  1.0000
  C   C256      1.0  0.9630299999999998  0.7356299999999998  0.50045  1.0000
  C   C257      1.0  0.9706199999999998  0.79182  0.53115  1.0000
  C   C258      1.0  0.95326  0.68681  0.35455  1.0000
  C   C259      1.0  0.9588399999999998  0.6359  0.3409  1.0000
  C   C260      1.0  0.9552399999999998  0.72779  0.4126000000000001  1.0000
  C   C261      1.0  0.9532999999999998  0.61512  0.24848000000000003  1.0000
  C   C262      1.0  0.94814  0.6664999999999999  0.26228  1.0000
  C   C263      1.0  0.9476599999999995  0.70193  0.31483  1.0000
  C   C264      1.0  0.95862  0.59971  0.28754  1.0000
  O   O1        1.0  0.25065  0.99219  0.93226  1.0000
  O   O2        1.0  0.32698  0.9889799999999997  0.93196  1.0000
  O   O3        1.0  0.09138000000000003  0.9989199999999999  0.77287  1.0000
  O   O4        1.0  0.09349000000000002  0.0005500000000000016  0.69832  1.0000
  O   O5        1.0  0.29351000000000005  0.026370000000000036  0.7744500000000001  1.0000
  O   O6        1.0  0.69466  0.02884999999999989  0.76529  1.0000
  O   O7        1.0  0.61867  0.02861000000000001  0.68826  1.0000
  O   O8        1.0  0.69494  0.03391999999999999  0.93189  1.0000
  O   O9        1.0  0.61883  0.038280000000000036  0.9326100000000002  1.0000
  O   O10       1.0  0.4937899999999999  0.060840000000000026  0.75801  1.0000
  O   O11       1.0  0.3047099999999998  0.003699999999999975  0.3996799999999999  1.0000
  O   O12       1.0  0.23102999999999996  0.006960000000000014  0.32395  1.0000
  O   O13       1.0  0.06940999999999997  0.020439999999999986  0.32861  1.0000
  O   O14       1.0  0.06924000000000005  0.02492000000000003  0.40706000000000003  1.0000
  O   O15       1.0  0.25978  0.04515000000000002  0.55733  1.0000
  O   O16       1.0  0.6817799999999998  0.9399699999999998  0.93235  1.0000
  O   O17       1.0  0.6050099999999997  0.94299  0.9317499999999999  1.0000
  O   O18       1.0  0.68135  0.7736299999999998  0.7724200000000001  1.0000
  O   O19       1.0  0.6045899999999997  0.69763  0.69817  1.0000
  O   O20       1.0  0.48090999999999984  0.74813  0.7743799999999998  1.0000
  O   O21       1.0  0.07067999999999997  0.7365699999999997  0.76522  1.0000
  O   O22       1.0  0.06978  0.65971  0.68841  1.0000
  O   O23       1.0  0.23712999999999995  0.89794  0.93191  1.0000
  O   O24       1.0  0.31372000000000005  0.8942899999999999  0.9321200000000001  1.0000
  O   O25       1.0  0.26426999999999995  0.6971499999999999  0.7580600000000001  1.0000
  O   O26       1.0  0.09488999999999999  0.39601999999999987  0.39962  1.0000
  O   O27       1.0  0.09298999999999995  0.31701  0.32406  1.0000
  O   O28       1.0  0.25876  0.3080299999999999  0.32849  1.0000
  O   O29       1.0  0.3375599999999999  0.3818  0.40671  1.0000
  O   O30       1.0  0.29758  0.5121599999999997  0.55741  1.0000
  O   O31       1.0  0.9399599999999998  0.25076  0.93258  1.0000
  O   O32       1.0  0.9429799999999998  0.3267999999999999  0.93174  1.0000
  O   O33       1.0  0.77391  0.09125999999999992  0.77268  1.0000
  O   O34       1.0  0.6977599999999998  0.09353000000000006  0.69829  1.0000
  O   O35       1.0  0.7481099999999997  0.29348999999999975  0.7743999999999999  1.0000
  O   O36       1.0  0.7364899999999999  0.6944600000000001  0.7650800000000001  1.0000
  O   O37       1.0  0.65961  0.61859  0.68829  1.0000
  O   O38       1.0  0.8978999999999998  0.6949099999999998  0.93193  1.0000
  O   O39       1.0  0.8943199999999998  0.61864  0.93237  1.0000
  O   O40       1.0  0.6971999999999998  0.4938  0.75805  1.0000
  O   O41       1.0  0.39601999999999987  0.30466  0.39959  1.0000
  O   O42       1.0  0.3169499999999999  0.23109999999999997  0.32406  1.0000
  O   O43       1.0  0.30819999999999986  0.06954  0.32865  1.0000
  O   O44       1.0  0.38207999999999986  0.06922999999999994  0.40703  1.0000
  O   O45       1.0  0.51217  0.2598499999999999  0.55743  1.0000
  O   O46       1.0  0.9919399999999998  0.68162  0.93201  1.0000
  O   O47       1.0  0.9890599999999998  0.6051499999999997  0.93203  1.0000
  O   O48       1.0  0.9988799999999999  0.6814199999999998  0.77255  1.0000
  O   O49       1.0  0.0006400000000000249  0.60471  0.69823  1.0000
  O   O50       1.0  0.026349999999999943  0.48094999999999993  0.7744599999999999  1.0000
  O   O51       1.0  0.02887000000000001  0.07068999999999998  0.76539  1.0000
  O   O52       1.0  0.028640000000000013  0.06971  0.68839  1.0000
  O   O53       1.0  0.03386000000000006  0.23712000000000005  0.9318800000000002  1.0000
  O   O54       1.0  0.038099999999999995  0.31385  0.93238  1.0000
  O   O55       1.0  0.06084999999999997  0.26423999999999986  0.75798  1.0000
  O   O56       1.0  0.003679999999999978  0.09492  0.39963  1.0000
  O   O57       1.0  0.006859999999999981  0.09299  0.3239  1.0000
  O   O58       1.0  0.020459999999999996  0.2588999999999999  0.32849  1.0000
  O   O59       1.0  0.024940000000000007  0.3376399999999999  0.40682  1.0000
  O   O60       1.0  0.045149999999999996  0.2975399999999999  0.55731  1.0000
  O   O61       1.0  0.74935  0.007800000000000001  0.06774  1.0000
  O   O62       1.0  0.6730199999999997  0.011009999999999992  0.06803  1.0000
  O   O63       1.0  0.9086199999999998  0.0010800000000000182  0.22713000000000003  1.0000
  O   O64       1.0  0.9065099999999998  0.9994499999999998  0.30168  1.0000
  O   O65       1.0  0.7064899999999997  0.9736299999999998  0.22555000000000003  1.0000
  O   O66       1.0  0.30534  0.97115  0.23471000000000003  1.0000
  O   O67       1.0  0.38133  0.9713899999999998  0.31174  1.0000
  O   O68       1.0  0.30507  0.9660799999999998  0.06811  1.0000
  O   O69       1.0  0.3811799999999999  0.9617099999999997  0.06739  1.0000
  O   O70       1.0  0.50621  0.9391599999999998  0.24199  1.0000
  O   O71       1.0  0.69529  0.9962999999999999  0.60032  1.0000
  O   O72       1.0  0.76897  0.9930399999999998  0.67604  1.0000
  O   O73       1.0  0.9305899999999998  0.97955  0.67139  1.0000
  O   O74       1.0  0.9307600000000001  0.9750699999999998  0.59294  1.0000
  O   O75       1.0  0.7402199999999998  0.95485  0.44267  1.0000
  O   O76       1.0  0.31822  0.06002999999999999  0.06765  1.0000
  O   O77       1.0  0.3949899999999999  0.05699999999999999  0.06825  1.0000
  O   O78       1.0  0.3186499999999999  0.22636999999999993  0.22758  1.0000
  O   O79       1.0  0.39541  0.30237  0.30183  1.0000
  O   O80       1.0  0.51909  0.25187  0.22561  1.0000
  O   O81       1.0  0.9293199999999999  0.2634299999999999  0.23477  1.0000
  O   O82       1.0  0.93022  0.3402799999999999  0.31159  1.0000
  O   O83       1.0  0.7628799999999998  0.10205999999999997  0.06809  1.0000
  O   O84       1.0  0.68628  0.10571  0.06787  1.0000
  O   O85       1.0  0.73573  0.30284  0.24193999999999996  1.0000
  O   O86       1.0  0.9051099999999999  0.6039699999999998  0.60038  1.0000
  O   O87       1.0  0.9070199999999996  0.6829799999999998  0.67593  1.0000
  O   O88       1.0  0.74124  0.6919599999999998  0.67151  1.0000
  O   O89       1.0  0.6624399999999998  0.6181899999999999  0.59329  1.0000
  O   O90       1.0  0.7024199999999998  0.48782999999999993  0.44259  1.0000
  O   O91       1.0  0.06003999999999999  0.7492399999999998  0.06742  1.0000
  O   O92       1.0  0.05702  0.67319  0.06826  1.0000
  O   O93       1.0  0.22608999999999996  0.90873  0.22732  1.0000
  O   O94       1.0  0.3022499999999999  0.90646  0.30171  1.0000
  O   O95       1.0  0.25189  0.7065099999999997  0.2256  1.0000
  O   O96       1.0  0.2635099999999999  0.30553  0.23492  1.0000
  O   O97       1.0  0.34039  0.38139999999999996  0.31171  1.0000
  O   O98       1.0  0.10209999999999998  0.30508  0.06806  1.0000
  O   O99       1.0  0.10567999999999997  0.38135  0.06763  1.0000
  O   O100      1.0  0.30281  0.5061999999999998  0.24193999999999996  1.0000
  O   O101      1.0  0.6039799999999999  0.6953399999999997  0.6004  1.0000
  O   O102      1.0  0.68305  0.7688999999999998  0.67594  1.0000
  O   O103      1.0  0.6918  0.9304499999999998  0.67135  1.0000
  O   O104      1.0  0.6179199999999998  0.9307699999999997  0.59297  1.0000
  O   O105      1.0  0.4878299999999999  0.7401499999999996  0.44256999999999996  1.0000
  O   O106      1.0  0.008060000000000005  0.31838  0.06799  1.0000
  O   O107      1.0  0.010950000000000005  0.3948399999999999  0.06797  1.0000
  O   O108      1.0  0.0011199999999999951  0.31857999999999986  0.22745  1.0000
  O   O109      1.0  0.9993599999999999  0.39527999999999996  0.30177  1.0000
  O   O110      1.0  0.97366  0.51904  0.22554000000000002  1.0000
  O   O111      1.0  0.9711299999999998  0.92931  0.23461  1.0000
  O   O112      1.0  0.9713599999999997  0.93029  0.31161  1.0000
  O   O113      1.0  0.9661399999999998  0.76288  0.06812  1.0000
  O   O114      1.0  0.9618999999999998  0.68615  0.06761  1.0000
  O   O115      1.0  0.9391499999999998  0.7357599999999999  0.24201  1.0000
  O   O116      1.0  0.9963199999999999  0.9050799999999997  0.60037  1.0000
  O   O117      1.0  0.9931499999999995  0.9070099999999998  0.6761  1.0000
  O   O118      1.0  0.97954  0.74109  0.67151  1.0000
  O   O119      1.0  0.97506  0.66236  0.59318  1.0000
  O   O120      1.0  0.9548499999999998  0.7024599999999998  0.4426899999999999  1.0000
