data_image0
_chemical_formula_structural       Mn24P16H184C336O112
_chemical_formula_sum              "Mn24 P16 H184 C336 O112"
_cell_length_a       19.77285
_cell_length_b       24.73279
_cell_length_c       25.12404
_cell_angle_alpha    90.0
_cell_angle_beta     90.0
_cell_angle_gamma    90.00741

_symmetry_space_group_name_H-M    'P 1'
_symmetry_Int_Tables_number       1

loop_
  _symmetry_equiv_pos_as_xyz
  'x,y,z'

loop_
  _atom_site_type_symbol
  _atom_site_label
  _atom_site_symmetry_multiplicity
  _atom_site_fract_x
  _atom_site_fract_y
  _atom_site_fract_z
  _atom_site_occupancy
  Mn  Mn1       1.0  0.91914  0.9055799999999999  0.91432  1.0000
  Mn  Mn2       1.0  0.7558800000000001  0.93884  0.87189  1.0000
  Mn  Mn3       1.0  0.09651  0.52764  0.9081000000000001  1.0000
  Mn  Mn4       1.0  0.41978  0.09448999999999998  0.58584  1.0000
  Mn  Mn5       1.0  0.25701  0.06144  0.62821  1.0000
  Mn  Mn6       1.0  0.5967200000000001  0.4724099999999999  0.59298  1.0000
  Mn  Mn7       1.0  0.58022  0.40551  0.08584000000000001  1.0000
  Mn  Mn8       1.0  0.74298  0.43856  0.12821  1.0000
  Mn  Mn9       1.0  0.40328  0.02759  0.09298  1.0000
  Mn  Mn10      1.0  0.08085000000000002  0.59442  0.41432  1.0000
  Mn  Mn11      1.0  0.24411  0.56116  0.3718900000000001  1.0000
  Mn  Mn12      1.0  0.9034900000000001  0.97236  0.4081  1.0000
  Mn  Mn13      1.0  0.08085000000000002  0.09441999999999999  0.08568000000000002  1.0000
  Mn  Mn14      1.0  0.24411  0.061159999999999985  0.12811000000000003  1.0000
  Mn  Mn15      1.0  0.9034900000000001  0.47235999999999995  0.0919  1.0000
  Mn  Mn16      1.0  0.58021  0.90551  0.41416  1.0000
  Mn  Mn17      1.0  0.74298  0.93856  0.37179000000000006  1.0000
  Mn  Mn18      1.0  0.40328  0.52759  0.40702  1.0000
  Mn  Mn19      1.0  0.41978  0.59449  0.91416  1.0000
  Mn  Mn20      1.0  0.25701  0.56144  0.8717900000000002  1.0000
  Mn  Mn21      1.0  0.5967200000000001  0.97241  0.90702  1.0000
  Mn  Mn22      1.0  0.91915  0.40558  0.5856800000000001  1.0000
  Mn  Mn23      1.0  0.7558800000000001  0.43884  0.62811  1.0000
  Mn  Mn24      1.0  0.09651  0.02764  0.5919  1.0000
  P   P1        1.0  0.91328  0.7632999999999998  0.5909800000000001  1.0000
  P   P2        1.0  0.08956  0.87955  0.9073700000000002  1.0000
  P   P3        1.0  0.41394000000000003  0.23677999999999996  0.90905  1.0000
  P   P4        1.0  0.58967  0.12053999999999997  0.5924  1.0000
  P   P5        1.0  0.58606  0.26322  0.40905000000000014  1.0000
  P   P6        1.0  0.41033  0.37946  0.0924  1.0000
  P   P7        1.0  0.08671000000000001  0.7366999999999998  0.09098  1.0000
  P   P8        1.0  0.91043  0.62045  0.4073700000000001  1.0000
  P   P9        1.0  0.08671000000000001  0.23669999999999994  0.40902000000000005  1.0000
  P   P10       1.0  0.91043  0.12045  0.09263000000000002  1.0000
  P   P11       1.0  0.58606  0.76322  0.09095000000000002  1.0000
  P   P12       1.0  0.41033  0.87946  0.4076000000000001  1.0000
  P   P13       1.0  0.41393  0.73678  0.59095  1.0000
  P   P14       1.0  0.58966  0.62054  0.9076  1.0000
  P   P15       1.0  0.91328  0.2633  0.90902  1.0000
  P   P16       1.0  0.08957  0.37954999999999994  0.59264  1.0000
  H   H1        1.0  0.0016700000000000003  0.796  0.67629  1.0000
  H   H2        1.0  0.9816100000000001  0.8383399999999998  0.76516  1.0000
  H   H3        1.0  0.76814  0.84247  0.7341300000000002  1.0000
  H   H4        1.0  0.78709  0.7987799999999999  0.64599  1.0000
  H   H5        1.0  0.9807100000000001  0.67615  0.5398  1.0000
  H   H6        1.0  0.9670500000000001  0.57551  0.54294  1.0000
  H   H7        1.0  0.8114700000000001  0.59197  0.66067  1.0000
  H   H8        1.0  0.82479  0.69264  0.65878  1.0000
  H   H9        1.0  0.8878200000000002  0.8661799999999998  0.54554  1.0000
  H   H10       1.0  0.79208  0.9051799999999998  0.4937400000000001  1.0000
  H   H11       1.0  0.68835  0.75268  0.4989300000000001  1.0000
  H   H12       1.0  0.7852400000000002  0.71244  0.54961  1.0000
  H   H13       1.0  0.18482  0.80924  0.8484600000000002  1.0000
  H   H14       1.0  0.19766  0.70859  0.84773  1.0000
  H   H15       1.0  0.025  0.69311  0.95068  1.0000
  H   H16       1.0  0.010910000000000001  0.7930699999999998  0.9517400000000003  1.0000
  H   H17       1.0  0.21539  0.9165599999999998  0.85596  1.0000
  H   H18       1.0  0.23754000000000003  0.9635199999999999  0.7696500000000002  1.0000
  H   H19       1.0  0.00037  0.91603  0.82122  1.0000
  H   H20       1.0  0.21467  0.82975  0.95432  1.0000
  H   H21       1.0  0.3091  0.8722599999999998  0.00586  1.0000
  H   H22       1.0  0.2019  0.023659999999999994  0.006370000000000001  1.0000
  H   H23       1.0  0.10914  0.98274  0.9529700000000002  1.0000
  H   H24       1.0  0.50249  0.20431  0.8240200000000001  1.0000
  H   H25       1.0  0.48272  0.16196  0.7350800000000001  1.0000
  H   H26       1.0  0.26918  0.1576  0.7657400000000001  1.0000
  H   H27       1.0  0.28781  0.20136  0.8539100000000001  1.0000
  H   H28       1.0  0.48101000000000005  0.32401  0.9602600000000001  1.0000
  H   H29       1.0  0.4675200000000001  0.42471999999999993  0.95653  1.0000
  H   H30       1.0  0.31153  0.40763999999999995  0.8391  1.0000
  H   H31       1.0  0.32501  0.30705  0.84142  1.0000
  H   H32       1.0  0.38854  0.13401  0.95429  1.0000
  H   H33       1.0  0.29297  0.09471  0.00614  1.0000
  H   H34       1.0  0.18868  0.24699999999999997  0.0011600000000000002  1.0000
  H   H35       1.0  0.28537  0.28749  0.95047  1.0000
  H   H36       1.0  0.68466  0.19099  0.65158  1.0000
  H   H37       1.0  0.69744  0.29167  0.65209  1.0000
  H   H38       1.0  0.52454  0.30672  0.54927  1.0000
  H   H39       1.0  0.51052  0.20681  0.54852  1.0000
  H   H40       1.0  0.7157  0.08344  0.64416  1.0000
  H   H41       1.0  0.73724  0.03641  0.73064  1.0000
  H   H42       1.0  0.50046  0.08414  0.67812  1.0000
  H   H43       1.0  0.71476  0.17001  0.5456500000000001  1.0000
  H   H44       1.0  0.80897  0.12713  0.49381000000000014  1.0000
  H   H45       1.0  0.70081  0.97612  0.49347000000000013  1.0000
  H   H46       1.0  0.60849  0.01743  0.54728  1.0000
  H   H47       1.0  0.49751000000000006  0.29569  0.32402  1.0000
  H   H48       1.0  0.51728  0.33803999999999995  0.23508000000000007  1.0000
  H   H49       1.0  0.73082  0.3423999999999999  0.26574  1.0000
  H   H50       1.0  0.71219  0.29864  0.3539100000000001  1.0000
  H   H51       1.0  0.5189900000000001  0.17599  0.46026  1.0000
  H   H52       1.0  0.53248  0.07528  0.45653  1.0000
  H   H53       1.0  0.68847  0.09236  0.3391000000000001  1.0000
  H   H54       1.0  0.67498  0.19295  0.34142000000000006  1.0000
  H   H55       1.0  0.61146  0.36599  0.45429  1.0000
  H   H56       1.0  0.70703  0.40529  0.50614  1.0000
  H   H57       1.0  0.8113100000000001  0.253  0.50116  1.0000
  H   H58       1.0  0.71463  0.21250999999999998  0.45047000000000004  1.0000
  H   H59       1.0  0.31534  0.309  0.15158  1.0000
  H   H60       1.0  0.30256  0.20832999999999993  0.15209  1.0000
  H   H61       1.0  0.47546  0.19328  0.049270000000000015  1.0000
  H   H62       1.0  0.48948  0.29318  0.048520000000000015  1.0000
  H   H63       1.0  0.2843  0.41656  0.14416000000000004  1.0000
  H   H64       1.0  0.26275000000000004  0.46359  0.23064000000000007  1.0000
  H   H65       1.0  0.49954000000000004  0.41586  0.17812  1.0000
  H   H66       1.0  0.28523  0.32999  0.04565  1.0000
  H   H67       1.0  0.19103  0.37286999999999987  0.9938100000000001  1.0000
  H   H68       1.0  0.29918  0.52388  0.99348  1.0000
  H   H69       1.0  0.39151  0.48256  0.04728000000000001  1.0000
  H   H70       1.0  0.99832  0.704  0.17629  1.0000
  H   H71       1.0  0.01839  0.6616599999999998  0.26516  1.0000
  H   H72       1.0  0.23185000000000003  0.65753  0.23413000000000006  1.0000
  H   H73       1.0  0.2129  0.70122  0.14599  1.0000
  H   H74       1.0  0.01928  0.82385  0.0398  1.0000
  H   H75       1.0  0.03295  0.92449  0.04294  1.0000
  H   H76       1.0  0.18853  0.9080299999999999  0.16067000000000006  1.0000
  H   H77       1.0  0.17520000000000002  0.8073599999999999  0.15878  1.0000
  H   H78       1.0  0.11217  0.63382  0.04554000000000001  1.0000
  H   H79       1.0  0.20792  0.59482  0.9937400000000002  1.0000
  H   H80       1.0  0.31164000000000003  0.74732  0.9989300000000001  1.0000
  H   H81       1.0  0.21475  0.78756  0.04961  1.0000
  H   H82       1.0  0.81517  0.69076  0.34846  1.0000
  H   H83       1.0  0.80234  0.7914099999999998  0.34773000000000004  1.0000
  H   H84       1.0  0.97499  0.80689  0.45068000000000014  1.0000
  H   H85       1.0  0.9890800000000001  0.7069299999999997  0.45174000000000003  1.0000
  H   H86       1.0  0.7846000000000002  0.58344  0.3559600000000001  1.0000
  H   H87       1.0  0.7624500000000001  0.53647  0.26965000000000006  1.0000
  H   H88       1.0  0.99962  0.58397  0.32122  1.0000
  H   H89       1.0  0.78532  0.67025  0.45432  1.0000
  H   H90       1.0  0.6908900000000001  0.62774  0.50586  1.0000
  H   H91       1.0  0.79809  0.47634  0.50637  1.0000
  H   H92       1.0  0.89086  0.51726  0.45297000000000004  1.0000
  H   H93       1.0  0.99833  0.204  0.32371  1.0000
  H   H94       1.0  0.01839  0.16166  0.23484000000000005  1.0000
  H   H95       1.0  0.23185000000000003  0.15753  0.26588  1.0000
  H   H96       1.0  0.2129  0.20122  0.35401  1.0000
  H   H97       1.0  0.01928  0.32385  0.4602000000000001  1.0000
  H   H98       1.0  0.03295  0.4244899999999999  0.45706000000000013  1.0000
  H   H99       1.0  0.18853  0.40803  0.3393300000000001  1.0000
  H   H100      1.0  0.17521  0.30736  0.34122000000000013  1.0000
  H   H101      1.0  0.11217  0.13382  0.4544600000000001  1.0000
  H   H102      1.0  0.20792  0.09482  0.50626  1.0000
  H   H103      1.0  0.31164000000000003  0.24731999999999998  0.50107  1.0000
  H   H104      1.0  0.21476000000000003  0.28755  0.45039000000000007  1.0000
  H   H105      1.0  0.81517  0.19076  0.15154  1.0000
  H   H106      1.0  0.80234  0.29141  0.15227  1.0000
  H   H107      1.0  0.9750000000000001  0.30689  0.04932  1.0000
  H   H108      1.0  0.9890900000000001  0.20693  0.048260000000000004  1.0000
  H   H109      1.0  0.7846000000000002  0.08344  0.14404000000000003  1.0000
  H   H110      1.0  0.7624500000000001  0.03647  0.23035  1.0000
  H   H111      1.0  0.99962  0.08397  0.17878  1.0000
  H   H112      1.0  0.78533  0.17025  0.04568000000000001  1.0000
  H   H113      1.0  0.6908900000000001  0.12774  0.99414  1.0000
  H   H114      1.0  0.79809  0.9763399999999999  0.9936300000000002  1.0000
  H   H115      1.0  0.89086  0.01726  0.04703  1.0000
  H   H116      1.0  0.49750000000000005  0.7956899999999999  0.17598  1.0000
  H   H117      1.0  0.51728  0.83804  0.26492  1.0000
  H   H118      1.0  0.73082  0.8424  0.23426000000000005  1.0000
  H   H119      1.0  0.71218  0.7986399999999999  0.14609  1.0000
  H   H120      1.0  0.51898  0.6759899999999999  0.03974  1.0000
  H   H121      1.0  0.53248  0.57528  0.04347000000000001  1.0000
  H   H122      1.0  0.68847  0.59236  0.16090000000000002  1.0000
  H   H123      1.0  0.67498  0.69295  0.15858000000000003  1.0000
  H   H124      1.0  0.61146  0.8659899999999998  0.04571  1.0000
  H   H125      1.0  0.70703  0.90529  0.99386  1.0000
  H   H126      1.0  0.8113100000000001  0.753  0.9988400000000001  1.0000
  H   H127      1.0  0.71463  0.71251  0.04953  1.0000
  H   H128      1.0  0.31533  0.809  0.34842  1.0000
  H   H129      1.0  0.30256  0.70833  0.34791000000000005  1.0000
  H   H130      1.0  0.47545  0.6932799999999999  0.4507300000000001  1.0000
  H   H131      1.0  0.48948  0.79318  0.45148000000000005  1.0000
  H   H132      1.0  0.28429000000000004  0.9165599999999998  0.35584  1.0000
  H   H133      1.0  0.26275000000000004  0.96359  0.26936  1.0000
  H   H134      1.0  0.49953000000000003  0.9158599999999999  0.32189  1.0000
  H   H135      1.0  0.28523  0.8299899999999999  0.45435000000000003  1.0000
  H   H136      1.0  0.19103  0.87287  0.50619  1.0000
  H   H137      1.0  0.29918  0.02388  0.50653  1.0000
  H   H138      1.0  0.39151  0.9825599999999999  0.45272  1.0000
  H   H139      1.0  0.50249  0.70431  0.67598  1.0000
  H   H140      1.0  0.48271000000000003  0.66196  0.76492  1.0000
  H   H141      1.0  0.26917  0.6575999999999999  0.73426  1.0000
  H   H142      1.0  0.28781  0.70136  0.64609  1.0000
  H   H143      1.0  0.48101000000000005  0.82401  0.53974  1.0000
  H   H144      1.0  0.46751000000000004  0.9247199999999998  0.54347  1.0000
  H   H145      1.0  0.31152  0.90764  0.6609000000000002  1.0000
  H   H146      1.0  0.32501  0.80705  0.6585800000000002  1.0000
  H   H147      1.0  0.38853  0.6340099999999999  0.54571  1.0000
  H   H148      1.0  0.29296  0.5947  0.49386  1.0000
  H   H149      1.0  0.18868  0.747  0.49884  1.0000
  H   H150      1.0  0.28536  0.7874899999999999  0.5495300000000001  1.0000
  H   H151      1.0  0.68466  0.69099  0.8484200000000001  1.0000
  H   H152      1.0  0.6974300000000001  0.79167  0.8479100000000002  1.0000
  H   H153      1.0  0.52454  0.8067199999999998  0.9507300000000002  1.0000
  H   H154      1.0  0.51052  0.70681  0.95148  1.0000
  H   H155      1.0  0.7157  0.58344  0.8558400000000003  1.0000
  H   H156      1.0  0.73724  0.53641  0.76936  1.0000
  H   H157      1.0  0.50046  0.58414  0.8218900000000001  1.0000
  H   H158      1.0  0.71476  0.67001  0.95435  1.0000
  H   H159      1.0  0.8089600000000001  0.62713  0.00619  1.0000
  H   H160      1.0  0.70081  0.4761199999999999  0.00653  1.0000
  H   H161      1.0  0.60848  0.51743  0.9527200000000001  1.0000
  H   H162      1.0  0.0016700000000000003  0.296  0.82371  1.0000
  H   H163      1.0  0.9816100000000001  0.33834  0.7348400000000002  1.0000
  H   H164      1.0  0.7681500000000001  0.3424699999999999  0.7658800000000001  1.0000
  H   H165      1.0  0.78709  0.29878  0.85401  1.0000
  H   H166      1.0  0.9807100000000001  0.17615  0.9602  1.0000
  H   H167      1.0  0.9670500000000001  0.07551  0.95706  1.0000
  H   H168      1.0  0.8114700000000001  0.09197  0.8393300000000002  1.0000
  H   H169      1.0  0.82479  0.19264  0.84122  1.0000
  H   H170      1.0  0.8878200000000002  0.36617999999999995  0.95446  1.0000
  H   H171      1.0  0.79208  0.40517999999999993  0.00626  1.0000
  H   H172      1.0  0.68835  0.25268  0.00107  1.0000
  H   H173      1.0  0.7852400000000002  0.21244  0.95039  1.0000
  H   H174      1.0  0.18483  0.30924  0.65154  1.0000
  H   H175      1.0  0.19766  0.20859  0.6522700000000002  1.0000
  H   H176      1.0  0.025  0.19311  0.54932  1.0000
  H   H177      1.0  0.010910000000000001  0.29307  0.5482600000000001  1.0000
  H   H178      1.0  0.2154  0.41656  0.6440400000000001  1.0000
  H   H179      1.0  0.23754000000000003  0.46352999999999994  0.73035  1.0000
  H   H180      1.0  0.00037  0.41602999999999996  0.67878  1.0000
  H   H181      1.0  0.21467  0.32975  0.54569  1.0000
  H   H182      1.0  0.30911  0.37226  0.49414000000000013  1.0000
  H   H183      1.0  0.2019  0.52365  0.49363000000000007  1.0000
  H   H184      1.0  0.10914  0.48274  0.54703  1.0000
  C   C1        1.0  0.8957700000000002  0.7933999999999998  0.6558000000000003  1.0000
  C   C2        1.0  0.95053  0.80513  0.6895400000000002  1.0000
  C   C3        1.0  0.9393400000000002  0.82932  0.73895  1.0000
  C   C4        1.0  0.8734900000000001  0.84292  0.75507  1.0000
  C   C5        1.0  0.86092  0.87067  0.8071900000000001  1.0000
  C   C6        1.0  0.8188  0.83131  0.72133  1.0000
  C   C7        1.0  0.82981  0.80664  0.6721600000000002  1.0000
  C   C8        1.0  0.9025300000000002  0.6908  0.5980300000000001  1.0000
  C   C9        1.0  0.9434000000000001  0.6576499999999998  0.56592  1.0000
  C   C10       1.0  0.9364200000000001  0.6015999999999999  0.5680700000000001  1.0000
  C   C11       1.0  0.8883700000000001  0.57816  0.60202  1.0000
  C   C12       1.0  0.8789500000000001  0.51817  0.60375  1.0000
  C   C13       1.0  0.84807  0.61122  0.6345  1.0000
  C   C14       1.0  0.8554  0.66725  0.63288  1.0000
  C   C15       1.0  0.84241  0.78683  0.55106  1.0000
  C   C16       1.0  0.8443100000000001  0.84131  0.53522  1.0000
  C   C17       1.0  0.79095  0.86316  0.50631  1.0000
  C   C18       1.0  0.73472  0.8310999999999998  0.49308  1.0000
  C   C19       1.0  0.67744  0.85561  0.46342  1.0000
  C   C20       1.0  0.73267  0.77674  0.50889  1.0000
  C   C21       1.0  0.78662  0.7546299999999998  0.53743  1.0000
  C   C22       1.0  0.09771  0.8074999999999999  0.9009  1.0000
  C   C23       1.0  0.15016  0.78393  0.87107  1.0000
  C   C24       1.0  0.15736  0.7279399999999999  0.87027  1.0000
  C   C25       1.0  0.11178000000000002  0.69527  0.89869  1.0000
  C   C26       1.0  0.12008000000000002  0.63539  0.89667  1.0000
  C   C27       1.0  0.05927  0.71878  0.92814  1.0000
  C   C28       1.0  0.05203  0.77485  0.92926  1.0000
  C   C29       1.0  0.10702  0.91231  0.84435  1.0000
  C   C30       1.0  0.17356  0.9258599999999999  0.8293800000000001  1.0000
  C   C31       1.0  0.18635  0.9524199999999998  0.78139  1.0000
  C   C32       1.0  0.13237  0.9658299999999999  0.7471900000000001  1.0000
  C   C33       1.0  0.14379  0.99382  0.6952500000000001  1.0000
  C   C34       1.0  0.06835  0.95157  0.7639700000000001  1.0000
  C   C35       1.0  0.05231  0.9259499999999999  0.8106900000000001  1.0000
  C   C36       1.0  0.15653  0.9037799999999999  0.94984  1.0000
  C   C37       1.0  0.21229  0.87228  0.96517  1.0000
  C   C38       1.0  0.26498  0.89573  0.99411  1.0000
  C   C39       1.0  0.26123  0.95046  0.00847  1.0000
  C   C40       1.0  0.31626  0.97714  0.03858  1.0000
  C   C41       1.0  0.20464  0.98157  0.9940400000000003  1.0000
  C   C42       1.0  0.15277  0.95856  0.9644700000000002  1.0000
  C   C43       1.0  0.3965300000000001  0.20673  0.84426  1.0000
  C   C44       1.0  0.45143  0.19506  0.81066  1.0000
  C   C45       1.0  0.44038  0.17090999999999998  0.7612300000000001  1.0000
  C   C46       1.0  0.37457000000000007  0.15731  0.74502  1.0000
  C   C47       1.0  0.36219  0.12996  0.6927300000000001  1.0000
  C   C48       1.0  0.31977  0.16878999999999997  0.7786700000000002  1.0000
  C   C49       1.0  0.33061  0.19344999999999998  0.82783  1.0000
  C   C50       1.0  0.40293  0.30921  0.90199  1.0000
  C   C51       1.0  0.44373  0.34243999999999997  0.9340600000000002  1.0000
  C   C52       1.0  0.43682000000000004  0.39848  0.9316100000000003  1.0000
  C   C53       1.0  0.38889  0.4218  0.8975000000000002  1.0000
  C   C54       1.0  0.3803  0.4818299999999999  0.8953  1.0000
  C   C55       1.0  0.34827  0.38862  0.8653400000000002  1.0000
  C   C56       1.0  0.35562  0.33259999999999995  0.86719  1.0000
  C   C57       1.0  0.34289  0.21324  0.94889  1.0000
  C   C58       1.0  0.34492  0.15874  0.96459  1.0000
  C   C59       1.0  0.2917  0.13671  0.9935000000000003  1.0000
  C   C60       1.0  0.23544  0.16861  0.00684  1.0000
  C   C61       1.0  0.17866000000000004  0.14369  0.03665  1.0000
  C   C62       1.0  0.23303  0.223  0.9910800000000001  1.0000
  C   C63       1.0  0.2869  0.24527  0.96255  1.0000
  C   C64       1.0  0.5976  0.19256  0.59911  1.0000
  C   C65       1.0  0.6499900000000001  0.21626999999999993  0.62893  1.0000
  C   C66       1.0  0.6571200000000001  0.27229  0.6295800000000001  1.0000
  C   C67       1.0  0.6115100000000001  0.30481  0.60095  1.0000
  C   C68       1.0  0.6194  0.3647099999999999  0.6025700000000002  1.0000
  C   C69       1.0  0.55891  0.28114  0.57178  1.0000
  C   C70       1.0  0.5517200000000001  0.22509  0.57085  1.0000
  C   C71       1.0  0.60713  0.08777  0.6554300000000001  1.0000
  C   C72       1.0  0.67366  0.07419  0.67054  1.0000
  C   C73       1.0  0.6862100000000001  0.0476  0.7185300000000002  1.0000
  C   C74       1.0  0.63198  0.03417  0.75239  1.0000
  C   C75       1.0  0.64275  0.00615  0.80423  1.0000
  C   C76       1.0  0.56801  0.04841  0.7355800000000002  1.0000
  C   C77       1.0  0.55226  0.07412  0.6888800000000002  1.0000
  C   C78       1.0  0.65655  0.09614  0.55019  1.0000
  C   C79       1.0  0.71233  0.12749  0.5347800000000001  1.0000
  C   C80       1.0  0.76474  0.10386  0.5057  1.0000
  C   C81       1.0  0.76049  0.04917  0.4913500000000001  1.0000
  C   C82       1.0  0.8151900000000001  0.02219  0.4613  1.0000
  C   C83       1.0  0.70379  0.01819  0.50586  1.0000
  C   C84       1.0  0.6522600000000001  0.04137  0.53561  1.0000
  C   C85       1.0  0.60347  0.29327  0.34426  1.0000
  C   C86       1.0  0.54857  0.30494  0.31066  1.0000
  C   C87       1.0  0.55962  0.32909  0.26123  1.0000
  C   C88       1.0  0.62543  0.34269  0.24502  1.0000
  C   C89       1.0  0.6378  0.37004  0.19273  1.0000
  C   C90       1.0  0.68023  0.33121  0.27867  1.0000
  C   C91       1.0  0.66939  0.30655  0.3278300000000001  1.0000
  C   C92       1.0  0.59707  0.19078999999999996  0.40199  1.0000
  C   C93       1.0  0.55627  0.15756  0.43406  1.0000
  C   C94       1.0  0.56318  0.10151999999999997  0.43161  1.0000
  C   C95       1.0  0.6111000000000001  0.0782  0.3975  1.0000
  C   C96       1.0  0.61969  0.018169999999999995  0.3953  1.0000
  C   C97       1.0  0.65173  0.11138  0.36534  1.0000
  C   C98       1.0  0.6443800000000001  0.1674  0.3671900000000001  1.0000
  C   C99       1.0  0.65711  0.28676  0.4488900000000001  1.0000
  C   C100      1.0  0.6550800000000001  0.34126  0.46459  1.0000
  C   C101      1.0  0.70829  0.36329  0.4935  1.0000
  C   C102      1.0  0.76456  0.33139  0.50684  1.0000
  C   C103      1.0  0.82133  0.35631  0.53665  1.0000
  C   C104      1.0  0.76697  0.277  0.49108  1.0000
  C   C105      1.0  0.71309  0.25473  0.4625500000000001  1.0000
  C   C106      1.0  0.40240000000000004  0.30744  0.09912000000000003  1.0000
  C   C107      1.0  0.35001  0.28373  0.12893  1.0000
  C   C108      1.0  0.34288  0.22770999999999997  0.12958  1.0000
  C   C109      1.0  0.38848  0.19518999999999997  0.10095000000000001  1.0000
  C   C110      1.0  0.38060000000000005  0.13529  0.10257000000000002  1.0000
  C   C111      1.0  0.44109000000000004  0.21885999999999997  0.07178  1.0000
  C   C112      1.0  0.44828  0.27491  0.07085000000000001  1.0000
  C   C113      1.0  0.39286  0.41222  0.15543  1.0000
  C   C114      1.0  0.32634  0.42581  0.17054000000000002  1.0000
  C   C115      1.0  0.31379  0.4523999999999999  0.21853  1.0000
  C   C116      1.0  0.36801  0.46583  0.2524  1.0000
  C   C117      1.0  0.35724  0.49385  0.30423  1.0000
  C   C118      1.0  0.43199000000000004  0.45159  0.23558000000000007  1.0000
  C   C119      1.0  0.44774  0.42588  0.18888000000000002  1.0000
  C   C120      1.0  0.34345  0.40386  0.050190000000000005  1.0000
  C   C121      1.0  0.28766  0.37251  0.03478  1.0000
  C   C122      1.0  0.23525  0.39614  0.005700000000000002  1.0000
  C   C123      1.0  0.23951000000000003  0.45082999999999995  0.9913500000000001  1.0000
  C   C124      1.0  0.18481  0.47781999999999997  0.9613000000000002  1.0000
  C   C125      1.0  0.29621  0.4818099999999999  0.00586  1.0000
  C   C126      1.0  0.34774000000000005  0.45863  0.03561  1.0000
  C   C127      1.0  0.10422  0.7065999999999999  0.1558  1.0000
  C   C128      1.0  0.04946  0.69487  0.18954  1.0000
  C   C129      1.0  0.06065000000000001  0.6706799999999999  0.23895  1.0000
  C   C130      1.0  0.12650000000000003  0.65708  0.25507  1.0000
  C   C131      1.0  0.13908  0.62933  0.30719  1.0000
  C   C132      1.0  0.18119  0.66869  0.22133000000000005  1.0000
  C   C133      1.0  0.17018  0.69336  0.17216000000000006  1.0000
  C   C134      1.0  0.09746  0.8091999999999999  0.09803000000000002  1.0000
  C   C135      1.0  0.056600000000000004  0.84235  0.06592  1.0000
  C   C136      1.0  0.06358  0.8983999999999998  0.06807  1.0000
  C   C137      1.0  0.11162  0.92184  0.10202000000000003  1.0000
  C   C138      1.0  0.12104  0.9818299999999998  0.10375  1.0000
  C   C139      1.0  0.15192  0.88878  0.1345  1.0000
  C   C140      1.0  0.14459  0.83275  0.13288  1.0000
  C   C141      1.0  0.15758  0.71317  0.05106  1.0000
  C   C142      1.0  0.15569000000000002  0.65869  0.03522  1.0000
  C   C143      1.0  0.20905000000000004  0.63684  0.0063100000000000005  1.0000
  C   C144      1.0  0.26527  0.6689  0.9930800000000002  1.0000
  C   C145      1.0  0.32256  0.64439  0.96342  1.0000
  C   C146      1.0  0.26733000000000007  0.72326  0.008890000000000002  1.0000
  C   C147      1.0  0.21338  0.7453699999999998  0.03743  1.0000
  C   C148      1.0  0.90228  0.6924999999999998  0.4009  1.0000
  C   C149      1.0  0.8498300000000001  0.71607  0.3710700000000001  1.0000
  C   C150      1.0  0.84263  0.7720599999999997  0.37027  1.0000
  C   C151      1.0  0.8882100000000002  0.8047299999999998  0.3986800000000001  1.0000
  C   C152      1.0  0.8799100000000001  0.8646099999999999  0.3966700000000001  1.0000
  C   C153      1.0  0.9407200000000001  0.7812199999999999  0.42814  1.0000
  C   C154      1.0  0.94797  0.72515  0.42926  1.0000
  C   C155      1.0  0.89297  0.58769  0.34435  1.0000
  C   C156      1.0  0.8264300000000001  0.57414  0.32938  1.0000
  C   C157      1.0  0.81364  0.54758  0.28139  1.0000
  C   C158      1.0  0.8676300000000001  0.53417  0.24719000000000002  1.0000
  C   C159      1.0  0.85621  0.50618  0.19525  1.0000
  C   C160      1.0  0.93164  0.54843  0.26397  1.0000
  C   C161      1.0  0.94768  0.57405  0.31069  1.0000
  C   C162      1.0  0.84347  0.59622  0.44984  1.0000
  C   C163      1.0  0.7877  0.6277199999999998  0.46516000000000013  1.0000
  C   C164      1.0  0.73501  0.60427  0.4941100000000001  1.0000
  C   C165      1.0  0.7387600000000001  0.54954  0.50847  1.0000
  C   C166      1.0  0.68373  0.52286  0.53858  1.0000
  C   C167      1.0  0.7953500000000001  0.51843  0.4940400000000001  1.0000
  C   C168      1.0  0.8472200000000001  0.54144  0.46447  1.0000
  C   C169      1.0  0.10423000000000002  0.20659999999999995  0.3442  1.0000
  C   C170      1.0  0.04946  0.19486999999999996  0.31046  1.0000
  C   C171      1.0  0.06065000000000001  0.17067999999999997  0.26105000000000006  1.0000
  C   C172      1.0  0.12650000000000003  0.15708  0.24493000000000006  1.0000
  C   C173      1.0  0.13908  0.12933  0.19281000000000006  1.0000
  C   C174      1.0  0.18119  0.16869  0.27868000000000004  1.0000
  C   C175      1.0  0.17018  0.19335999999999995  0.32784  1.0000
  C   C176      1.0  0.09746  0.3092  0.40197000000000005  1.0000
  C   C177      1.0  0.056600000000000004  0.34234999999999993  0.43408000000000013  1.0000
  C   C178      1.0  0.06358  0.3984  0.43193000000000004  1.0000
  C   C179      1.0  0.11162  0.42183999999999994  0.39799  1.0000
  C   C180      1.0  0.12104  0.4818299999999999  0.39625  1.0000
  C   C181      1.0  0.15192  0.38878  0.3655  1.0000
  C   C182      1.0  0.14459  0.33275  0.36712000000000006  1.0000
  C   C183      1.0  0.15758  0.21317  0.44894000000000006  1.0000
  C   C184      1.0  0.15569000000000002  0.15869  0.46478000000000014  1.0000
  C   C185      1.0  0.20905000000000004  0.13684  0.49369  1.0000
  C   C186      1.0  0.26527  0.1689  0.50692  1.0000
  C   C187      1.0  0.32256  0.14439  0.53658  1.0000
  C   C188      1.0  0.26733000000000007  0.22326  0.49111  1.0000
  C   C189      1.0  0.21338  0.24537  0.46257  1.0000
  C   C190      1.0  0.90228  0.1925  0.0991  1.0000
  C   C191      1.0  0.8498300000000001  0.21606999999999998  0.12893  1.0000
  C   C192      1.0  0.84263  0.27206  0.12973  1.0000
  C   C193      1.0  0.8882100000000002  0.30473  0.10132  1.0000
  C   C194      1.0  0.8799100000000001  0.36461  0.10333  1.0000
  C   C195      1.0  0.94073  0.28122  0.07186  1.0000
  C   C196      1.0  0.94797  0.22515  0.07074  1.0000
  C   C197      1.0  0.89297  0.08768999999999999  0.15565000000000004  1.0000
  C   C198      1.0  0.8264300000000001  0.07414  0.17062  1.0000
  C   C199      1.0  0.81364  0.04758  0.21861000000000005  1.0000
  C   C200      1.0  0.8676300000000001  0.03417  0.25281000000000003  1.0000
  C   C201      1.0  0.85621  0.006179999999999999  0.30475  1.0000
  C   C202      1.0  0.93165  0.04843  0.23603000000000005  1.0000
  C   C203      1.0  0.94768  0.07405  0.18931  1.0000
  C   C204      1.0  0.84347  0.09622  0.05016  1.0000
  C   C205      1.0  0.7877  0.12772  0.03484  1.0000
  C   C206      1.0  0.73501  0.10427  0.005890000000000002  1.0000
  C   C207      1.0  0.7387600000000001  0.04954  0.9915300000000002  1.0000
  C   C208      1.0  0.68373  0.02286  0.9614200000000003  1.0000
  C   C209      1.0  0.79536  0.01843  0.005960000000000002  1.0000
  C   C210      1.0  0.84723  0.04143999999999999  0.035530000000000006  1.0000
  C   C211      1.0  0.60347  0.79327  0.15574  1.0000
  C   C212      1.0  0.54857  0.80494  0.18934000000000006  1.0000
  C   C213      1.0  0.55961  0.82909  0.23877000000000007  1.0000
  C   C214      1.0  0.62542  0.84269  0.25498  1.0000
  C   C215      1.0  0.6378  0.8700399999999999  0.30727  1.0000
  C   C216      1.0  0.68023  0.83121  0.22133000000000005  1.0000
  C   C217      1.0  0.6693800000000001  0.80655  0.17217  1.0000
  C   C218      1.0  0.59707  0.6907899999999999  0.09801000000000003  1.0000
  C   C219      1.0  0.55627  0.65756  0.06594  1.0000
  C   C220      1.0  0.56318  0.60152  0.06839  1.0000
  C   C221      1.0  0.6111000000000001  0.5782  0.1025  1.0000
  C   C222      1.0  0.61969  0.51817  0.1047  1.0000
  C   C223      1.0  0.65173  0.61138  0.13466  1.0000
  C   C224      1.0  0.64437  0.6674  0.13281  1.0000
  C   C225      1.0  0.65711  0.7867599999999998  0.05111  1.0000
  C   C226      1.0  0.6550800000000001  0.84126  0.03541  1.0000
  C   C227      1.0  0.70829  0.86329  0.006500000000000001  1.0000
  C   C228      1.0  0.76456  0.83139  0.9931600000000002  1.0000
  C   C229      1.0  0.82133  0.8563099999999999  0.9633500000000002  1.0000
  C   C230      1.0  0.76697  0.777  0.00892  1.0000
  C   C231      1.0  0.71309  0.75473  0.03745  1.0000
  C   C232      1.0  0.40240000000000004  0.8074399999999999  0.40089  1.0000
  C   C233      1.0  0.35  0.78373  0.3710700000000001  1.0000
  C   C234      1.0  0.34288  0.7277099999999999  0.37042  1.0000
  C   C235      1.0  0.38848  0.69519  0.3990500000000001  1.0000
  C   C236      1.0  0.38060000000000005  0.63529  0.39743  1.0000
  C   C237      1.0  0.44109000000000004  0.7188599999999998  0.42822  1.0000
  C   C238      1.0  0.44828  0.7749099999999999  0.42915  1.0000
  C   C239      1.0  0.39286  0.9122199999999999  0.34457  1.0000
  C   C240      1.0  0.32634  0.92581  0.32946  1.0000
  C   C241      1.0  0.31379  0.9524  0.28147  1.0000
  C   C242      1.0  0.36801  0.9658299999999999  0.24761  1.0000
  C   C243      1.0  0.35724  0.9938499999999999  0.19577  1.0000
  C   C244      1.0  0.43198000000000003  0.9515899999999998  0.26443  1.0000
  C   C245      1.0  0.4477300000000001  0.92588  0.31112  1.0000
  C   C246      1.0  0.34345  0.90386  0.44981  1.0000
  C   C247      1.0  0.28766  0.87251  0.46522  1.0000
  C   C248      1.0  0.23525  0.8961399999999998  0.49430000000000013  1.0000
  C   C249      1.0  0.23951000000000003  0.95083  0.50865  1.0000
  C   C250      1.0  0.18481  0.97781  0.5387  1.0000
  C   C251      1.0  0.29621  0.98181  0.49414000000000013  1.0000
  C   C252      1.0  0.34773  0.95863  0.46439  1.0000
  C   C253      1.0  0.3965300000000001  0.70673  0.6557400000000002  1.0000
  C   C254      1.0  0.45142000000000004  0.69506  0.6893400000000001  1.0000
  C   C255      1.0  0.44038  0.67091  0.73877  1.0000
  C   C256      1.0  0.37457000000000007  0.65731  0.7549800000000002  1.0000
  C   C257      1.0  0.36219  0.62996  0.80727  1.0000
  C   C258      1.0  0.31977  0.66879  0.72133  1.0000
  C   C259      1.0  0.33061  0.69345  0.67217  1.0000
  C   C260      1.0  0.40293  0.8092099999999998  0.59801  1.0000
  C   C261      1.0  0.44373  0.8424399999999999  0.5659400000000001  1.0000
  C   C262      1.0  0.43682000000000004  0.89848  0.56839  1.0000
  C   C263      1.0  0.38889  0.9218  0.6025  1.0000
  C   C264      1.0  0.3803  0.9818299999999998  0.6047000000000001  1.0000
  C   C265      1.0  0.34827  0.8886199999999999  0.6346600000000001  1.0000
  C   C266      1.0  0.35562  0.8326  0.63281  1.0000
  C   C267      1.0  0.34288  0.7132399999999999  0.55111  1.0000
  C   C268      1.0  0.34492  0.65874  0.53541  1.0000
  C   C269      1.0  0.2917  0.63671  0.5065  1.0000
  C   C270      1.0  0.23543  0.6686099999999999  0.49316  1.0000
  C   C271      1.0  0.17866000000000004  0.64369  0.46335  1.0000
  C   C272      1.0  0.23303  0.723  0.50892  1.0000
  C   C273      1.0  0.2869  0.7452699999999999  0.53745  1.0000
  C   C274      1.0  0.5976  0.69256  0.9008900000000002  1.0000
  C   C275      1.0  0.6499900000000001  0.71627  0.87107  1.0000
  C   C276      1.0  0.65711  0.77229  0.8704200000000001  1.0000
  C   C277      1.0  0.6115100000000001  0.80481  0.89905  1.0000
  C   C278      1.0  0.6194  0.8647099999999998  0.89743  1.0000
  C   C279      1.0  0.55891  0.7811399999999998  0.9282200000000003  1.0000
  C   C280      1.0  0.55171  0.72509  0.9291500000000003  1.0000
  C   C281      1.0  0.60713  0.58777  0.84457  1.0000
  C   C282      1.0  0.6736500000000001  0.57419  0.8294600000000001  1.0000
  C   C283      1.0  0.6862100000000001  0.5476  0.78147  1.0000
  C   C284      1.0  0.63198  0.53417  0.74761  1.0000
  C   C285      1.0  0.64275  0.50615  0.6957700000000002  1.0000
  C   C286      1.0  0.56801  0.54841  0.7644300000000002  1.0000
  C   C287      1.0  0.55226  0.57412  0.81112  1.0000
  C   C288      1.0  0.65655  0.5961399999999999  0.94981  1.0000
  C   C289      1.0  0.71233  0.62749  0.96522  1.0000
  C   C290      1.0  0.76474  0.60386  0.9943  1.0000
  C   C291      1.0  0.7604800000000002  0.54917  0.00865  1.0000
  C   C292      1.0  0.81518  0.52219  0.0387  1.0000
  C   C293      1.0  0.70378  0.51819  0.99414  1.0000
  C   C294      1.0  0.6522600000000001  0.54137  0.9643900000000002  1.0000
  C   C295      1.0  0.8957700000000002  0.2934  0.8442  1.0000
  C   C296      1.0  0.95054  0.30513  0.81046  1.0000
  C   C297      1.0  0.9393400000000002  0.32932  0.7610500000000002  1.0000
  C   C298      1.0  0.8734900000000001  0.34292  0.74493  1.0000
  C   C299      1.0  0.86092  0.37067  0.69281  1.0000
  C   C300      1.0  0.8188100000000001  0.33130999999999994  0.77868  1.0000
  C   C301      1.0  0.82981  0.30664  0.82784  1.0000
  C   C302      1.0  0.90254  0.19079999999999997  0.90197  1.0000
  C   C303      1.0  0.9434000000000001  0.15765  0.93408  1.0000
  C   C304      1.0  0.9364200000000001  0.10159999999999998  0.9319300000000001  1.0000
  C   C305      1.0  0.88838  0.07816  0.8979900000000002  1.0000
  C   C306      1.0  0.8789500000000001  0.018169999999999995  0.8962500000000002  1.0000
  C   C307      1.0  0.84807  0.11122  0.8655  1.0000
  C   C308      1.0  0.8554  0.16725  0.8671200000000002  1.0000
  C   C309      1.0  0.8424200000000001  0.28683  0.94894  1.0000
  C   C310      1.0  0.8443100000000001  0.34131  0.96478  1.0000
  C   C311      1.0  0.79095  0.36316  0.99369  1.0000
  C   C312      1.0  0.73472  0.3311  0.00692  1.0000
  C   C313      1.0  0.67744  0.35561  0.03658  1.0000
  C   C314      1.0  0.73267  0.27674  0.9911100000000002  1.0000
  C   C315      1.0  0.78662  0.25463  0.9625800000000001  1.0000
  C   C316      1.0  0.09772  0.3075  0.5991  1.0000
  C   C317      1.0  0.15016  0.28393  0.62893  1.0000
  C   C318      1.0  0.15737  0.22793999999999998  0.6297400000000001  1.0000
  C   C319      1.0  0.11179000000000003  0.19526999999999997  0.60132  1.0000
  C   C320      1.0  0.12008000000000002  0.13539  0.60333  1.0000
  C   C321      1.0  0.05927  0.21877999999999995  0.57186  1.0000
  C   C322      1.0  0.05203  0.27485  0.57074  1.0000
  C   C323      1.0  0.10702  0.41231  0.6556500000000001  1.0000
  C   C324      1.0  0.17356  0.42586  0.67062  1.0000
  C   C325      1.0  0.18635  0.45242  0.7186100000000002  1.0000
  C   C326      1.0  0.13237  0.46583  0.75281  1.0000
  C   C327      1.0  0.14379  0.49381999999999987  0.80475  1.0000
  C   C328      1.0  0.06835  0.4515699999999999  0.73603  1.0000
  C   C329      1.0  0.05231  0.42595  0.68931  1.0000
  C   C330      1.0  0.15653  0.40378  0.5501600000000001  1.0000
  C   C331      1.0  0.2123  0.37228  0.53484  1.0000
  C   C332      1.0  0.26499000000000006  0.39573  0.50589  1.0000
  C   C333      1.0  0.26124  0.45045999999999997  0.49153000000000013  1.0000
  C   C334      1.0  0.31626  0.47714  0.46142  1.0000
  C   C335      1.0  0.20464  0.48157  0.50596  1.0000
  C   C336      1.0  0.15277  0.45856  0.53553  1.0000
  O   O1        1.0  0.9120300000000001  0.87699  0.8382600000000001  1.0000
  O   O2        1.0  0.8010200000000001  0.8859899999999999  0.81738  1.0000
  O   O3        1.0  0.92245  0.48874  0.5793400000000001  1.0000
  O   O4        1.0  0.82833  0.50009  0.62955  1.0000
  O   O5        1.0  0.68677  0.90257  0.44089  1.0000
  O   O6        1.0  0.61974  0.83348  0.46072000000000013  1.0000
  O   O7        1.0  0.98073  0.77826  0.56846  1.0000
  O   O8        1.0  0.17135000000000003  0.616  0.87311  1.0000
  O   O9        1.0  0.07362000000000002  0.60583  0.91845  1.0000
  O   O10       1.0  0.20231  0.01108  0.68487  1.0000
  O   O11       1.0  0.09126  0.9972699999999998  0.66471  1.0000
  O   O12       1.0  0.37584  0.95802  0.04232  1.0000
  O   O13       1.0  0.30316  0.02342  0.06106000000000001  1.0000
  O   O14       1.0  0.02035  0.89451  0.92907  1.0000
  O   O15       1.0  0.41326000000000007  0.12465  0.66143  1.0000
  O   O16       1.0  0.30254  0.11399  0.6826200000000001  1.0000
  O   O17       1.0  0.42466  0.51116  0.9188  1.0000
  O   O18       1.0  0.32946  0.5001  0.87  1.0000
  O   O19       1.0  0.18844000000000002  0.09689  0.05922  1.0000
  O   O20       1.0  0.12076000000000002  0.16552999999999995  0.03936  1.0000
  O   O21       1.0  0.48156  0.22192  0.93137  1.0000
  O   O22       1.0  0.67  0.38428  0.62694  1.0000
  O   O23       1.0  0.57354  0.39415  0.5798100000000002  1.0000
  O   O24       1.0  0.7011500000000002  0.9891499999999999  0.8154  1.0000
  O   O25       1.0  0.58956  0.0024  0.8339700000000001  1.0000
  O   O26       1.0  0.87516  0.04075999999999999  0.45791  1.0000
  O   O27       1.0  0.8017  0.9761599999999998  0.43869  1.0000
  O   O28       1.0  0.52093  0.10549  0.56979  1.0000
  O   O29       1.0  0.58673  0.37534999999999996  0.16143  1.0000
  O   O30       1.0  0.6974600000000001  0.38601  0.18262  1.0000
  O   O31       1.0  0.57534  0.98884  0.4188  1.0000
  O   O32       1.0  0.67053  0.9998999999999999  0.37000000000000005  1.0000
  O   O33       1.0  0.8115500000000001  0.40311  0.55922  1.0000
  O   O34       1.0  0.87924  0.33446999999999993  0.53936  1.0000
  O   O35       1.0  0.5184400000000001  0.27807  0.43137000000000003  1.0000
  O   O36       1.0  0.32999  0.11572  0.12694  1.0000
  O   O37       1.0  0.42646000000000006  0.10585  0.07981  1.0000
  O   O38       1.0  0.29885  0.51085  0.3154  1.0000
  O   O39       1.0  0.41044  0.4975999999999999  0.33397  1.0000
  O   O40       1.0  0.12483  0.4592499999999999  0.9579200000000002  1.0000
  O   O41       1.0  0.19829  0.52384  0.93869  1.0000
  O   O42       1.0  0.47907  0.39451  0.06980000000000001  1.0000
  O   O43       1.0  0.08796000000000001  0.62301  0.33826  1.0000
  O   O44       1.0  0.19897000000000004  0.61401  0.31738  1.0000
  O   O45       1.0  0.07754  0.01126  0.07934  1.0000
  O   O46       1.0  0.17166  0.99991  0.12955  1.0000
  O   O47       1.0  0.31322  0.59743  0.9408900000000001  1.0000
  O   O48       1.0  0.38025000000000003  0.66652  0.96072  1.0000
  O   O49       1.0  0.01926  0.72174  0.06846  1.0000
  O   O50       1.0  0.8286400000000002  0.884  0.37311  1.0000
  O   O51       1.0  0.92637  0.8941599999999998  0.4184500000000001  1.0000
  O   O52       1.0  0.79769  0.48892  0.18487  1.0000
  O   O53       1.0  0.90874  0.50273  0.16471  1.0000
  O   O54       1.0  0.62415  0.54198  0.5423200000000001  1.0000
  O   O55       1.0  0.69683  0.4765799999999999  0.56106  1.0000
  O   O56       1.0  0.9796400000000001  0.60549  0.42907  1.0000
  O   O57       1.0  0.08796000000000001  0.12300999999999998  0.16175000000000006  1.0000
  O   O58       1.0  0.19897000000000004  0.11400999999999999  0.18262  1.0000
  O   O59       1.0  0.07754  0.51126  0.42066000000000003  1.0000
  O   O60       1.0  0.17167  0.49991  0.37045  1.0000
  O   O61       1.0  0.31322  0.09743  0.5591100000000001  1.0000
  O   O62       1.0  0.38025000000000003  0.16651999999999997  0.53928  1.0000
  O   O63       1.0  0.01926  0.22173999999999996  0.43154  1.0000
  O   O64       1.0  0.8286400000000002  0.3839999999999999  0.12689  1.0000
  O   O65       1.0  0.92637  0.39415999999999995  0.08155000000000001  1.0000
  O   O66       1.0  0.79769  0.9889199999999999  0.31513  1.0000
  O   O67       1.0  0.90874  0.00273  0.33529  1.0000
  O   O68       1.0  0.6241600000000002  0.04198  0.95768  1.0000
  O   O69       1.0  0.69683  0.97658  0.93894  1.0000
  O   O70       1.0  0.9796500000000001  0.10549  0.07093  1.0000
  O   O71       1.0  0.58673  0.8753499999999999  0.33857  1.0000
  O   O72       1.0  0.69745  0.88601  0.31738  1.0000
  O   O73       1.0  0.57534  0.4888399999999999  0.0812  1.0000
  O   O74       1.0  0.67053  0.49989999999999996  0.13  1.0000
  O   O75       1.0  0.8115500000000001  0.90311  0.9407800000000002  1.0000
  O   O76       1.0  0.87923  0.83447  0.96064  1.0000
  O   O77       1.0  0.5184400000000001  0.77807  0.06863000000000001  1.0000
  O   O78       1.0  0.32999  0.61572  0.37306  1.0000
  O   O79       1.0  0.42646000000000006  0.60585  0.42019  1.0000
  O   O80       1.0  0.29885  0.01085  0.1846  1.0000
  O   O81       1.0  0.41044  0.9976  0.16603  1.0000
  O   O82       1.0  0.12483  0.9592399999999999  0.54209  1.0000
  O   O83       1.0  0.19830000000000003  0.023839999999999997  0.56131  1.0000
  O   O84       1.0  0.4790600000000001  0.89451  0.43020000000000014  1.0000
  O   O85       1.0  0.41326000000000007  0.62465  0.8385700000000003  1.0000
  O   O86       1.0  0.30254  0.61399  0.81738  1.0000
  O   O87       1.0  0.42466  0.01116  0.5812  1.0000
  O   O88       1.0  0.32946  9.999999999999999e-05  0.63  1.0000
  O   O89       1.0  0.18844000000000002  0.59689  0.44078  1.0000
  O   O90       1.0  0.12076000000000002  0.6655299999999998  0.46064  1.0000
  O   O91       1.0  0.48156  0.72192  0.5686300000000001  1.0000
  O   O92       1.0  0.67  0.88428  0.87306  1.0000
  O   O93       1.0  0.57354  0.8941499999999999  0.92019  1.0000
  O   O94       1.0  0.7011500000000002  0.48915  0.6846  1.0000
  O   O95       1.0  0.58956  0.5024  0.66603  1.0000
  O   O96       1.0  0.87516  0.54076  0.04209  1.0000
  O   O97       1.0  0.8017  0.47615999999999997  0.06131  1.0000
  O   O98       1.0  0.52093  0.60549  0.9302  1.0000
  O   O99       1.0  0.91204  0.37698999999999994  0.6617500000000002  1.0000
  O   O100      1.0  0.80103  0.38599  0.6826200000000001  1.0000
  O   O101      1.0  0.92245  0.9887399999999998  0.92066  1.0000
  O   O102      1.0  0.82833  9e-05  0.8704500000000002  1.0000
  O   O103      1.0  0.68677  0.40257  0.05911000000000002  1.0000
  O   O104      1.0  0.61975  0.33347999999999994  0.03928  1.0000
  O   O105      1.0  0.98073  0.27826  0.93154  1.0000
  O   O106      1.0  0.17136  0.116  0.62689  1.0000
  O   O107      1.0  0.07362000000000002  0.10582999999999997  0.58155  1.0000
  O   O108      1.0  0.20231  0.51108  0.81513  1.0000
  O   O109      1.0  0.09126  0.49726999999999993  0.83529  1.0000
  O   O110      1.0  0.37584  0.45802  0.45768  1.0000
  O   O111      1.0  0.30316  0.52342  0.43894000000000005  1.0000
  O   O112      1.0  0.02035  0.39451  0.5709300000000002  1.0000
