data_image0
_chemical_formula_structural       Cu24H336C528O96
_chemical_formula_sum              "Cu24 H336 C528 O96"
_cell_length_a       33.64026
_cell_length_b       33.64026
_cell_length_c       33.64026
_cell_angle_alpha    90.0
_cell_angle_beta     90.0
_cell_angle_gamma    90.0

_space_group_name_H-M_alt    "P 1"
_space_group_IT_number       1

loop_
  _space_group_symop_operation_xyz
  'x, y, z'

loop_
  _atom_site_type_symbol
  _atom_site_label
  _atom_site_symmetry_multiplicity
  _atom_site_fract_x
  _atom_site_fract_y
  _atom_site_fract_z
  _atom_site_occupancy
  Cu  Cu1       1.0  0.03644  0.75013  0.24981000000000003  1.0000
  Cu  Cu2       1.0  0.46348  0.75012  0.24964  1.0000
  Cu  Cu3       1.0  0.24981000000000003  0.03644  0.75013  1.0000
  Cu  Cu4       1.0  0.24963  0.46348  0.75012  1.0000
  Cu  Cu5       1.0  0.75013  0.24981000000000003  0.03644  1.0000
  Cu  Cu6       1.0  0.75012  0.24964  0.46348  1.0000
  Cu  Cu7       1.0  0.24984  0.9635600000000001  0.7504  1.0000
  Cu  Cu8       1.0  0.2499  0.53652  0.75015  1.0000
  Cu  Cu9       1.0  0.9635600000000001  0.7504  0.24984  1.0000
  Cu  Cu10      1.0  0.53652  0.75015  0.2499  1.0000
  Cu  Cu11      1.0  0.75014  0.2499  0.53652  1.0000
  Cu  Cu12      1.0  0.7504  0.24984  0.9635600000000001  1.0000
  Cu  Cu13      1.0  0.75016  0.03644  0.24959999999999996  1.0000
  Cu  Cu14      1.0  0.7501  0.46348  0.24985000000000002  1.0000
  Cu  Cu15      1.0  0.03644  0.24959999999999996  0.75016  1.0000
  Cu  Cu16      1.0  0.46348  0.24985000000000002  0.7501  1.0000
  Cu  Cu17      1.0  0.24985000000000002  0.7501  0.46348  1.0000
  Cu  Cu18      1.0  0.24959999999999996  0.75016  0.03644  1.0000
  Cu  Cu19      1.0  0.9635600000000001  0.24987000000000004  0.75019  1.0000
  Cu  Cu20      1.0  0.53651  0.24988  0.75036  1.0000
  Cu  Cu21      1.0  0.75018  0.9635600000000001  0.24987000000000004  1.0000
  Cu  Cu22      1.0  0.75036  0.53652  0.24988  1.0000
  Cu  Cu23      1.0  0.24987000000000004  0.75018  0.9635600000000001  1.0000
  Cu  Cu24      1.0  0.24987000000000004  0.75036  0.53652  1.0000
  H   H1        1.0  0.9178  0.9677099999999998  0.0221  1.0000
  H   H2        1.0  0.90799  0.90361  0.0373  1.0000
  H   H3        1.0  0.91191  0.85882  0.09531  1.0000
  H   H4        1.0  0.03983  0.86131  0.08843  1.0000
  H   H5        1.0  0.03606  0.90648  0.03151  1.0000
  H   H6        1.0  0.94747  0.82341  0.14404  1.0000
  H   H7        1.0  0.03893  0.82382  0.14155  1.0000
  H   H8        1.0  0.5822  0.53228  0.0221  1.0000
  H   H9        1.0  0.59201  0.59639  0.03728  1.0000
  H   H10       1.0  0.58813  0.64117  0.09528  1.0000
  H   H11       1.0  0.4602  0.6387  0.08844  1.0000
  H   H12       1.0  0.46395  0.59353  0.03153  1.0000
  H   H13       1.0  0.55256  0.67663  0.14406  1.0000
  H   H14       1.0  0.46114  0.67614  0.14155  1.0000
  H   H15       1.0  0.58218  0.9677099999999998  0.4779  1.0000
  H   H16       1.0  0.592  0.90361  0.46272  1.0000
  H   H17       1.0  0.58812  0.85884  0.40471  1.0000
  H   H18       1.0  0.46018  0.8613  0.41155  1.0000
  H   H19       1.0  0.46394  0.90647  0.46847  1.0000
  H   H20       1.0  0.5525500000000001  0.82339  0.35593  1.0000
  H   H21       1.0  0.46115  0.82378  0.35839  1.0000
  H   H22       1.0  0.9178  0.53229  0.4778899999999999  1.0000
  H   H23       1.0  0.90799  0.59639  0.4627  1.0000
  H   H24       1.0  0.91189  0.64117  0.4047  1.0000
  H   H25       1.0  0.03982  0.63869  0.41156  1.0000
  H   H26       1.0  0.03605  0.59352  0.46847  1.0000
  H   H27       1.0  0.94741  0.67662  0.35595  1.0000
  H   H28       1.0  0.0388  0.67625  0.35831  1.0000
  H   H29       1.0  0.02209  0.9178  0.9677099999999998  1.0000
  H   H30       1.0  0.03729  0.90799  0.90361  1.0000
  H   H31       1.0  0.0953  0.91191  0.85882  1.0000
  H   H32       1.0  0.08843  0.03983  0.86131  1.0000
  H   H33       1.0  0.03151  0.03606  0.90648  1.0000
  H   H34       1.0  0.14404  0.94747  0.82341  1.0000
  H   H35       1.0  0.14155  0.03893  0.82383  1.0000
  H   H36       1.0  0.0221  0.5822  0.53228  1.0000
  H   H37       1.0  0.03728  0.59201  0.59639  1.0000
  H   H38       1.0  0.09528  0.58813  0.64117  1.0000
  H   H39       1.0  0.08844  0.4602  0.6387  1.0000
  H   H40       1.0  0.03153  0.46395  0.59353  1.0000
  H   H41       1.0  0.14406  0.55256  0.67663  1.0000
  H   H42       1.0  0.14155  0.46114  0.67614  1.0000
  H   H43       1.0  0.4779  0.58218  0.9677099999999998  1.0000
  H   H44       1.0  0.46272  0.592  0.90361  1.0000
  H   H45       1.0  0.4047  0.58812  0.85884  1.0000
  H   H46       1.0  0.41155  0.46018  0.8613  1.0000
  H   H47       1.0  0.46847  0.46394  0.90647  1.0000
  H   H48       1.0  0.35592  0.5525500000000001  0.82339  1.0000
  H   H49       1.0  0.35839  0.46115  0.82378  1.0000
  H   H50       1.0  0.4778899999999999  0.9178  0.53229  1.0000
  H   H51       1.0  0.4627  0.90799  0.5964  1.0000
  H   H52       1.0  0.40469  0.91189  0.64117  1.0000
  H   H53       1.0  0.41156  0.03982  0.63869  1.0000
  H   H54       1.0  0.46847  0.03605  0.59352  1.0000
  H   H55       1.0  0.35594  0.94741  0.67662  1.0000
  H   H56       1.0  0.35831  0.0388  0.67626  1.0000
  H   H57       1.0  0.9677099999999998  0.0221  0.9178  1.0000
  H   H58       1.0  0.9036  0.03729  0.90799  1.0000
  H   H59       1.0  0.85882  0.0953  0.91191  1.0000
  H   H60       1.0  0.86131  0.08843  0.03983  1.0000
  H   H61       1.0  0.90648  0.03151  0.03606  1.0000
  H   H62       1.0  0.82341  0.14404  0.94747  1.0000
  H   H63       1.0  0.82382  0.14155  0.03893  1.0000
  H   H64       1.0  0.53228  0.0221  0.5822  1.0000
  H   H65       1.0  0.59639  0.03728  0.59202  1.0000
  H   H66       1.0  0.64116  0.09528  0.58813  1.0000
  H   H67       1.0  0.6387  0.08844  0.4602  1.0000
  H   H68       1.0  0.59353  0.03153  0.46395  1.0000
  H   H69       1.0  0.67662  0.14406  0.55256  1.0000
  H   H70       1.0  0.67614  0.14155  0.46115  1.0000
  H   H71       1.0  0.9676999999999999  0.4779  0.58219  1.0000
  H   H72       1.0  0.90361  0.46272  0.592  1.0000
  H   H73       1.0  0.85883  0.40471  0.58812  1.0000
  H   H74       1.0  0.8613  0.41155  0.46019  1.0000
  H   H75       1.0  0.90646  0.46847  0.46394  1.0000
  H   H76       1.0  0.82339  0.35593  0.55256  1.0000
  H   H77       1.0  0.82378  0.35839  0.46116  1.0000
  H   H78       1.0  0.53229  0.4778899999999999  0.91781  1.0000
  H   H79       1.0  0.59639  0.4627  0.90799  1.0000
  H   H80       1.0  0.64117  0.40469  0.91189  1.0000
  H   H81       1.0  0.63869  0.41156  0.03982  1.0000
  H   H82       1.0  0.59352  0.46847  0.03605  1.0000
  H   H83       1.0  0.67661  0.35594  0.94741  1.0000
  H   H84       1.0  0.67625  0.35831  0.0388  1.0000
  H   H85       1.0  0.0323  0.08219  0.52211  1.0000
  H   H86       1.0  0.0964  0.092  0.5373  1.0000
  H   H87       1.0  0.14117  0.08809  0.59531  1.0000
  H   H88       1.0  0.13869  0.96017  0.58844  1.0000
  H   H89       1.0  0.09352  0.9639399999999999  0.53152  1.0000
  H   H90       1.0  0.1766  0.05256  0.64405  1.0000
  H   H91       1.0  0.17625  0.9611400000000001  0.64165  1.0000
  H   H92       1.0  0.46771  0.41781  0.52211  1.0000
  H   H93       1.0  0.40361  0.40799  0.53728  1.0000
  H   H94       1.0  0.35884  0.41186  0.59528  1.0000
  H   H95       1.0  0.3613  0.5398  0.58845  1.0000
  H   H96       1.0  0.40646  0.53605  0.53154  1.0000
  H   H97       1.0  0.32337  0.44741  0.64407  1.0000
  H   H98       1.0  0.32377  0.53878  0.64165  1.0000
  H   H99       1.0  0.03228  0.41781  0.9779099999999998  1.0000
  H   H100      1.0  0.09639  0.40799  0.96272  1.0000
  H   H101      1.0  0.14116  0.41188  0.90471  1.0000
  H   H102      1.0  0.13869  0.53981  0.91156  1.0000
  H   H103      1.0  0.09353  0.53606  0.96848  1.0000
  H   H104      1.0  0.1766  0.44748  0.85594  1.0000
  H   H105      1.0  0.17613  0.53892  0.85851  1.0000
  H   H106      1.0  0.46771  0.0822  0.9778999999999999  1.0000
  H   H107      1.0  0.4036  0.09201  0.9627099999999998  1.0000
  H   H108      1.0  0.35882  0.0881  0.9047  1.0000
  H   H109      1.0  0.3613  0.9601800000000001  0.91157  1.0000
  H   H110      1.0  0.40648  0.9639499999999999  0.96848  1.0000
  H   H111      1.0  0.32338  0.05256  0.85596  1.0000
  H   H112      1.0  0.32382  0.96113  0.85841  1.0000
  H   H113      1.0  0.0822  0.9778899999999999  0.46771  1.0000
  H   H114      1.0  0.09201  0.9626999999999999  0.40361  1.0000
  H   H115      1.0  0.0881  0.9047  0.35882  1.0000
  H   H116      1.0  0.9601800000000001  0.91157  0.36131  1.0000
  H   H117      1.0  0.9639499999999999  0.96848  0.40648  1.0000
  H   H118      1.0  0.05256  0.85596  0.32339  1.0000
  H   H119      1.0  0.96113  0.85841  0.32383  1.0000
  H   H120      1.0  0.41781  0.9779099999999998  0.03229  1.0000
  H   H121      1.0  0.40799  0.96272  0.09639  1.0000
  H   H122      1.0  0.41188  0.90471  0.14117  1.0000
  H   H123      1.0  0.53981  0.91156  0.1387  1.0000
  H   H124      1.0  0.53606  0.96848  0.09353  1.0000
  H   H125      1.0  0.44748  0.85594  0.17661  1.0000
  H   H126      1.0  0.53892  0.85851  0.17613  1.0000
  H   H127      1.0  0.41781  0.52211  0.46772  1.0000
  H   H128      1.0  0.40799  0.53728  0.40361  1.0000
  H   H129      1.0  0.41186  0.59528  0.35884  1.0000
  H   H130      1.0  0.5398  0.58845  0.3613  1.0000
  H   H131      1.0  0.53604  0.53154  0.40647  1.0000
  H   H132      1.0  0.4474  0.64407  0.32337  1.0000
  H   H133      1.0  0.53878  0.64165  0.32378  1.0000
  H   H134      1.0  0.08219  0.52211  0.0323  1.0000
  H   H135      1.0  0.092  0.5373  0.0964  1.0000
  H   H136      1.0  0.08809  0.59531  0.14117  1.0000
  H   H137      1.0  0.96017  0.58844  0.13869  1.0000
  H   H138      1.0  0.9639399999999999  0.53152  0.09352  1.0000
  H   H139      1.0  0.05256  0.64405  0.1766  1.0000
  H   H140      1.0  0.9611400000000001  0.64165  0.17625  1.0000
  H   H141      1.0  0.9778999999999999  0.03229  0.41781  1.0000
  H   H142      1.0  0.96272  0.09639  0.40799  1.0000
  H   H143      1.0  0.90471  0.14117  0.41188  1.0000
  H   H144      1.0  0.91156  0.13869  0.53981  1.0000
  H   H145      1.0  0.96848  0.09353  0.53606  1.0000
  H   H146      1.0  0.85594  0.17661  0.44748  1.0000
  H   H147      1.0  0.85851  0.17613  0.53893  1.0000
  H   H148      1.0  0.9778899999999999  0.46771  0.0822  1.0000
  H   H149      1.0  0.9626999999999999  0.40361  0.09202  1.0000
  H   H150      1.0  0.9047  0.35882  0.0881  1.0000
  H   H151      1.0  0.91157  0.36131  0.9601900000000001  1.0000
  H   H152      1.0  0.96848  0.40648  0.9639499999999999  1.0000
  H   H153      1.0  0.85596  0.32339  0.05256  1.0000
  H   H154      1.0  0.8584  0.32383  0.96113  1.0000
  H   H155      1.0  0.52211  0.0323  0.08219  1.0000
  H   H156      1.0  0.5373  0.0964  0.092  1.0000
  H   H157      1.0  0.59531  0.14117  0.0881  1.0000
  H   H158      1.0  0.58843  0.13869  0.96017  1.0000
  H   H159      1.0  0.53152  0.09352  0.9639399999999999  1.0000
  H   H160      1.0  0.64405  0.1766  0.05256  1.0000
  H   H161      1.0  0.64165  0.17625  0.9611400000000001  1.0000
  H   H162      1.0  0.5221  0.46772  0.41781  1.0000
  H   H163      1.0  0.53728  0.40361  0.40799  1.0000
  H   H164      1.0  0.59528  0.35884  0.41186  1.0000
  H   H165      1.0  0.58845  0.3613  0.5398  1.0000
  H   H166      1.0  0.53154  0.40647  0.53605  1.0000
  H   H167      1.0  0.64407  0.32337  0.44741  1.0000
  H   H168      1.0  0.64164  0.32378  0.53878  1.0000
  H   H169      1.0  0.9676999999999999  0.91781  0.4778899999999999  1.0000
  H   H170      1.0  0.9036  0.908  0.4627  1.0000
  H   H171      1.0  0.85882  0.9119  0.40469  1.0000
  H   H172      1.0  0.86131  0.03983  0.41156  1.0000
  H   H173      1.0  0.90648  0.03606  0.46848  1.0000
  H   H174      1.0  0.8234  0.94744  0.35595  1.0000
  H   H175      1.0  0.82375  0.03886  0.35835  1.0000
  H   H176      1.0  0.53228  0.58219  0.4778899999999999  1.0000
  H   H177      1.0  0.59638  0.59201  0.46272  1.0000
  H   H178      1.0  0.64116  0.58814  0.40472  1.0000
  H   H179      1.0  0.6387  0.4602  0.41155  1.0000
  H   H180      1.0  0.59353  0.46395  0.46846  1.0000
  H   H181      1.0  0.67663  0.5525900000000001  0.35593  1.0000
  H   H182      1.0  0.67622  0.46122  0.35835  1.0000
  H   H183      1.0  0.9677099999999998  0.58219  0.0221  1.0000
  H   H184      1.0  0.90361  0.59201  0.03728  1.0000
  H   H185      1.0  0.85883  0.58812  0.09529  1.0000
  H   H186      1.0  0.8613  0.46019  0.08844  1.0000
  H   H187      1.0  0.90647  0.46394  0.03152  1.0000
  H   H188      1.0  0.82339  0.55252  0.14406  1.0000
  H   H189      1.0  0.82386  0.46107  0.14149  1.0000
  H   H190      1.0  0.53228  0.9178  0.02211  1.0000
  H   H191      1.0  0.59639  0.90798  0.0373  1.0000
  H   H192      1.0  0.64117  0.9119  0.0953  1.0000
  H   H193      1.0  0.63869  0.03982  0.08843  1.0000
  H   H194      1.0  0.59352  0.03605  0.03152  1.0000
  H   H195      1.0  0.67661  0.94744  0.14404  1.0000
  H   H196      1.0  0.67617  0.03887  0.14159  1.0000
  H   H197      1.0  0.9178  0.0221  0.53229  1.0000
  H   H198      1.0  0.90798  0.03729  0.5964  1.0000
  H   H199      1.0  0.9119  0.0953  0.64118  1.0000
  H   H200      1.0  0.03981  0.08843  0.63869  1.0000
  H   H201      1.0  0.03605  0.03152  0.59352  1.0000
  H   H202      1.0  0.94744  0.14404  0.67661  1.0000
  H   H203      1.0  0.03887  0.14159  0.67617  1.0000
  H   H204      1.0  0.58219  0.02209  0.9677099999999998  1.0000
  H   H205      1.0  0.59201  0.03728  0.90361  1.0000
  H   H206      1.0  0.58811  0.09529  0.85883  1.0000
  H   H207      1.0  0.46019  0.08843  0.8613  1.0000
  H   H208      1.0  0.46394  0.03152  0.90647  1.0000
  H   H209      1.0  0.55252  0.14406  0.82339  1.0000
  H   H210      1.0  0.46107  0.14149  0.82387  1.0000
  H   H211      1.0  0.58219  0.4778899999999999  0.53228  1.0000
  H   H212      1.0  0.59201  0.46272  0.59639  1.0000
  H   H213      1.0  0.58814  0.40471  0.64116  1.0000
  H   H214      1.0  0.4602  0.41155  0.6387  1.0000
  H   H215      1.0  0.46395  0.46846  0.59353  1.0000
  H   H216      1.0  0.5525900000000001  0.35593  0.67663  1.0000
  H   H217      1.0  0.46122  0.35835  0.67622  1.0000
  H   H218      1.0  0.91781  0.4778899999999999  0.9676999999999999  1.0000
  H   H219      1.0  0.908  0.4627  0.9036  1.0000
  H   H220      1.0  0.9119  0.40469  0.85883  1.0000
  H   H221      1.0  0.03983  0.41156  0.86131  1.0000
  H   H222      1.0  0.03606  0.46848  0.90648  1.0000
  H   H223      1.0  0.94744  0.35594  0.8234  1.0000
  H   H224      1.0  0.03886  0.35835  0.82375  1.0000
  H   H225      1.0  0.02209  0.9677099999999998  0.58219  1.0000
  H   H226      1.0  0.03728  0.90361  0.59201  1.0000
  H   H227      1.0  0.09528  0.85883  0.58812  1.0000
  H   H228      1.0  0.08843  0.8613  0.46019  1.0000
  H   H229      1.0  0.03152  0.90647  0.46394  1.0000
  H   H230      1.0  0.14406  0.82339  0.55252  1.0000
  H   H231      1.0  0.14149  0.82386  0.46107  1.0000
  H   H232      1.0  0.0221  0.53228  0.9178  1.0000
  H   H233      1.0  0.03729  0.59639  0.90798  1.0000
  H   H234      1.0  0.0953  0.64117  0.9119  1.0000
  H   H235      1.0  0.08843  0.63869  0.03982  1.0000
  H   H236      1.0  0.03152  0.59352  0.03605  1.0000
  H   H237      1.0  0.14404  0.67661  0.94744  1.0000
  H   H238      1.0  0.14159  0.67617  0.03887  1.0000
  H   H239      1.0  0.4778899999999999  0.9676999999999999  0.91781  1.0000
  H   H240      1.0  0.4627  0.9036  0.908  1.0000
  H   H241      1.0  0.40469  0.85882  0.91191  1.0000
  H   H242      1.0  0.41156  0.86131  0.03983  1.0000
  H   H243      1.0  0.46848  0.90648  0.03606  1.0000
  H   H244      1.0  0.35594  0.8234  0.94744  1.0000
  H   H245      1.0  0.35835  0.82375  0.03886  1.0000
  H   H246      1.0  0.4778899999999999  0.53228  0.58219  1.0000
  H   H247      1.0  0.46272  0.59639  0.59201  1.0000
  H   H248      1.0  0.40471  0.64116  0.58814  1.0000
  H   H249      1.0  0.41155  0.6387  0.4602  1.0000
  H   H250      1.0  0.46846  0.59353  0.46395  1.0000
  H   H251      1.0  0.35593  0.67663  0.5525900000000001  1.0000
  H   H252      1.0  0.35835  0.67622  0.46122  1.0000
  H   H253      1.0  0.08219  0.03229  0.9778999999999999  1.0000
  H   H254      1.0  0.092  0.09639  0.9626999999999999  1.0000
  H   H255      1.0  0.08809  0.14117  0.9047  1.0000
  H   H256      1.0  0.96017  0.13869  0.91157  1.0000
  H   H257      1.0  0.9639399999999999  0.09352  0.96849  1.0000
  H   H258      1.0  0.05253000000000001  0.17659  0.85596  1.0000
  H   H259      1.0  0.96107  0.17617  0.85845  1.0000
  H   H260      1.0  0.4178  0.46772  0.9778999999999999  1.0000
  H   H261      1.0  0.40798  0.40361  0.96272  1.0000
  H   H262      1.0  0.41187  0.35883  0.90472  1.0000
  H   H263      1.0  0.53979  0.3613  0.91156  1.0000
  H   H264      1.0  0.53605  0.40647  0.96847  1.0000
  H   H265      1.0  0.44744  0.32337  0.85594  1.0000
  H   H266      1.0  0.53885  0.32385  0.85845  1.0000
  H   H267      1.0  0.41781  0.03229  0.5221  1.0000
  H   H268      1.0  0.408  0.09639  0.53728  1.0000
  H   H269      1.0  0.41188  0.14116  0.59529  1.0000
  H   H270      1.0  0.53981  0.1387  0.58845  1.0000
  H   H271      1.0  0.53606  0.09353  0.53153  1.0000
  H   H272      1.0  0.44744  0.17661  0.64407  1.0000
  H   H273      1.0  0.53884  0.17622  0.64161  1.0000
  H   H274      1.0  0.08219  0.46771  0.52211  1.0000
  H   H275      1.0  0.09201  0.4036  0.5373  1.0000
  H   H276      1.0  0.0881  0.35883  0.59531  1.0000
  H   H277      1.0  0.9601800000000001  0.36131  0.58844  1.0000
  H   H278      1.0  0.9639499999999999  0.40648  0.53153  1.0000
  H   H279      1.0  0.05259  0.32338  0.64406  1.0000
  H   H280      1.0  0.9612  0.32374  0.64169  1.0000
  H   H281      1.0  0.9778999999999999  0.0822  0.03229  1.0000
  H   H282      1.0  0.9626999999999999  0.09201  0.0964  1.0000
  H   H283      1.0  0.90469  0.08809  0.14118  1.0000
  H   H284      1.0  0.91157  0.96017  0.13869  1.0000
  H   H285      1.0  0.96848  0.9639399999999999  0.09352  1.0000
  H   H286      1.0  0.85596  0.05253000000000001  0.17659  1.0000
  H   H287      1.0  0.85845  0.96107  0.17618  1.0000
  H   H288      1.0  0.9778999999999999  0.4178  0.46772  1.0000
  H   H289      1.0  0.96272  0.40798  0.40361  1.0000
  H   H290      1.0  0.90472  0.41187  0.35883  1.0000
  H   H291      1.0  0.91156  0.5398  0.3613  1.0000
  H   H292      1.0  0.96847  0.53605  0.40647  1.0000
  H   H293      1.0  0.85594  0.44744  0.32337  1.0000
  H   H294      1.0  0.85845  0.53885  0.32386  1.0000
  H   H295      1.0  0.5221  0.41781  0.03229  1.0000
  H   H296      1.0  0.53728  0.408  0.09639  1.0000
  H   H297      1.0  0.59529  0.41188  0.14116  1.0000
  H   H298      1.0  0.58845  0.53982  0.1387  1.0000
  H   H299      1.0  0.53153  0.53606  0.09353  1.0000
  H   H300      1.0  0.64407  0.44744  0.17661  1.0000
  H   H301      1.0  0.64161  0.53885  0.17622  1.0000
  H   H302      1.0  0.52211  0.08219  0.46771  1.0000
  H   H303      1.0  0.5373  0.09201  0.40361  1.0000
  H   H304      1.0  0.5953  0.08811  0.35883  1.0000
  H   H305      1.0  0.58843  0.9601800000000001  0.36131  1.0000
  H   H306      1.0  0.53152  0.9639499999999999  0.40648  1.0000
  H   H307      1.0  0.64405  0.05259  0.32338  1.0000
  H   H308      1.0  0.64169  0.9612  0.32375  1.0000
  H   H309      1.0  0.03229  0.9778999999999999  0.0822  1.0000
  H   H310      1.0  0.09639  0.9626999999999999  0.09201  1.0000
  H   H311      1.0  0.14117  0.9047  0.08809  1.0000
  H   H312      1.0  0.13868  0.91157  0.96017  1.0000
  H   H313      1.0  0.09351  0.96848  0.9639399999999999  1.0000
  H   H314      1.0  0.17659  0.85596  0.05253000000000001  1.0000
  H   H315      1.0  0.17617  0.85845  0.96107  1.0000
  H   H316      1.0  0.46772  0.9778999999999999  0.4178  1.0000
  H   H317      1.0  0.40361  0.96272  0.40798  1.0000
  H   H318      1.0  0.35883  0.90472  0.41187  1.0000
  H   H319      1.0  0.3613  0.91156  0.5398  1.0000
  H   H320      1.0  0.40647  0.96847  0.53605  1.0000
  H   H321      1.0  0.32337  0.85594  0.44744  1.0000
  H   H322      1.0  0.32385  0.85845  0.53885  1.0000
  H   H323      1.0  0.03229  0.5221  0.41782  1.0000
  H   H324      1.0  0.09639  0.53728  0.408  1.0000
  H   H325      1.0  0.14116  0.59529  0.41188  1.0000
  H   H326      1.0  0.13869  0.58845  0.53982  1.0000
  H   H327      1.0  0.09353  0.53153  0.53606  1.0000
  H   H328      1.0  0.17661  0.64407  0.44745  1.0000
  H   H329      1.0  0.17622  0.64161  0.53885  1.0000
  H   H330      1.0  0.46771  0.52211  0.0822  1.0000
  H   H331      1.0  0.4036  0.5373  0.09201  1.0000
  H   H332      1.0  0.35883  0.59531  0.08811  1.0000
  H   H333      1.0  0.3613  0.58844  0.9601800000000001  1.0000
  H   H334      1.0  0.40647  0.53152  0.9639499999999999  1.0000
  H   H335      1.0  0.32338  0.64406  0.05259  1.0000
  H   H336      1.0  0.32374  0.64169  0.9612  1.0000
  C   C1        1.0  0.93975  0.9678399999999999  0.99836  1.0000
  C   C2        1.0  0.96956  0.93864  0.99797  1.0000
  C   C3        1.0  0.97165  0.90904  0.030289999999999997  1.0000
  C   C4        1.0  0.93692  0.89481  0.04875  1.0000
  C   C5        1.0  0.93909  0.8694  0.08129  1.0000
  C   C6        1.0  0.976  0.85699  0.09675  1.0000
  C   C7        1.0  0.01078  0.8704  0.07749  1.0000
  C   C8        1.0  0.00865  0.89577  0.04498  1.0000
  C   C9        1.0  0.9763599999999999  0.83162  0.13179  1.0000
  C   C10       1.0  0.00866  0.81756  0.15102  1.0000
  C   C11       1.0  0.00541  0.79262  0.18684  1.0000
  C   C12       1.0  0.56024  0.53215  0.99837  1.0000
  C   C13       1.0  0.53044  0.56135  0.99797  1.0000
  C   C14       1.0  0.52835  0.59096  0.030289999999999997  1.0000
  C   C15       1.0  0.56309  0.60519  0.04875  1.0000
  C   C16       1.0  0.56093  0.6306  0.08129  1.0000
  C   C17       1.0  0.52402  0.64303  0.09678  1.0000
  C   C18       1.0  0.4892500000000001  0.62961  0.07751  1.0000
  C   C19       1.0  0.49137  0.60423  0.04499000000000001  1.0000
  C   C20       1.0  0.52366  0.66842  0.13183  1.0000
  C   C21       1.0  0.49137999999999993  0.68247  0.15109  1.0000
  C   C22       1.0  0.4944700000000001  0.70755  0.18686  1.0000
  C   C23       1.0  0.56023  0.9678399999999999  0.50164  1.0000
  C   C24       1.0  0.53043  0.93864  0.50203  1.0000
  C   C25       1.0  0.52834  0.90903  0.4697  1.0000
  C   C26       1.0  0.56307  0.8948  0.45124000000000003  1.0000
  C   C27       1.0  0.5609  0.86938  0.41869  1.0000
  C   C28       1.0  0.52398  0.85692  0.40318  1.0000
  C   C29       1.0  0.48924  0.87039  0.42248  1.0000
  C   C30       1.0  0.49136  0.89576  0.45501  1.0000
  C   C31       1.0  0.5236  0.83151  0.36809  1.0000
  C   C32       1.0  0.49134  0.81741  0.34874  1.0000
  C   C33       1.0  0.49441  0.79266  0.31265  1.0000
  C   C34       1.0  0.93975  0.53216  0.50163  1.0000
  C   C35       1.0  0.96956  0.56136  0.50202  1.0000
  C   C36       1.0  0.97165  0.59097  0.4697  1.0000
  C   C37       1.0  0.93692  0.6052  0.45123  1.0000
  C   C38       1.0  0.9391  0.63062  0.41869  1.0000
  C   C39       1.0  0.9760099999999999  0.64306  0.40319  1.0000
  C   C40       1.0  0.01076  0.62961  0.42248  1.0000
  C   C41       1.0  0.00863  0.60424  0.45501  1.0000
  C   C42       1.0  0.9763499999999999  0.66848  0.3681  1.0000
  C   C43       1.0  0.00856  0.68259  0.34872  1.0000
  C   C44       1.0  0.00547  0.70744  0.31267  1.0000
  C   C45       1.0  0.99836  0.93975  0.9678399999999999  1.0000
  C   C46       1.0  0.99797  0.96956  0.93864  1.0000
  C   C47       1.0  0.030289999999999997  0.97165  0.90904  1.0000
  C   C48       1.0  0.04875  0.93692  0.89481  1.0000
  C   C49       1.0  0.08128  0.93909  0.8694  1.0000
  C   C50       1.0  0.09674  0.976  0.85699  1.0000
  C   C51       1.0  0.07749  0.01078  0.8704  1.0000
  C   C52       1.0  0.04497  0.00865  0.89577  1.0000
  C   C53       1.0  0.13178  0.9763599999999999  0.83162  1.0000
  C   C54       1.0  0.15102  0.00866  0.81756  1.0000
  C   C55       1.0  0.18684  0.00541  0.79262  1.0000
  C   C56       1.0  0.99836  0.56025  0.53215  1.0000
  C   C57       1.0  0.99797  0.53044  0.56135  1.0000
  C   C58       1.0  0.030289999999999997  0.52835  0.59096  1.0000
  C   C59       1.0  0.04874  0.56309  0.60519  1.0000
  C   C60       1.0  0.08128  0.56093  0.6306  1.0000
  C   C61       1.0  0.09677  0.52402  0.64303  1.0000
  C   C62       1.0  0.0775  0.4892500000000001  0.62961  1.0000
  C   C63       1.0  0.04498  0.49137  0.60423  1.0000
  C   C64       1.0  0.13183  0.52366  0.66842  1.0000
  C   C65       1.0  0.15108  0.49137999999999993  0.68248  1.0000
  C   C66       1.0  0.18686  0.4944700000000001  0.70755  1.0000
  C   C67       1.0  0.50163  0.56024  0.9678399999999999  1.0000
  C   C68       1.0  0.50203  0.53043  0.93864  1.0000
  C   C69       1.0  0.4697  0.52834  0.90903  1.0000
  C   C70       1.0  0.45124000000000003  0.56307  0.8948  1.0000
  C   C71       1.0  0.41868  0.5609  0.86938  1.0000
  C   C72       1.0  0.40317  0.52398  0.85693  1.0000
  C   C73       1.0  0.42247  0.48924  0.87039  1.0000
  C   C74       1.0  0.455  0.49136  0.89576  1.0000
  C   C75       1.0  0.36808  0.5236  0.83151  1.0000
  C   C76       1.0  0.34874  0.49134  0.81741  1.0000
  C   C77       1.0  0.31265  0.49441  0.79266  1.0000
  C   C78       1.0  0.50162  0.93975  0.53216  1.0000
  C   C79       1.0  0.50202  0.96956  0.56136  1.0000
  C   C80       1.0  0.46969  0.97165  0.59097  1.0000
  C   C81       1.0  0.45123  0.93692  0.6052  1.0000
  C   C82       1.0  0.41868  0.9391  0.63062  1.0000
  C   C83       1.0  0.40318  0.9760099999999999  0.64306  1.0000
  C   C84       1.0  0.42248  0.01076  0.62961  1.0000
  C   C85       1.0  0.455  0.00863  0.60424  1.0000
  C   C86       1.0  0.3681  0.9763499999999999  0.66848  1.0000
  C   C87       1.0  0.3487100000000001  0.00856  0.6826  1.0000
  C   C88       1.0  0.31267  0.00547  0.70744  1.0000
  C   C89       1.0  0.9678399999999999  0.99836  0.93975  1.0000
  C   C90       1.0  0.93864  0.99797  0.96956  1.0000
  C   C91       1.0  0.90904  0.030289999999999997  0.97166  1.0000
  C   C92       1.0  0.89481  0.04875  0.93692  1.0000
  C   C93       1.0  0.8694  0.08128  0.93909  1.0000
  C   C94       1.0  0.85698  0.09675  0.976  1.0000
  C   C95       1.0  0.8704  0.07749  0.01078  1.0000
  C   C96       1.0  0.89577  0.04498  0.00865  1.0000
  C   C97       1.0  0.83161  0.13178  0.9763599999999999  1.0000
  C   C98       1.0  0.81756  0.15102  0.00866  1.0000
  C   C99       1.0  0.79262  0.18684  0.00542  1.0000
  C   C100      1.0  0.53215  0.99836  0.56025  1.0000
  C   C101      1.0  0.56134  0.99797  0.53044  1.0000
  C   C102      1.0  0.59096  0.030289999999999997  0.52836  1.0000
  C   C103      1.0  0.60519  0.04874  0.56309  1.0000
  C   C104      1.0  0.6306  0.08129  0.56093  1.0000
  C   C105      1.0  0.64303  0.09678  0.52403  1.0000
  C   C106      1.0  0.62961  0.07751  0.4892500000000001  1.0000
  C   C107      1.0  0.60423  0.04498  0.49137  1.0000
  C   C108      1.0  0.66842  0.13183  0.52366  1.0000
  C   C109      1.0  0.68247  0.15108  0.49137999999999993  1.0000
  C   C110      1.0  0.70754  0.18686  0.4944700000000001  1.0000
  C   C111      1.0  0.9678399999999999  0.50163  0.56024  1.0000
  C   C112      1.0  0.93864  0.50203  0.53043  1.0000
  C   C113      1.0  0.90903  0.4697  0.52835  1.0000
  C   C114      1.0  0.8948  0.45124000000000003  0.56307  1.0000
  C   C115      1.0  0.86937  0.41868  0.5609  1.0000
  C   C116      1.0  0.85692  0.40318  0.52399  1.0000
  C   C117      1.0  0.87038  0.42247  0.48924  1.0000
  C   C118      1.0  0.89576  0.45501  0.49136  1.0000
  C   C119      1.0  0.83151  0.36808  0.52361  1.0000
  C   C120      1.0  0.81741  0.34874  0.49134  1.0000
  C   C121      1.0  0.79266  0.31265  0.49441  1.0000
  C   C122      1.0  0.53216  0.50162  0.93975  1.0000
  C   C123      1.0  0.56135  0.50202  0.96956  1.0000
  C   C124      1.0  0.59096  0.46969  0.97165  1.0000
  C   C125      1.0  0.60519  0.45123  0.93692  1.0000
  C   C126      1.0  0.63061  0.41868  0.9391  1.0000
  C   C127      1.0  0.64306  0.40319  0.9760099999999999  1.0000
  C   C128      1.0  0.62961  0.42248  0.01076  1.0000
  C   C129      1.0  0.60424  0.45501  0.00863  1.0000
  C   C130      1.0  0.66848  0.3681  0.9763499999999999  1.0000
  C   C131      1.0  0.68259  0.34872  0.00857  1.0000
  C   C132      1.0  0.70744  0.31267  0.00547  1.0000
  C   C133      1.0  0.03216  0.060239999999999995  0.49837  1.0000
  C   C134      1.0  0.06136  0.030430000000000002  0.49797  1.0000
  C   C135      1.0  0.09097  0.02834  0.5303  1.0000
  C   C136      1.0  0.1052  0.06307  0.54877  1.0000
  C   C137      1.0  0.13062  0.06088999999999999  0.58132  1.0000
  C   C138      1.0  0.14306  0.02397  0.5968  1.0000
  C   C139      1.0  0.12961  0.98922  0.57751  1.0000
  C   C140      1.0  0.10423  0.99135  0.54499  1.0000
  C   C141      1.0  0.16847  0.02361  0.63189  1.0000
  C   C142      1.0  0.18258  0.9913600000000001  0.65124  1.0000
  C   C143      1.0  0.20732  0.99452  0.68733  1.0000
  C   C144      1.0  0.46784  0.43975  0.49837  1.0000
  C   C145      1.0  0.43865  0.46956  0.49798  1.0000
  C   C146      1.0  0.40903000000000006  0.47165  0.5303  1.0000
  C   C147      1.0  0.3948  0.43692  0.54876  1.0000
  C   C148      1.0  0.36938000000000004  0.43909  0.58131  1.0000
  C   C149      1.0  0.35692  0.47599  0.59683  1.0000
  C   C150      1.0  0.37038  0.51074  0.57753  1.0000
  C   C151      1.0  0.39576  0.50863  0.545  1.0000
  C   C152      1.0  0.3315  0.47635  0.6319200000000001  1.0000
  C   C153      1.0  0.3174  0.50858  0.65128  1.0000
  C   C154      1.0  0.29256  0.50557  0.68733  1.0000
  C   C155      1.0  0.03215  0.43976  0.00164  1.0000
  C   C156      1.0  0.061349999999999995  0.46957  0.00204  1.0000
  C   C157      1.0  0.09096  0.47165  0.96971  1.0000
  C   C158      1.0  0.10519  0.43691  0.95126  1.0000
  C   C159      1.0  0.1306  0.43908  0.91871  1.0000
  C   C160      1.0  0.14303  0.47599  0.90323  1.0000
  C   C161      1.0  0.1296  0.51076  0.9225  1.0000
  C   C162      1.0  0.10423  0.50864  0.95502  1.0000
  C   C163      1.0  0.1684  0.4763800000000001  0.86818  1.0000
  C   C164      1.0  0.18244  0.5087  0.84897  1.0000
  C   C165      1.0  0.2074  0.50557  0.81313  1.0000
  C   C166      1.0  0.46784  0.06024999999999999  0.00163  1.0000
  C   C167      1.0  0.43865  0.03044  0.00203  1.0000
  C   C168      1.0  0.40903000000000006  0.02835  0.96971  1.0000
  C   C169      1.0  0.39481  0.06308  0.95125  1.0000
  C   C170      1.0  0.36940000000000006  0.060919999999999995  0.91871  1.0000
  C   C171      1.0  0.35698  0.02401  0.90324  1.0000
  C   C172      1.0  0.3704  0.9892300000000002  0.9225  1.0000
  C   C173      1.0  0.39577  0.9913600000000001  0.95502  1.0000
  C   C174      1.0  0.3316  0.02367  0.8682  1.0000
  C   C175      1.0  0.31753  0.99139  0.84893  1.0000
  C   C176      1.0  0.29246  0.99457  0.81317  1.0000
  C   C177      1.0  0.06024999999999999  0.00163  0.46784  1.0000
  C   C178      1.0  0.03044  0.00202  0.43865  1.0000
  C   C179      1.0  0.02835  0.9697  0.40904000000000007  1.0000
  C   C180      1.0  0.06308  0.95125  0.39481  1.0000
  C   C181      1.0  0.06091  0.91871  0.36940000000000006  1.0000
  C   C182      1.0  0.02401  0.90324  0.35698  1.0000
  C   C183      1.0  0.9892300000000002  0.9225  0.3704  1.0000
  C   C184      1.0  0.9913600000000001  0.95502  0.39577  1.0000
  C   C185      1.0  0.02367  0.8682  0.33161  1.0000
  C   C186      1.0  0.99139  0.84893  0.31754  1.0000
  C   C187      1.0  0.99456  0.81317  0.29246  1.0000
  C   C188      1.0  0.43976  0.00164  0.03215  1.0000
  C   C189      1.0  0.46957  0.00203  0.061349999999999995  1.0000
  C   C190      1.0  0.47165  0.96971  0.09097  1.0000
  C   C191      1.0  0.43691  0.95126  0.10519  1.0000
  C   C192      1.0  0.43908  0.91871  0.13061  1.0000
  C   C193      1.0  0.47599  0.90323  0.14303  1.0000
  C   C194      1.0  0.51076  0.9225  0.1296  1.0000
  C   C195      1.0  0.50864  0.95502  0.10424  1.0000
  C   C196      1.0  0.4763800000000001  0.86818  0.1684  1.0000
  C   C197      1.0  0.5087  0.84896  0.18244  1.0000
  C   C198      1.0  0.50557  0.81313  0.2074  1.0000
  C   C199      1.0  0.43975  0.49837  0.46785  1.0000
  C   C200      1.0  0.46956  0.49797  0.43865  1.0000
  C   C201      1.0  0.47165  0.5303  0.40904000000000007  1.0000
  C   C202      1.0  0.43692  0.54876  0.3948  1.0000
  C   C203      1.0  0.43908  0.58131  0.36938000000000004  1.0000
  C   C204      1.0  0.47599  0.59683  0.35692  1.0000
  C   C205      1.0  0.51074  0.57753  0.37038  1.0000
  C   C206      1.0  0.50863  0.545  0.39576  1.0000
  C   C207      1.0  0.47635  0.63191  0.33151  1.0000
  C   C208      1.0  0.50858  0.65128  0.31741  1.0000
  C   C209      1.0  0.50556  0.68732  0.29257  1.0000
  C   C210      1.0  0.060239999999999995  0.49837  0.03216  1.0000
  C   C211      1.0  0.030430000000000002  0.49797  0.06136  1.0000
  C   C212      1.0  0.02834  0.5303  0.09097  1.0000
  C   C213      1.0  0.06307  0.54877  0.1052  1.0000
  C   C214      1.0  0.06088999999999999  0.58131  0.13062  1.0000
  C   C215      1.0  0.02397  0.5968  0.14306  1.0000
  C   C216      1.0  0.98922  0.57751  0.12961  1.0000
  C   C217      1.0  0.99135  0.54499  0.10424  1.0000
  C   C218      1.0  0.02361  0.6318800000000001  0.16847  1.0000
  C   C219      1.0  0.9913600000000001  0.65124  0.18258  1.0000
  C   C220      1.0  0.99452  0.68733  0.20732  1.0000
  C   C221      1.0  0.00164  0.03215  0.43976  1.0000
  C   C222      1.0  0.00203  0.061349999999999995  0.46957  1.0000
  C   C223      1.0  0.96971  0.09097  0.47165  1.0000
  C   C224      1.0  0.95125  0.10519  0.43692  1.0000
  C   C225      1.0  0.91871  0.1306  0.43908  1.0000
  C   C226      1.0  0.90323  0.14303  0.47599  1.0000
  C   C227      1.0  0.9225  0.1296  0.51076  1.0000
  C   C228      1.0  0.95502  0.10423  0.50864  1.0000
  C   C229      1.0  0.86818  0.1684  0.4763800000000001  1.0000
  C   C230      1.0  0.84896  0.18244  0.5087  1.0000
  C   C231      1.0  0.81312  0.2074  0.50557  1.0000
  C   C232      1.0  0.00163  0.46784  0.06024999999999999  1.0000
  C   C233      1.0  0.00202  0.43865  0.03044  1.0000
  C   C234      1.0  0.9697  0.40904000000000007  0.02835  1.0000
  C   C235      1.0  0.95125  0.39481  0.06309  1.0000
  C   C236      1.0  0.91871  0.36940000000000006  0.060919999999999995  1.0000
  C   C237      1.0  0.90324  0.35698  0.02401  1.0000
  C   C238      1.0  0.9225  0.3704  0.9892400000000001  1.0000
  C   C239      1.0  0.95502  0.39577  0.9913600000000001  1.0000
  C   C240      1.0  0.8682  0.33161  0.02367  1.0000
  C   C241      1.0  0.84892  0.31754  0.9914  1.0000
  C   C242      1.0  0.81317  0.29246  0.99457  1.0000
  C   C243      1.0  0.49837  0.03216  0.060239999999999995  1.0000
  C   C244      1.0  0.49797  0.06136  0.030430000000000002  1.0000
  C   C245      1.0  0.5303  0.09097  0.02834  1.0000
  C   C246      1.0  0.54877  0.1052  0.06307  1.0000
  C   C247      1.0  0.58131  0.13062  0.06088999999999999  1.0000
  C   C248      1.0  0.5968  0.14306  0.02398  1.0000
  C   C249      1.0  0.57751  0.12961  0.9892300000000002  1.0000
  C   C250      1.0  0.54498  0.10423  0.99135  1.0000
  C   C251      1.0  0.6318800000000001  0.16847  0.02361  1.0000
  C   C252      1.0  0.65124  0.18258  0.9913699999999999  1.0000
  C   C253      1.0  0.68732  0.20732  0.99452  1.0000
  C   C254      1.0  0.49837  0.46785  0.43976  1.0000
  C   C255      1.0  0.49797  0.43865  0.46957  1.0000
  C   C256      1.0  0.5303  0.40903000000000006  0.47165  1.0000
  C   C257      1.0  0.54876  0.3948  0.43692  1.0000
  C   C258      1.0  0.58131  0.36938000000000004  0.43909  1.0000
  C   C259      1.0  0.59682  0.35692  0.47599  1.0000
  C   C260      1.0  0.57753  0.37038  0.51074  1.0000
  C   C261      1.0  0.545  0.39576  0.50863  1.0000
  C   C262      1.0  0.63191  0.33151  0.47635  1.0000
  C   C263      1.0  0.65128  0.31741  0.50858  1.0000
  C   C264      1.0  0.68732  0.29256  0.50557  1.0000
  C   C265      1.0  0.96783  0.93976  0.50163  1.0000
  C   C266      1.0  0.93864  0.9695699999999999  0.50203  1.0000
  C   C267      1.0  0.90903  0.97166  0.4697  1.0000
  C   C268      1.0  0.8948  0.93693  0.45123  1.0000
  C   C269      1.0  0.86938  0.93911  0.41869  1.0000
  C   C270      1.0  0.85693  0.9760199999999999  0.4032  1.0000
  C   C271      1.0  0.87039  0.01077  0.42249  1.0000
  C   C272      1.0  0.89576  0.00865  0.45501  1.0000
  C   C273      1.0  0.83152  0.97639  0.36812  1.0000
  C   C274      1.0  0.81742  0.00863  0.34876  1.0000
  C   C275      1.0  0.79268  0.00547  0.31267  1.0000
  C   C276      1.0  0.53215  0.56024  0.50163  1.0000
  C   C277      1.0  0.56135  0.53043  0.50203  1.0000
  C   C278      1.0  0.59096  0.52835  0.4697  1.0000
  C   C279      1.0  0.6052  0.56308  0.45124000000000003  1.0000
  C   C280      1.0  0.63062  0.56091  0.41869  1.0000
  C   C281      1.0  0.64307  0.52401  0.40317  1.0000
  C   C282      1.0  0.62962  0.48926000000000003  0.42247  1.0000
  C   C283      1.0  0.60424  0.49137  0.455  1.0000
  C   C284      1.0  0.66849  0.52365  0.36809  1.0000
  C   C285      1.0  0.68259  0.49141999999999997  0.34872  1.0000
  C   C286      1.0  0.70743  0.49443000000000004  0.31268  1.0000
  C   C287      1.0  0.9678399999999999  0.56024  0.99836  1.0000
  C   C288      1.0  0.93864  0.53043  0.99797  1.0000
  C   C289      1.0  0.90903  0.52835  0.030289999999999997  1.0000
  C   C290      1.0  0.89481  0.56308  0.04875  1.0000
  C   C291      1.0  0.86939  0.56092  0.08129  1.0000
  C   C292      1.0  0.85697  0.52401  0.09677  1.0000
  C   C293      1.0  0.8704  0.48924  0.0775  1.0000
  C   C294      1.0  0.89576  0.49136  0.04498  1.0000
  C   C295      1.0  0.83159  0.52362  0.13182  1.0000
  C   C296      1.0  0.81756  0.49130000000000007  0.15104  1.0000
  C   C297      1.0  0.7926  0.49443000000000004  0.18687  1.0000
  C   C298      1.0  0.53215  0.93974  0.99837  1.0000
  C   C299      1.0  0.56135  0.96956  0.99798  1.0000
  C   C300      1.0  0.59096  0.97165  0.0303  1.0000
  C   C301      1.0  0.60519  0.93691  0.04875  1.0000
  C   C302      1.0  0.6306  0.93908  0.08129  1.0000
  C   C303      1.0  0.64301  0.97599  0.09676  1.0000
  C   C304      1.0  0.6296  0.01076  0.0775  1.0000
  C   C305      1.0  0.60423  0.00864  0.04498  1.0000
  C   C306      1.0  0.66839  0.97633  0.13181  1.0000
  C   C307      1.0  0.68246  0.0086  0.15107  1.0000
  C   C308      1.0  0.70754  0.00543  0.18683  1.0000
  C   C309      1.0  0.93974  0.99837  0.53216  1.0000
  C   C310      1.0  0.96955  0.99797  0.56135  1.0000
  C   C311      1.0  0.97165  0.030289999999999997  0.59097  1.0000
  C   C312      1.0  0.93691  0.04875  0.60519  1.0000
  C   C313      1.0  0.93908  0.08128  0.6306  1.0000
  C   C314      1.0  0.9759799999999998  0.09676  0.64302  1.0000
  C   C315      1.0  0.01076  0.0775  0.6296  1.0000
  C   C316      1.0  0.00863  0.04498  0.60423  1.0000
  C   C317      1.0  0.97633  0.1318  0.6684  1.0000
  C   C318      1.0  0.0086  0.15107  0.68246  1.0000
  C   C319      1.0  0.00543  0.18683  0.70754  1.0000
  C   C320      1.0  0.56024  0.99836  0.9678499999999999  1.0000
  C   C321      1.0  0.53043  0.9979600000000001  0.93865  1.0000
  C   C322      1.0  0.52835  0.030289999999999997  0.90903  1.0000
  C   C323      1.0  0.56308  0.04874  0.89481  1.0000
  C   C324      1.0  0.56092  0.08129  0.8694  1.0000
  C   C325      1.0  0.52401  0.09676  0.85697  1.0000
  C   C326      1.0  0.48924  0.0775  0.8704  1.0000
  C   C327      1.0  0.49136  0.04498  0.89577  1.0000
  C   C328      1.0  0.52362  0.13182  0.8316  1.0000
  C   C329      1.0  0.49130000000000007  0.15103  0.81756  1.0000
  C   C330      1.0  0.49443000000000004  0.18687  0.7926  1.0000
  C   C331      1.0  0.56024  0.50163  0.53215  1.0000
  C   C332      1.0  0.53043  0.50202  0.56135  1.0000
  C   C333      1.0  0.52835  0.4697  0.59097  1.0000
  C   C334      1.0  0.56308  0.45124000000000003  0.6052  1.0000
  C   C335      1.0  0.56091  0.41869  0.63062  1.0000
  C   C336      1.0  0.52401  0.40317  0.64308  1.0000
  C   C337      1.0  0.4892500000000001  0.42247  0.62962  1.0000
  C   C338      1.0  0.49137  0.455  0.60424  1.0000
  C   C339      1.0  0.52365  0.36808  0.66849  1.0000
  C   C340      1.0  0.49141999999999997  0.34872  0.68259  1.0000
  C   C341      1.0  0.49443000000000004  0.31267  0.70743  1.0000
  C   C342      1.0  0.93975  0.50163  0.9678399999999999  1.0000
  C   C343      1.0  0.96956  0.50202  0.93864  1.0000
  C   C344      1.0  0.97165  0.4697  0.90903  1.0000
  C   C345      1.0  0.93693  0.45123  0.8948  1.0000
  C   C346      1.0  0.93911  0.41868  0.86938  1.0000
  C   C347      1.0  0.9760199999999999  0.40319  0.85694  1.0000
  C   C348      1.0  0.01077  0.42248  0.87039  1.0000
  C   C349      1.0  0.00864  0.45501  0.89576  1.0000
  C   C350      1.0  0.97639  0.36811  0.83153  1.0000
  C   C351      1.0  0.00863  0.34876  0.81742  1.0000
  C   C352      1.0  0.00547  0.31267  0.79268  1.0000
  C   C353      1.0  0.99836  0.9678399999999999  0.56024  1.0000
  C   C354      1.0  0.9979600000000001  0.93864  0.53043  1.0000
  C   C355      1.0  0.03028  0.90903  0.52835  1.0000
  C   C356      1.0  0.04874  0.89481  0.56308  1.0000
  C   C357      1.0  0.08128  0.86939  0.56092  1.0000
  C   C358      1.0  0.09676  0.85697  0.52401  1.0000
  C   C359      1.0  0.0775  0.8704  0.48924  1.0000
  C   C360      1.0  0.04497  0.89576  0.49136  1.0000
  C   C361      1.0  0.13182  0.8316  0.52362  1.0000
  C   C362      1.0  0.15103  0.81756  0.49130000000000007  1.0000
  C   C363      1.0  0.18687  0.7926  0.49443000000000004  1.0000
  C   C364      1.0  0.99837  0.53215  0.93975  1.0000
  C   C365      1.0  0.99797  0.56135  0.96956  1.0000
  C   C366      1.0  0.030289999999999997  0.59096  0.97165  1.0000
  C   C367      1.0  0.04874  0.60519  0.93691  1.0000
  C   C368      1.0  0.08128  0.6306  0.93908  1.0000
  C   C369      1.0  0.09676  0.64301  0.97599  1.0000
  C   C370      1.0  0.0775  0.6296  0.01076  1.0000
  C   C371      1.0  0.04498  0.60423  0.00864  1.0000
  C   C372      1.0  0.1318  0.66839  0.97633  1.0000
  C   C373      1.0  0.15107  0.68246  0.0086  1.0000
  C   C374      1.0  0.18683  0.70754  0.00543  1.0000
  C   C375      1.0  0.50163  0.96783  0.93976  1.0000
  C   C376      1.0  0.50202  0.93864  0.9695699999999999  1.0000
  C   C377      1.0  0.4697  0.90903  0.97166  1.0000
  C   C378      1.0  0.45123  0.8948  0.93693  1.0000
  C   C379      1.0  0.41868  0.86938  0.93911  1.0000
  C   C380      1.0  0.40319  0.85693  0.9760299999999998  1.0000
  C   C381      1.0  0.42248  0.87039  0.01078  1.0000
  C   C382      1.0  0.45501  0.89576  0.00865  1.0000
  C   C383      1.0  0.36811  0.83152  0.97639  1.0000
  C   C384      1.0  0.34876  0.81742  0.00863  1.0000
  C   C385      1.0  0.31267  0.79268  0.00548  1.0000
  C   C386      1.0  0.50163  0.53215  0.56025  1.0000
  C   C387      1.0  0.50202  0.56135  0.53044  1.0000
  C   C388      1.0  0.4697  0.59096  0.52835  1.0000
  C   C389      1.0  0.45124000000000003  0.6052  0.56308  1.0000
  C   C390      1.0  0.41868  0.63062  0.56091  1.0000
  C   C391      1.0  0.40317  0.64307  0.52401  1.0000
  C   C392      1.0  0.42247  0.62962  0.48926000000000003  1.0000
  C   C393      1.0  0.455  0.60424  0.49137  1.0000
  C   C394      1.0  0.36808  0.66849  0.52365  1.0000
  C   C395      1.0  0.34872  0.68259  0.49141999999999997  1.0000
  C   C396      1.0  0.31267  0.70743  0.49444  1.0000
  C   C397      1.0  0.06024999999999999  0.03216  0.00164  1.0000
  C   C398      1.0  0.03044  0.06136  0.00203  1.0000
  C   C399      1.0  0.02834  0.09096  0.96971  1.0000
  C   C400      1.0  0.06307  0.10518  0.95125  1.0000
  C   C401      1.0  0.06091  0.1306  0.91872  1.0000
  C   C402      1.0  0.024  0.14301  0.90325  1.0000
  C   C403      1.0  0.98922  0.12959  0.92251  1.0000
  C   C404      1.0  0.99135  0.10422  0.95502  1.0000
  C   C405      1.0  0.02363  0.16838  0.86822  1.0000
  C   C406      1.0  0.99133  0.18244  0.84898  1.0000
  C   C407      1.0  0.9945800000000001  0.20738  0.81316  1.0000
  C   C408      1.0  0.43975  0.46785  0.00163  1.0000
  C   C409      1.0  0.46956  0.43865  0.00203  1.0000
  C   C410      1.0  0.47164  0.40904000000000007  0.96971  1.0000
  C   C411      1.0  0.43691  0.39481  0.95126  1.0000
  C   C412      1.0  0.43907  0.36939000000000005  0.91871  1.0000
  C   C413      1.0  0.47597  0.35697  0.90322  1.0000
  C   C414      1.0  0.51074  0.37039  0.92249  1.0000
  C   C415      1.0  0.50863  0.39576  0.95502  1.0000
  C   C416      1.0  0.47633  0.33158  0.86817  1.0000
  C   C417      1.0  0.50862  0.31752  0.84892  1.0000
  C   C418      1.0  0.50553  0.29245  0.81314  1.0000
  C   C419      1.0  0.43976  0.03216  0.49837  1.0000
  C   C420      1.0  0.46957  0.06136  0.49797  1.0000
  C   C421      1.0  0.47165  0.09097  0.5303  1.0000
  C   C422      1.0  0.43692  0.1052  0.54876  1.0000
  C   C423      1.0  0.4391  0.13062  0.58132  1.0000
  C   C424      1.0  0.47600999999999993  0.14307  0.59682  1.0000
  C   C425      1.0  0.51076  0.12961  0.57753  1.0000
  C   C426      1.0  0.50864  0.10424  0.54499  1.0000
  C   C427      1.0  0.47639000000000004  0.16849  0.6319200000000001  1.0000
  C   C428      1.0  0.50866  0.18258  0.65126  1.0000
  C   C429      1.0  0.50559  0.20734  0.68735  1.0000
  C   C430      1.0  0.06024999999999999  0.46784  0.49837  1.0000
  C   C431      1.0  0.03044  0.43864  0.49798  1.0000
  C   C432      1.0  0.02835  0.40903000000000006  0.5303  1.0000
  C   C433      1.0  0.06308  0.3948  0.54877  1.0000
  C   C434      1.0  0.0609  0.36938000000000004  0.58132  1.0000
  C   C435      1.0  0.02399  0.35694  0.59681  1.0000
  C   C436      1.0  0.9892400000000001  0.37039  0.57752  1.0000
  C   C437      1.0  0.9913600000000001  0.39576  0.545  1.0000
  C   C438      1.0  0.02365  0.33152  0.6319000000000001  1.0000
  C   C439      1.0  0.99143  0.3174  0.65129  1.0000
  C   C440      1.0  0.9945300000000001  0.29256  0.68733  1.0000
  C   C441      1.0  0.00164  0.06024999999999999  0.03216  1.0000
  C   C442      1.0  0.00203  0.03044  0.06136  1.0000
  C   C443      1.0  0.96971  0.02835  0.09096  1.0000
  C   C444      1.0  0.95125  0.06308  0.10519  1.0000
  C   C445      1.0  0.91872  0.06091  0.1306  1.0000
  C   C446      1.0  0.90325  0.024  0.14302  1.0000
  C   C447      1.0  0.9225  0.98922  0.1296  1.0000
  C   C448      1.0  0.95502  0.99135  0.10423  1.0000
  C   C449      1.0  0.86821  0.02364  0.16838  1.0000
  C   C450      1.0  0.84898  0.99134  0.18244  1.0000
  C   C451      1.0  0.81315  0.9945800000000001  0.20738  1.0000
  C   C452      1.0  0.00163  0.43975  0.46785  1.0000
  C   C453      1.0  0.00203  0.46956  0.43865  1.0000
  C   C454      1.0  0.96971  0.47164  0.40904000000000007  1.0000
  C   C455      1.0  0.95125  0.43691  0.39481  1.0000
  C   C456      1.0  0.91871  0.43907  0.36940000000000006  1.0000
  C   C457      1.0  0.90322  0.47597  0.35697  1.0000
  C   C458      1.0  0.92249  0.51075  0.37039  1.0000
  C   C459      1.0  0.95501  0.50863  0.39577  1.0000
  C   C460      1.0  0.86817  0.47634000000000004  0.33158  1.0000
  C   C461      1.0  0.84891  0.50862  0.31753  1.0000
  C   C462      1.0  0.81314  0.50553  0.29246  1.0000
  C   C463      1.0  0.49836  0.43976  0.03216  1.0000
  C   C464      1.0  0.49797  0.46957  0.06136  1.0000
  C   C465      1.0  0.5303  0.47166  0.09097  1.0000
  C   C466      1.0  0.54876  0.43693  0.1052  1.0000
  C   C467      1.0  0.58131  0.4391  0.13062  1.0000
  C   C468      1.0  0.59682  0.47600999999999993  0.14308  1.0000
  C   C469      1.0  0.57752  0.51076  0.12961  1.0000
  C   C470      1.0  0.54499  0.50864  0.10424  1.0000
  C   C471      1.0  0.63191  0.47639000000000004  0.16849  1.0000
  C   C472      1.0  0.65126  0.50866  0.18259  1.0000
  C   C473      1.0  0.68735  0.50559  0.20734  1.0000
  C   C474      1.0  0.49837  0.06024999999999999  0.46784  1.0000
  C   C475      1.0  0.49798  0.03044  0.43864  1.0000
  C   C476      1.0  0.5303  0.02835  0.40903000000000006  1.0000
  C   C477      1.0  0.54877  0.06308  0.3948  1.0000
  C   C478      1.0  0.58131  0.0609  0.36938000000000004  1.0000
  C   C479      1.0  0.59681  0.02399  0.35694  1.0000
  C   C480      1.0  0.57752  0.9892400000000001  0.37039  1.0000
  C   C481      1.0  0.54499  0.9913699999999999  0.39576  1.0000
  C   C482      1.0  0.6319000000000001  0.02365  0.33152  1.0000
  C   C483      1.0  0.65128  0.99143  0.31741  1.0000
  C   C484      1.0  0.68732  0.9945300000000001  0.29256  1.0000
  C   C485      1.0  0.03216  0.00164  0.06024999999999999  1.0000
  C   C486      1.0  0.06136  0.00203  0.03044  1.0000
  C   C487      1.0  0.09096  0.96971  0.02835  1.0000
  C   C488      1.0  0.10518  0.95125  0.06308  1.0000
  C   C489      1.0  0.1306  0.91872  0.06091  1.0000
  C   C490      1.0  0.14301  0.90325  0.024  1.0000
  C   C491      1.0  0.12959  0.9225  0.98922  1.0000
  C   C492      1.0  0.10422  0.95502  0.99135  1.0000
  C   C493      1.0  0.16838  0.86822  0.02364  1.0000
  C   C494      1.0  0.18244  0.84898  0.99134  1.0000
  C   C495      1.0  0.20737  0.81315  0.9945800000000001  1.0000
  C   C496      1.0  0.46785  0.00163  0.43975  1.0000
  C   C497      1.0  0.43865  0.00203  0.46956  1.0000
  C   C498      1.0  0.40903000000000006  0.96971  0.47164  1.0000
  C   C499      1.0  0.39481  0.95125  0.43691  1.0000
  C   C500      1.0  0.36939000000000005  0.91871  0.43907  1.0000
  C   C501      1.0  0.35697  0.90322  0.47597999999999996  1.0000
  C   C502      1.0  0.37039  0.92249  0.51075  1.0000
  C   C503      1.0  0.39576  0.95501  0.50863  1.0000
  C   C504      1.0  0.33158  0.86817  0.47634000000000004  1.0000
  C   C505      1.0  0.31752  0.84891  0.50862  1.0000
  C   C506      1.0  0.29245  0.81314  0.50553  1.0000
  C   C507      1.0  0.03216  0.49836  0.43976  1.0000
  C   C508      1.0  0.06136  0.49797  0.46957  1.0000
  C   C509      1.0  0.09097  0.5303  0.47166  1.0000
  C   C510      1.0  0.1052  0.54876  0.43693  1.0000
  C   C511      1.0  0.13062  0.58132  0.4391  1.0000
  C   C512      1.0  0.14307  0.59682  0.47600999999999993  1.0000
  C   C513      1.0  0.12961  0.57752  0.51076  1.0000
  C   C514      1.0  0.10424  0.54499  0.50864  1.0000
  C   C515      1.0  0.16849  0.63191  0.4764  1.0000
  C   C516      1.0  0.18258  0.65126  0.50866  1.0000
  C   C517      1.0  0.20733  0.68735  0.50559  1.0000
  C   C518      1.0  0.46784  0.49837  0.06024999999999999  1.0000
  C   C519      1.0  0.43864  0.49798  0.03044  1.0000
  C   C520      1.0  0.40903000000000006  0.5303  0.02835  1.0000
  C   C521      1.0  0.3948  0.54877  0.06308  1.0000
  C   C522      1.0  0.36938000000000004  0.58132  0.0609  1.0000
  C   C523      1.0  0.35694  0.59681  0.02399  1.0000
  C   C524      1.0  0.37038  0.57752  0.9892400000000001  1.0000
  C   C525      1.0  0.39576  0.54499  0.9913699999999999  1.0000
  C   C526      1.0  0.33152  0.6319000000000001  0.02365  1.0000
  C   C527      1.0  0.3174  0.65128  0.99143  1.0000
  C   C528      1.0  0.29256  0.68732  0.9945300000000001  1.0000
  O   O1        1.0  0.03889  0.78189  0.20203  1.0000
  O   O2        1.0  0.97094  0.78362  0.20024  1.0000
  O   O3        1.0  0.46079  0.71768  0.20214  1.0000
  O   O4        1.0  0.52887  0.71722  0.20008  1.0000
  O   O5        1.0  0.46084  0.78202  0.29741  1.0000
  O   O6        1.0  0.52887  0.78378  0.29907  1.0000
  O   O7        1.0  0.03902  0.7176  0.29722  1.0000
  O   O8        1.0  0.97115  0.71697  0.29922  1.0000
  O   O9        1.0  0.20203  0.0389  0.78189  1.0000
  O   O10       1.0  0.20024  0.97094  0.78362  1.0000
  O   O11       1.0  0.20214  0.46079  0.71768  1.0000
  O   O12       1.0  0.20008  0.52887  0.71722  1.0000
  O   O13       1.0  0.29741  0.46084  0.78202  1.0000
  O   O14       1.0  0.29906  0.52887  0.78378  1.0000
  O   O15       1.0  0.29722  0.03903  0.7176  1.0000
  O   O16       1.0  0.29922  0.97115  0.71697  1.0000
  O   O17       1.0  0.78189  0.20203  0.0389  1.0000
  O   O18       1.0  0.78362  0.20024  0.97094  1.0000
  O   O19       1.0  0.71767  0.20214  0.46079  1.0000
  O   O20       1.0  0.71721  0.20008  0.52888  1.0000
  O   O21       1.0  0.78202  0.29741  0.46084  1.0000
  O   O22       1.0  0.78377  0.29907  0.52887  1.0000
  O   O23       1.0  0.7176  0.29722  0.03903  1.0000
  O   O24       1.0  0.71697  0.29922  0.9711599999999999  1.0000
  O   O25       1.0  0.21798  0.96107  0.70267  1.0000
  O   O26       1.0  0.21623  0.02895  0.7009  1.0000
  O   O27       1.0  0.28248  0.53923  0.70271  1.0000
  O   O28       1.0  0.28302  0.47121  0.70077  1.0000
  O   O29       1.0  0.21809  0.53915  0.798  1.0000
  O   O30       1.0  0.2164  0.47106  0.79973  1.0000
  O   O31       1.0  0.28221  0.96099  0.79786  1.0000
  O   O32       1.0  0.2828  0.02893  0.79993  1.0000
  O   O33       1.0  0.96099  0.79786  0.28222  1.0000
  O   O34       1.0  0.02893  0.79993  0.2828  1.0000
  O   O35       1.0  0.53915  0.79799  0.21809  1.0000
  O   O36       1.0  0.47106  0.79973  0.2164  1.0000
  O   O37       1.0  0.53923  0.70271  0.28248  1.0000
  O   O38       1.0  0.47121  0.70077  0.28302  1.0000
  O   O39       1.0  0.96107  0.70267  0.21798  1.0000
  O   O40       1.0  0.02895  0.7009  0.21623  1.0000
  O   O41       1.0  0.79799  0.21809  0.53916  1.0000
  O   O42       1.0  0.79973  0.2164  0.47106  1.0000
  O   O43       1.0  0.79786  0.28222  0.96099  1.0000
  O   O44       1.0  0.79993  0.2828  0.02893  1.0000
  O   O45       1.0  0.70267  0.21798  0.96107  1.0000
  O   O46       1.0  0.7009  0.21623  0.02895  1.0000
  O   O47       1.0  0.70271  0.28248  0.53923  1.0000
  O   O48       1.0  0.70077  0.28302  0.47122  1.0000
  O   O49       1.0  0.78202  0.03893  0.29733  1.0000
  O   O50       1.0  0.78377  0.97105  0.2991  1.0000
  O   O51       1.0  0.71752  0.46077000000000007  0.29729  1.0000
  O   O52       1.0  0.71698  0.52878  0.29923  1.0000
  O   O53       1.0  0.78191  0.46085  0.20201  1.0000
  O   O54       1.0  0.7836  0.52894  0.20027  1.0000
  O   O55       1.0  0.71778  0.03901  0.20214  1.0000
  O   O56       1.0  0.71719  0.9710699999999999  0.20008  1.0000
  O   O57       1.0  0.03901  0.20214  0.71778  1.0000
  O   O58       1.0  0.9710699999999999  0.20007  0.7172  1.0000
  O   O59       1.0  0.46084  0.202  0.78191  1.0000
  O   O60       1.0  0.52893  0.20027  0.7836  1.0000
  O   O61       1.0  0.46077000000000007  0.29729  0.71752  1.0000
  O   O62       1.0  0.52878  0.29922  0.71698  1.0000
  O   O63       1.0  0.03893  0.29733  0.78202  1.0000
  O   O64       1.0  0.97105  0.2991  0.78377  1.0000
  O   O65       1.0  0.202  0.78191  0.46085  1.0000
  O   O66       1.0  0.20026  0.7836  0.52894  1.0000
  O   O67       1.0  0.20214  0.71778  0.03901  1.0000
  O   O68       1.0  0.20007  0.71719  0.9710699999999999  1.0000
  O   O69       1.0  0.29733  0.78202  0.03893  1.0000
  O   O70       1.0  0.29909  0.78377  0.97105  1.0000
  O   O71       1.0  0.29728  0.71752  0.46077000000000007  1.0000
  O   O72       1.0  0.29922  0.71698  0.52878  1.0000
  O   O73       1.0  0.9611000000000001  0.21811  0.79797  1.0000
  O   O74       1.0  0.02906  0.21638  0.79976  1.0000
  O   O75       1.0  0.53921  0.28232  0.79786  1.0000
  O   O76       1.0  0.47112  0.28278  0.79992  1.0000
  O   O77       1.0  0.53916  0.21798  0.7025900000000002  1.0000
  O   O78       1.0  0.47113  0.21622  0.70093  1.0000
  O   O79       1.0  0.9609699999999999  0.2824  0.70278  1.0000
  O   O80       1.0  0.02884  0.28303  0.70078  1.0000
  O   O81       1.0  0.79797  0.9611000000000001  0.21811  1.0000
  O   O82       1.0  0.79976  0.02906  0.21638  1.0000
  O   O83       1.0  0.79785  0.53921  0.28233  1.0000
  O   O84       1.0  0.79992  0.47112  0.28278  1.0000
  O   O85       1.0  0.7025900000000002  0.53916  0.21798  1.0000
  O   O86       1.0  0.70093  0.47113  0.21622  1.0000
  O   O87       1.0  0.70278  0.9609699999999999  0.2824  1.0000
  O   O88       1.0  0.70078  0.02884  0.28303  1.0000
  O   O89       1.0  0.2181  0.79797  0.9611000000000001  1.0000
  O   O90       1.0  0.21638  0.79976  0.02906  1.0000
  O   O91       1.0  0.28232  0.79785  0.53921  1.0000
  O   O92       1.0  0.28278  0.79992  0.47112  1.0000
  O   O93       1.0  0.21798  0.7025900000000002  0.53916  1.0000
  O   O94       1.0  0.21622  0.70093  0.47113  1.0000
  O   O95       1.0  0.2824  0.70278  0.9609699999999999  1.0000
  O   O96       1.0  0.28303  0.70078  0.02885  1.0000
