data_image0
_chemical_formula_structural       Cd24H184C278N240
_chemical_formula_sum              "Cd24 H184 C278 N240"
_cell_length_a       20.58146
_cell_length_b       27.024869999999996
_cell_length_c       27.02493
_cell_angle_alpha    100.31713
_cell_angle_beta     90.00045
_cell_angle_gamma    89.99955

_symmetry_space_group_name_H-M    'P 1'
_symmetry_Int_Tables_number       1

loop_
  _symmetry_equiv_pos_as_xyz
  'x,y,z'

loop_
  _atom_site_type_symbol
  _atom_site_label
  _atom_site_symmetry_multiplicity
  _atom_site_fract_x
  _atom_site_fract_y
  _atom_site_fract_z
  _atom_site_occupancy
  Cd  Cd1       1.0  0.6130899999999999  0.4585800000000001  0.54142  1.0000
  Cd  Cd2       1.0  0.68205  0.78227  0.21771999999999994  1.0000
  Cd  Cd3       1.0  0.9561999999999999  0.58091  0.9141099999999999  1.0000
  Cd  Cd4       1.0  0.45623  0.4191000000000001  0.08588  1.0000
  Cd  Cd5       1.0  0.63778  0.8798800000000002  0.12012  1.0000
  Cd  Cd6       1.0  0.31786  0.6654000000000002  0.8311699999999997  1.0000
  Cd  Cd7       1.0  0.9561999999999999  0.08588000000000001  0.41909  1.0000
  Cd  Cd8       1.0  0.58982  0.9776200000000002  0.02237  1.0000
  Cd  Cd9       1.0  0.13737999999999997  0.13555000000000003  0.38063  1.0000
  Cd  Cd10      1.0  0.45623  0.91412  0.5809  1.0000
  Cd  Cd11      1.0  0.18206999999999998  0.21772000000000005  0.78228  1.0000
  Cd  Cd12      1.0  0.13737999999999997  0.6193600000000002  0.8644499999999998  1.0000
  Cd  Cd13      1.0  0.12924  0.6405300000000003  0.35947  1.0000
  Cd  Cd14      1.0  0.31786  0.16883  0.3346  1.0000
  Cd  Cd15      1.0  0.11312  0.54142  0.45858  1.0000
  Cd  Cd16      1.0  0.6373799999999998  0.38063  0.13555  1.0000
  Cd  Cd17      1.0  0.6292199999999999  0.35947  0.64053  1.0000
  Cd  Cd18      1.0  0.6840899999999999  0.26428  0.7357199999999999  1.0000
  Cd  Cd19      1.0  0.18406999999999998  0.73572  0.26428  1.0000
  Cd  Cd20      1.0  0.81782  0.3346000000000001  0.16883999999999993  1.0000
  Cd  Cd21      1.0  0.08985  0.02237000000000004  0.97763  1.0000
  Cd  Cd22      1.0  0.81782  0.83116  0.6653899999999998  1.0000
  Cd  Cd23      1.0  0.6373799999999998  0.8644500000000003  0.6193599999999998  1.0000
  Cd  Cd24      1.0  0.13773  0.12011999999999999  0.8798799999999998  1.0000
  H   H1        1.0  0.92235  0.46756000000000003  0.88519  1.0000
  H   H2        1.0  0.91371  0.9231800000000001  0.07681999999999999  1.0000
  H   H3        1.0  0.94367  0.44763  0.04903  1.0000
  H   H4        1.0  0.8514199999999998  0.22123000000000007  0.13252  1.0000
  H   H5        1.0  0.34239  0.90436  0.67435  1.0000
  H   H6        1.0  0.57746  0.6589700000000002  0.55541  1.0000
  H   H7        1.0  0.7696699999999997  0.04  0.2648  1.0000
  H   H8        1.0  0.36252  0.28083  0.37243  1.0000
  H   H9        1.0  0.026479999999999993  0.06913  0.08502999999999997  1.0000
  H   H10       1.0  0.9343199999999999  0.43080000000000007  0.33875  1.0000
  H   H11       1.0  0.8195899999999999  0.045869999999999994  0.44574  1.0000
  H   H12       1.0  0.4972299999999999  0.498  0.005139999999999999  1.0000
  H   H13       1.0  0.2155  0.14868  0.58179  1.0000
  H   H14       1.0  0.36252  0.6275700000000001  0.7191699999999999  1.0000
  H   H15       1.0  0.52305  0.29391000000000006  0.8981599999999997  1.0000
  H   H16       1.0  0.01387  0.24983000000000002  0.25416  1.0000
  H   H17       1.0  0.2753999999999999  0.25072  0.26115  1.0000
  H   H18       1.0  0.43194999999999995  0.075  0.33932  1.0000
  H   H19       1.0  0.055809999999999985  0.43434000000000006  0.46621  1.0000
  H   H20       1.0  0.7472299999999997  0.15866999999999995  0.6876899999999998  1.0000
  H   H21       1.0  0.35188  0.59677  0.16632  1.0000
  H   H22       1.0  0.07746  0.5554  0.65896  1.0000
  H   H23       1.0  0.5138799999999999  0.25415  0.24982  1.0000
  H   H24       1.0  0.06072  0.7423700000000001  0.18889  1.0000
  H   H25       1.0  0.42128999999999994  0.3769400000000001  0.97332  1.0000
  H   H26       1.0  0.25875  0.4973  0.99283  1.0000
  H   H27       1.0  0.7496199999999998  0.14283000000000004  0.04869  1.0000
  H   H28       1.0  0.8380499999999997  0.17456  0.41705  1.0000
  H   H29       1.0  0.31959999999999994  0.95413  0.55425  1.0000
  H   H30       1.0  0.7134299999999999  0.98449  0.9453299999999998  1.0000
  H   H31       1.0  0.24962999999999996  0.85718  0.95132  1.0000
  H   H32       1.0  0.24962999999999996  0.04868  0.14282  1.0000
  H   H33       1.0  0.055809999999999985  0.5337800000000001  0.56565  1.0000
  H   H34       1.0  0.26966  0.2648  0.04001  1.0000
  H   H35       1.0  0.5200999999999999  0.8003800000000001  0.38034999999999997  1.0000
  H   H36       1.0  0.49871999999999994  0.5081700000000001  0.7897999999999998  1.0000
  H   H37       1.0  0.42128999999999994  0.026679999999999992  0.62306  1.0000
  H   H38       1.0  0.8521599999999999  0.9131800000000001  0.3191099999999999  1.0000
  H   H39       1.0  0.42234999999999995  0.88518  0.4675399999999999  1.0000
  H   H40       1.0  0.9213099999999999  0.6230600000000002  0.026669999999999996  1.0000
  H   H41       1.0  0.33806999999999987  0.82543  0.58295  1.0000
  H   H42       1.0  0.023049999999999998  0.8981600000000001  0.29391  1.0000
  H   H43       1.0  0.92235  0.1148  0.53244  1.0000
  H   H44       1.0  0.023049999999999998  0.7060900000000002  0.10184  1.0000
  H   H45       1.0  0.52305  0.10184000000000001  0.70609  1.0000
  H   H46       1.0  0.94367  0.95097  0.5523699999999999  1.0000
  H   H47       1.0  0.23845999999999995  0.4678  0.41689  1.0000
  H   H48       1.0  0.49871999999999994  0.21019  0.49183  1.0000
  H   H49       1.0  0.42234999999999995  0.5324600000000002  0.11482  1.0000
  H   H50       1.0  0.74409  0.6731500000000005  0.17426  1.0000
  H   H51       1.0  0.76348  0.22930000000000006  0.47732  1.0000
  H   H52       1.0  0.73845  0.53219  0.58311  1.0000
  H   H53       1.0  0.5607099999999999  0.1889  0.74237  1.0000
  H   H54       1.0  0.05762  0.22615  0.70858  1.0000
  H   H55       1.0  0.93196  0.33933000000000013  0.075  1.0000
  H   H56       1.0  0.7155  0.5818  0.14869  1.0000
  H   H57       1.0  0.0201  0.19961  0.6196499999999998  1.0000
  H   H58       1.0  0.55581  0.46621000000000007  0.4343399999999999  1.0000
  H   H59       1.0  0.44570999999999994  0.7421100000000003  0.25789  1.0000
  H   H60       1.0  0.8518899999999999  0.40323000000000003  0.83369  1.0000
  H   H61       1.0  0.005159999999999999  0.2808800000000001  0.01716  1.0000
  H   H62       1.0  0.76348  0.52267  0.7707  1.0000
  H   H63       1.0  0.26571999999999996  0.6098500000000001  0.62325  1.0000
  H   H64       1.0  0.86252  0.3724300000000001  0.28083  1.0000
  H   H65       1.0  0.5545099999999998  0.17473  0.10356999999999998  1.0000
  H   H66       1.0  0.8300399999999999  0.80069  0.19931  1.0000
  H   H67       1.0  0.7657199999999998  0.62325  0.60986  1.0000
  H   H68       1.0  0.45423  0.6997300000000002  0.80076  1.0000
  H   H69       1.0  0.054529999999999995  0.10357000000000002  0.17474  1.0000
  H   H70       1.0  0.8424099999999998  0.6743600000000001  0.9043599999999998  1.0000
  H   H71       1.0  0.7478099999999998  0.7097300000000002  0.29027  1.0000
  H   H72       1.0  0.9343199999999999  0.6612500000000001  0.56919  1.0000
  H   H73       1.0  0.82881  0.018189999999999956  0.9818099999999997  1.0000
  H   H74       1.0  0.33806999999999987  0.4170500000000001  0.17457  1.0000
  H   H75       1.0  0.35214  0.08681  0.6808899999999999  1.0000
  H   H76       1.0  0.42532999999999993  0.57046  0.8431  1.0000
  H   H77       1.0  0.26966  0.95999  0.7352  1.0000
  H   H78       1.0  0.32881  0.9818100000000002  0.01819  1.0000
  H   H79       1.0  0.92044  0.15842  0.07759999999999997  1.0000
  H   H80       1.0  0.4972299999999999  0.9948600000000002  0.502  1.0000
  H   H81       1.0  0.74409  0.8257400000000003  0.32685  1.0000
  H   H82       1.0  0.92044  0.9224000000000002  0.8415799999999999  1.0000
  H   H83       1.0  0.8380499999999997  0.58295  0.82544  1.0000
  H   H84       1.0  0.5051599999999999  0.71912  0.9828399999999998  1.0000
  H   H85       1.0  0.52349  0.050030000000000026  0.94997  1.0000
  H   H86       1.0  0.24780999999999997  0.29027000000000003  0.70973  1.0000
  H   H87       1.0  0.3576599999999999  0.8364300000000002  0.16356  1.0000
  H   H88       1.0  0.31959999999999994  0.44575  0.04586999999999999  1.0000
  H   H89       1.0  0.2155  0.41821  0.85132  1.0000
  H   H90       1.0  0.01387  0.74584  0.7501699999999999  1.0000
  H   H91       1.0  0.8277299999999999  0.6927700000000001  0.79174  1.0000
  H   H92       1.0  0.24724  0.8413399999999999  0.31229999999999997  1.0000
  H   H93       1.0  0.8576599999999999  0.16356  0.83643  1.0000
  H   H94       1.0  0.75873  0.99283  0.49729  1.0000
  H   H95       1.0  0.3514199999999999  0.13252000000000005  0.22122  1.0000
  H   H96       1.0  0.24724  0.68769  0.15866  1.0000
  H   H97       1.0  0.9987199999999999  0.7898  0.50816  1.0000
  H   H98       1.0  0.93196  0.9249900000000002  0.66067  1.0000
  H   H99       1.0  0.8573999999999999  0.6829  0.3170999999999999  1.0000
  H   H100      1.0  0.24895999999999993  0.80875  0.19124999999999998  1.0000
  H   H101      1.0  0.3574  0.3171  0.6828999999999998  1.0000
  H   H102      1.0  0.7754  0.74929  0.73885  1.0000
  H   H103      1.0  0.26348  0.47733  0.22931  1.0000
  H   H104      1.0  0.26348  0.77069  0.52267  1.0000
  H   H105      1.0  0.57746  0.44459000000000015  0.34103  1.0000
  H   H106      1.0  0.23845999999999995  0.5831100000000001  0.53219  1.0000
  H   H107      1.0  0.7696699999999997  0.7352  0.96  1.0000
  H   H108      1.0  0.33004  0.19931  0.80069  1.0000
  H   H109      1.0  0.26571999999999996  0.37675  0.39014  1.0000
  H   H110      1.0  0.7754  0.26114  0.25071  1.0000
  H   H111      1.0  0.99722  0.5020000000000001  0.99486  1.0000
  H   H112      1.0  0.95422  0.8007600000000002  0.69973  1.0000
  H   H113      1.0  0.026479999999999993  0.9149700000000002  0.9308699999999999  1.0000
  H   H114      1.0  0.8514199999999998  0.86747  0.77877  1.0000
  H   H115      1.0  0.7182799999999999  0.34817000000000004  0.93074  1.0000
  H   H116      1.0  0.73845  0.41689  0.46781  1.0000
  H   H117      1.0  0.21829  0.6518300000000002  0.06926  1.0000
  H   H118      1.0  0.7472299999999997  0.31231  0.84133  1.0000
  H   H119      1.0  0.8518899999999999  0.1663  0.59676  1.0000
  H   H120      1.0  0.02347  0.94998  0.050019999999999995  1.0000
  H   H121      1.0  0.44368999999999986  0.55237  0.9509699999999999  1.0000
  H   H122      1.0  0.32774999999999993  0.3072300000000001  0.20823999999999998  1.0000
  H   H123      1.0  0.8424099999999998  0.09564  0.32564  1.0000
  H   H124      1.0  0.0201  0.38034  0.80039  1.0000
  H   H125      1.0  0.8340399999999999  0.28154  0.71845  1.0000
  H   H126      1.0  0.5557999999999998  0.56566  0.53379  1.0000
  H   H127      1.0  0.42532999999999993  0.1569  0.42954  1.0000
  H   H128      1.0  0.42044  0.84159  0.92241  1.0000
  H   H129      1.0  0.5576199999999999  0.70859  0.22615  1.0000
  H   H130      1.0  0.2753999999999999  0.7388500000000002  0.74928  1.0000
  H   H131      1.0  0.8521599999999999  0.6808900000000002  0.08682  1.0000
  H   H132      1.0  0.9213099999999999  0.97332  0.37694  1.0000
  H   H133      1.0  0.44141  0.9590700000000002  0.04093  1.0000
  H   H134      1.0  0.7155  0.8513100000000001  0.41819999999999996  1.0000
  H   H135      1.0  0.9456999999999999  0.25789  0.7421  1.0000
  H   H136      1.0  0.8195899999999999  0.5542500000000001  0.9541299999999998  1.0000
  H   H137      1.0  0.21829  0.93074  0.34817  1.0000
  H   H138      1.0  0.99722  0.00514000000000001  0.498  1.0000
  H   H139      1.0  0.5607099999999999  0.25763  0.8111  1.0000
  H   H140      1.0  0.5264799999999998  0.08502  0.06912  1.0000
  H   H141      1.0  0.41374  0.07683000000000002  0.92317  1.0000
  H   H142      1.0  0.92532  0.8430999999999998  0.57045  1.0000
  H   H143      1.0  0.7489499999999999  0.19125  0.8087499999999999  1.0000
  H   H144      1.0  0.054529999999999995  0.8252599999999999  0.8964299999999997  1.0000
  H   H145      1.0  0.4343199999999999  0.3387500000000001  0.4308  1.0000
  H   H146      1.0  0.7496199999999998  0.9513100000000001  0.8571599999999999  1.0000
  H   H147      1.0  0.5200999999999999  0.61965  0.19961  1.0000
  H   H148      1.0  0.7657199999999998  0.39014  0.37675  1.0000
  H   H149      1.0  0.86252  0.71916  0.62757  1.0000
  H   H150      1.0  0.4343199999999999  0.5692  0.66125  1.0000
  H   H151      1.0  0.2441  0.17426000000000003  0.6731399999999998  1.0000
  H   H152      1.0  0.9987199999999999  0.49183  0.21019999999999997  1.0000
  H   H153      1.0  0.21342  0.9453400000000001  0.9844799999999998  1.0000
  H   H154      1.0  0.42044  0.07759000000000002  0.15841  1.0000
  H   H155      1.0  0.5051599999999999  0.01715  0.28088  1.0000
  H   H156      1.0  0.9413999999999998  0.040930000000000015  0.95906  1.0000
  H   H157      1.0  0.5138799999999999  0.7501799999999998  0.74585  1.0000
  H   H158      1.0  0.52649  0.9308800000000003  0.9149799999999999  1.0000
  H   H159      1.0  0.25875  0.00717000000000001  0.5027  1.0000
  H   H160      1.0  0.06072  0.8111100000000002  0.25763  1.0000
  H   H161      1.0  0.92532  0.4295400000000001  0.1569  1.0000
  H   H162      1.0  0.95422  0.30026  0.19924  1.0000
  H   H163      1.0  0.32774999999999993  0.79175  0.6927599999999998  1.0000
  H   H164      1.0  0.07746  0.34104  0.4446  1.0000
  H   H165      1.0  0.005159999999999999  0.98284  0.71911  1.0000
  H   H166      1.0  0.45423  0.19924000000000006  0.30027  1.0000
  H   H167      1.0  0.21342  0.015510000000000001  0.05466  1.0000
  H   H168      1.0  0.34239  0.3256500000000001  0.09563999999999998  1.0000
  H   H169      1.0  0.4426399999999999  0.2222  0.7778  1.0000
  H   H170      1.0  0.35214  0.31911  0.9131799999999998  1.0000
  H   H171      1.0  0.7134299999999999  0.05467  0.01551  1.0000
  H   H172      1.0  0.44368999999999986  0.04902000000000003  0.44762  1.0000
  H   H173      1.0  0.75873  0.50271  0.007169999999999998  1.0000
  H   H174      1.0  0.43194999999999995  0.66068  0.925  1.0000
  H   H175      1.0  0.5545099999999998  0.89643  0.82527  1.0000
  H   H176      1.0  0.5576199999999999  0.77385  0.29141  1.0000
  H   H177      1.0  0.3514199999999999  0.7787800000000002  0.86748  1.0000
  H   H178      1.0  0.33405  0.71846  0.28154  1.0000
  H   H179      1.0  0.05762  0.29141000000000006  0.77385  1.0000
  H   H180      1.0  0.94264  0.7777900000000002  0.2222  1.0000
  H   H181      1.0  0.2441  0.32686  0.82574  1.0000
  H   H182      1.0  0.7182799999999999  0.06926  0.65183  1.0000
  H   H183      1.0  0.8277299999999999  0.20825000000000002  0.30722999999999995  1.0000
  H   H184      1.0  0.35188  0.83368  0.4032299999999999  1.0000
  C   C1        1.0  0.40059  0.23800000000000004  0.76199  1.0000
  C   C2        1.0  0.17442999999999997  0.78286  0.89945  1.0000
  C   C3        1.0  0.79399  0.20503999999999997  0.7949599999999999  1.0000
  C   C4        1.0  0.44456  0.4988900000000001  0.00143  1.0000
  C   C5        1.0  0.41082  0.7914399999999999  0.20856  1.0000
  C   C6        1.0  0.11380999999999998  0.36809  0.43736  1.0000
  C   C7        1.0  0.47325  0.53438  0.72107  1.0000
  C   C8        1.0  0.09079  0.08385  0.14926  1.0000
  C   C9        1.0  0.83838  0.7747899999999999  0.22520999999999994  1.0000
  C   C10       1.0  0.6794  0.8342700000000002  0.3909799999999999  1.0000
  C   C11       1.0  0.60204  0.44978  0.41949999999999993  1.0000
  C   C12       1.0  0.67341  0.4149  0.35129  1.0000
  C   C13       1.0  0.8529699999999998  0.709  0.2909999999999999  1.0000
  C   C14       1.0  0.91472  0.4710000000000001  0.02864  1.0000
  C   C15       1.0  0.3024  0.9760300000000002  0.71069  1.0000
  C   C16       1.0  0.80241  0.02396  0.28931  1.0000
  C   C17       1.0  0.9340399999999998  0.43127000000000004  0.29859  1.0000
  C   C18       1.0  0.3471  0.5572400000000001  0.16885  1.0000
  C   C19       1.0  0.43182  0.0748  0.29897  1.0000
  C   C20       1.0  0.09109  0.20913  0.6793  1.0000
  C   C21       1.0  0.11505999999999998  0.17158000000000007  0.59372  1.0000
  C   C22       1.0  0.3471  0.83115  0.4427599999999999  1.0000
  C   C23       1.0  0.79789  0.20410000000000003  0.49067  1.0000
  C   C24       1.0  0.9610799999999999  0.7459099999999999  0.7485699999999997  1.0000
  C   C25       1.0  0.29787999999999987  0.7959  0.50932  1.0000
  C   C26       1.0  0.6879399999999998  0.7021900000000001  0.59983  1.0000
  C   C27       1.0  0.07491999999999999  0.9004  0.9357499999999999  1.0000
  C   C28       1.0  0.9281  0.2793300000000001  0.2238  1.0000
  C   C29       1.0  0.40332  0.7577  0.24228999999999995  1.0000
  C   C30       1.0  0.09813  0.6538  0.027889999999999998  1.0000
  C   C31       1.0  0.7967799999999998  0.9552700000000002  0.04473  1.0000
  C   C32       1.0  0.30142  0.54215  0.20182  1.0000
  C   C33       1.0  0.6138  0.63191  0.56264  1.0000
  C   C34       1.0  0.8452999999999999  0.5303  0.9759599999999998  1.0000
  C   C35       1.0  0.42518  0.77512  0.7149799999999997  1.0000
  C   C36       1.0  0.8014399999999999  0.20182000000000003  0.54215  1.0000
  C   C37       1.0  0.3387  0.82648  0.54283  1.0000
  C   C38       1.0  0.51008  0.82237  0.98844  1.0000
  C   C39       1.0  0.43402999999999997  0.29859  0.43126999999999993  1.0000
  C   C40       1.0  0.8115299999999999  0.50167  0.00524  1.0000
  C   C41       1.0  0.9247699999999998  0.9237000000000002  0.80174  1.0000
  C   C42       1.0  0.59078  0.9161500000000002  0.85074  1.0000
  C   C43       1.0  0.6823099999999999  0.32826000000000005  0.9051399999999997  1.0000
  C   C44       1.0  0.3947099999999999  0.26636  0.39839999999999987  1.0000
  C   C45       1.0  0.79789  0.50933  0.7959  1.0000
  C   C46       1.0  0.15478999999999998  0.07921  0.16588999999999998  1.0000
  C   C47       1.0  0.5732199999999998  0.2982000000000001  0.8869499999999998  1.0000
  C   C48       1.0  0.76357  0.9360300000000003  0.25427  1.0000
  C   C49       1.0  0.26356  0.06395999999999999  0.74573  1.0000
  C   C50       1.0  0.36222  0.03135  0.96864  1.0000
  C   C51       1.0  0.09109  0.3207  0.7908699999999997  1.0000
  C   C52       1.0  0.3570699999999999  0.7717899999999999  0.71627  1.0000
  C   C53       1.0  0.51008  0.011560000000000004  0.17763  1.0000
  C   C54       1.0  0.6996999999999999  0.13139  0.05362  1.0000
  C   C55       1.0  0.38622999999999996  0.01311999999999999  0.6475799999999999  1.0000
  C   C56       1.0  0.8947099999999998  0.3984000000000001  0.26636  1.0000
  C   C57       1.0  0.42943  0.56918  0.8027  1.0000
  C   C58       1.0  0.19873  0.69233  0.14411  1.0000
  C   C59       1.0  0.51568  0.31221  0.49977  1.0000
  C   C60       1.0  0.01569  0.49976  0.31220999999999993  1.0000
  C   C61       1.0  0.6179399999999999  0.32432  0.92119  1.0000
  C   C62       1.0  0.9294299999999999  0.4308200000000001  0.1973  1.0000
  C   C63       1.0  0.9251699999999998  0.22489  0.28502  1.0000
  C   C64       1.0  0.9294299999999999  0.8026900000000002  0.56918  1.0000
  C   C65       1.0  0.6996999999999999  0.9463800000000002  0.86861  1.0000
  C   C66       1.0  0.07323  0.88695  0.29821  1.0000
  C   C67       1.0  0.42943  0.19730000000000006  0.43082  1.0000
  C   C68       1.0  0.8622  0.9686500000000002  0.03135  1.0000
  C   C69       1.0  0.20368  0.43863000000000013  0.4214599999999999  1.0000
  C   C70       1.0  0.9005899999999999  0.76199  0.238  1.0000
  C   C71       1.0  0.93305  0.01503999999999999  0.9849499999999998  1.0000
  C   C72       1.0  0.7601699999999999  0.23173000000000005  0.57992  1.0000
  C   C73       1.0  0.29679  0.044739999999999946  0.9552599999999999  1.0000
  C   C74       1.0  0.38686  0.1073  0.23323  1.0000
  C   C75       1.0  0.59413  0.27763  0.83885  1.0000
  C   C76       1.0  0.34658  0.52905  0.96741  1.0000
  C   C77       1.0  0.9340399999999998  0.7014  0.56873  1.0000
  C   C78       1.0  0.59413  0.16114  0.72237  1.0000
  C   C79       1.0  0.8044599999999997  0.7125900000000002  0.02831  1.0000
  C   C80       1.0  0.18794  0.2978  0.4001699999999999  1.0000
  C   C81       1.0  0.26356  0.25427  0.9360299999999999  1.0000
  C   C82       1.0  0.9698  0.77303  0.53455  1.0000
  C   C83       1.0  0.7601699999999999  0.42008  0.7682699999999999  1.0000
  C   C84       1.0  0.31354  0.55959  0.9358699999999998  1.0000
  C   C85       1.0  0.6823099999999999  0.09486  0.67174  1.0000
  C   C86       1.0  0.30142  0.79818  0.45785  1.0000
  C   C87       1.0  0.91472  0.9713600000000002  0.529  1.0000
  C   C88       1.0  0.88685  0.8927000000000003  0.76676  1.0000
  C   C89       1.0  0.43182  0.70103  0.92519  1.0000
  C   C90       1.0  0.34829999999999994  0.046590000000000006  0.68025  1.0000
  C   C91       1.0  0.34658  0.03258999999999999  0.47094999999999987  1.0000
  C   C92       1.0  0.7188599999999999  0.4071100000000001  0.38796999999999987  1.0000
  C   C93       1.0  0.8115299999999999  0.9947600000000001  0.49833  1.0000
  C   C94       1.0  0.94455  0.0014199999999999933  0.4988899999999999  1.0000
  C   C95       1.0  0.57492  0.9357500000000002  0.90041  1.0000
  C   C96       1.0  0.85706  0.22820999999999997  0.28373  1.0000
  C   C97       1.0  0.31153999999999993  0.005239999999999991  0.50166  1.0000
  C   C98       1.0  0.44456  0.9985700000000001  0.5011  1.0000
  C   C99       1.0  0.4698  0.22697  0.46545  1.0000
  C   C100      1.0  0.40888  0.27163  0.7283699999999997  1.0000
  C   C101      1.0  0.11380999999999998  0.5626400000000001  0.6319099999999997  1.0000
  C   C102      1.0  0.47591  0.8052800000000002  0.19471999999999998  1.0000
  C   C103      1.0  0.01007  0.9884400000000002  0.82237  1.0000
  C   C104      1.0  0.09414  0.72237  0.16114  1.0000
  C   C105      1.0  0.96917  0.21457  0.04309  1.0000
  C   C106      1.0  0.70368  0.56137  0.57853  1.0000
  C   C107      1.0  0.09079  0.85074  0.91615  1.0000
  C   C108      1.0  0.34531  0.9759600000000003  0.53029  1.0000
  C   C109      1.0  0.97326  0.72108  0.53438  1.0000
  C   C110      1.0  0.4691799999999999  0.7854299999999999  0.9568999999999999  1.0000
  C   C111      1.0  0.29399  0.79496  0.20504  1.0000
  C   C112      1.0  0.09533999999999998  0.45839000000000013  0.8450399999999998  1.0000
  C   C113      1.0  0.09533999999999998  0.15495  0.5416  1.0000
  C   C114      1.0  0.17442999999999997  0.10055000000000001  0.21713999999999997  1.0000
  C   C115      1.0  0.26015  0.5799200000000001  0.23172  1.0000
  C   C116      1.0  0.96917  0.95691  0.78543  1.0000
  C   C117      1.0  0.8044599999999997  0.97168  0.28741  1.0000
  C   C118      1.0  0.9318099999999999  0.92519  0.70102  1.0000
  C   C119      1.0  0.9182  0.94929  0.0507  1.0000
  C   C120      1.0  0.18231  0.67174  0.09485999999999999  1.0000
  C   C121      1.0  0.67955  0.08264000000000003  0.0346  1.0000
  C   C122      1.0  0.9108199999999999  0.20856000000000002  0.7914299999999999  1.0000
  C   C123      1.0  0.9247699999999998  0.19826  0.07629  1.0000
  C   C124      1.0  0.18794  0.59983  0.7022  1.0000
  C   C125      1.0  0.31354  0.06413  0.4404099999999999  1.0000
  C   C126      1.0  0.31153999999999993  0.49833000000000016  0.99476  1.0000
  C   C127      1.0  0.8422499999999998  0.6766300000000002  0.9450299999999998  1.0000
  C   C128      1.0  0.6179399999999999  0.0788  0.67568  1.0000
  C   C129      1.0  0.6547799999999999  0.9207800000000002  0.8341  1.0000
  C   C130      1.0  0.11795  0.67567  0.0788  1.0000
  C   C131      1.0  0.6794  0.6090200000000002  0.16572999999999993  1.0000
  C   C132      1.0  0.9788499999999998  0.9641000000000002  0.0359  1.0000
  C   C133      1.0  0.46109  0.7485700000000001  0.74591  1.0000
  C   C134      1.0  0.5981099999999999  0.027899999999999973  0.6537999999999999  1.0000
  C   C135      1.0  0.5910799999999999  0.6793000000000002  0.20913  1.0000
  C   C136      1.0  0.97326  0.46561000000000013  0.27892  1.0000
  C   C137      1.0  0.82797  0.2573  0.25238  1.0000
  C   C138      1.0  0.8482999999999999  0.6802500000000002  0.04659  1.0000
  C   C139      1.0  0.8386899999999999  0.17351000000000005  0.4571599999999999  1.0000
  C   C140      1.0  0.47886999999999996  0.03590999999999998  0.9640899999999998  1.0000
  C   C141      1.0  0.8862399999999999  0.98688  0.35242  1.0000
  C   C142      1.0  0.18231  0.90514  0.32826  1.0000
  C   C143      1.0  0.57026  0.6300700000000001  0.19390999999999997  1.0000
  C   C144      1.0  0.38622999999999996  0.35242  0.9868799999999998  1.0000
  C   C145      1.0  0.1997  0.05361  0.13138  1.0000
  C   C146      1.0  0.3857599999999999  0.5214100000000002  0.13971  1.0000
  C   C147      1.0  0.37076999999999993  0.9977  0.0023  1.0000
  C   C148      1.0  0.67441  0.8994400000000001  0.78285  1.0000
  C   C149      1.0  0.85706  0.7162700000000002  0.77179  1.0000
  C   C150      1.0  0.34149  0.74443  0.25557  1.0000
  C   C151      1.0  0.35413999999999995  0.81029  0.18971  1.0000
  C   C152      1.0  0.42518  0.28502000000000005  0.22488  1.0000
  C   C153      1.0  0.41473999999999994  0.529  0.9713599999999998  1.0000
  C   C154      1.0  0.51568  0.50023  0.6877899999999998  1.0000
  C   C155      1.0  0.4330499999999999  0.98496  0.015039999999999996  1.0000
  C   C156      1.0  0.47187  0.04242000000000001  0.26642  1.0000
  C   C157      1.0  0.07026  0.1939  0.6300699999999999  1.0000
  C   C158      1.0  0.9318099999999999  0.29898000000000013  0.0748  1.0000
  C   C159      1.0  0.90331  0.24229  0.7577  1.0000
  C   C160      1.0  0.8014399999999999  0.45785000000000003  0.79818  1.0000
  C   C161      1.0  0.67341  0.64871  0.5851  1.0000
  C   C162      1.0  0.8471099999999999  0.16885000000000006  0.55724  1.0000
  C   C163      1.0  0.9579099999999999  0.19490000000000005  0.31707  1.0000
  C   C164      1.0  0.80241  0.71069  0.97603  1.0000
  C   C165      1.0  0.07323  0.70179  0.11305  1.0000
  C   C166      1.0  0.9718599999999998  0.26642  0.04242  1.0000
  C   C167      1.0  0.5981099999999999  0.3462000000000001  0.9721  1.0000
  C   C168      1.0  0.69565  0.6594200000000002  0.18069  1.0000
  C   C169      1.0  0.57026  0.8060900000000002  0.36992999999999987  1.0000
  C   C170      1.0  0.42478  0.07629000000000001  0.19825  1.0000
  C   C171      1.0  0.1794  0.39098000000000005  0.83427  1.0000
  C   C172      1.0  0.9579099999999999  0.6829300000000003  0.8050999999999999  1.0000
  C   C173      1.0  0.11505999999999998  0.40628  0.82842  1.0000
  C   C174      1.0  0.88576  0.47858999999999996  0.8603  1.0000
  C   C175      1.0  0.01007  0.17763  0.01155  1.0000
  C   C176      1.0  0.42811  0.2238  0.27933  1.0000
  C   C177      1.0  0.8947099999999998  0.7336300000000002  0.6016  1.0000
  C   C178      1.0  0.47325  0.27892  0.46562  1.0000
  C   C179      1.0  0.43402999999999997  0.5687300000000001  0.7014  1.0000
  C   C180      1.0  0.1997  0.8686200000000002  0.9463799999999998  1.0000
  C   C181      1.0  0.09414  0.83886  0.27763  1.0000
  C   C182      1.0  0.59078  0.14926000000000003  0.08385  1.0000
  C   C183      1.0  0.61506  0.59372  0.17158  1.0000
  C   C184      1.0  0.07491999999999999  0.06425  0.09959  1.0000
  C   C185      1.0  0.20368  0.57853  0.56137  1.0000
  C   C186      1.0  0.9281  0.7762000000000004  0.72067  1.0000
  C   C187      1.0  0.61506  0.82841  0.40627  1.0000
  C   C188      1.0  0.34829999999999994  0.31974000000000014  0.95341  1.0000
  C   C189      1.0  0.30723  0.58155  0.4184499999999999  1.0000
  C   C190      1.0  0.3570699999999999  0.28373  0.22821  1.0000
  C   C191      1.0  0.30446  0.2874  0.97169  1.0000
  C   C192      1.0  0.67441  0.21715000000000007  0.10055  1.0000
  C   C193      1.0  0.8707599999999999  0.0022999999999999735  0.9976899999999997  1.0000
  C   C194      1.0  0.4691799999999999  0.04309  0.21455999999999995  1.0000
  C   C195      1.0  0.32798  0.25238  0.2573  1.0000
  C   C196      1.0  0.81353  0.9358700000000001  0.55959  1.0000
  C   C197      1.0  0.88576  0.1397  0.5214  1.0000
  C   C198      1.0  0.88685  0.23324  0.10729999999999999  1.0000
  C   C199      1.0  0.8465699999999998  0.96741  0.52904  1.0000
  C   C200      1.0  0.8862399999999999  0.64758  0.013119999999999996  1.0000
  C   C201      1.0  0.34224  0.3233700000000001  0.05497  1.0000
  C   C202      1.0  0.30446  0.028310000000000002  0.7126  1.0000
  C   C203      1.0  0.82797  0.7476200000000002  0.7426999999999999  1.0000
  C   C204      1.0  0.9698  0.4654500000000001  0.22697  1.0000
  C   C205      1.0  0.8386899999999999  0.5428300000000003  0.82648  1.0000
  C   C206      1.0  0.8471099999999999  0.44276000000000004  0.8311499999999998  1.0000
  C   C207      1.0  0.59534  0.5416  0.15495999999999996  1.0000
  C   C208      1.0  0.15478999999999998  0.8341100000000002  0.92079  1.0000
  C   C209      1.0  0.8482999999999999  0.9534100000000002  0.31975  1.0000
  C   C210      1.0  0.07026  0.36993  0.8060899999999998  1.0000
  C   C211      1.0  0.8452999999999999  0.02403999999999999  0.4696999999999999  1.0000
  C   C212      1.0  0.67955  0.9654000000000001  0.91736  1.0000
  C   C213      1.0  0.6547799999999999  0.1659  0.07921  1.0000
  C   C214      1.0  0.46109  0.25408  0.25142  1.0000
  C   C215      1.0  0.84148  0.25557  0.74442  1.0000
  C   C216      1.0  0.17341  0.3512900000000001  0.41489999999999994  1.0000
  C   C217      1.0  0.3387  0.45717000000000013  0.17352  1.0000
  C   C218      1.0  0.5910799999999999  0.79087  0.3207  1.0000
  C   C219      1.0  0.29241  0.27615  0.72385  1.0000
  C   C220      1.0  0.4182199999999999  0.05071  0.94929  1.0000
  C   C221      1.0  0.17955  0.9173700000000002  0.9653999999999999  1.0000
  C   C222      1.0  0.9251699999999998  0.71497  0.77511  1.0000
  C   C223      1.0  0.9718599999999998  0.95758  0.73358  1.0000
  C   C224      1.0  0.69873  0.14411  0.69233  1.0000
  C   C225      1.0  0.6138  0.43735000000000007  0.36809  1.0000
  C   C226      1.0  0.32798  0.7427000000000002  0.7476199999999997  1.0000
  C   C227      1.0  0.11795  0.9212  0.32431999999999994  1.0000
  C   C228      1.0  0.9610799999999999  0.25143  0.25409  1.0000
  C   C229      1.0  0.81353  0.44041000000000013  0.06412  1.0000
  C   C230      1.0  0.7188599999999999  0.61203  0.59289  1.0000
  C   C231      1.0  0.69565  0.8193100000000004  0.34057  1.0000
  C   C232      1.0  0.94455  0.50111  0.99858  1.0000
  C   C233      1.0  0.85414  0.18971000000000005  0.8102899999999998  1.0000
  C   C234      1.0  0.47187  0.7335800000000002  0.9575799999999998  1.0000
  C   C235      1.0  0.60204  0.5805  0.55022  1.0000
  C   C236      1.0  0.4698  0.53455  0.77303  1.0000
  C   C237      1.0  0.34531  0.4697100000000001  0.02404  1.0000
  C   C238      1.0  0.17341  0.58509  0.64871  1.0000
  C   C239      1.0  0.10205  0.4195100000000001  0.44977999999999996  1.0000
  C   C240      1.0  0.45791  0.31706000000000006  0.19488999999999995  1.0000
  C   C241      1.0  0.45791  0.8051000000000003  0.68293  1.0000
  C   C242      1.0  0.17955  0.0346  0.08263  1.0000
  C   C243      1.0  0.34224  0.94503  0.67663  1.0000
  C   C244      1.0  0.29787999999999987  0.49066999999999994  0.20409999999999998  1.0000
  C   C245      1.0  0.8422499999999998  0.05496999999999998  0.3233699999999999  1.0000
  C   C246      1.0  0.21885999999999994  0.38797  0.40711  1.0000
  C   C247      1.0  0.41473999999999994  0.028639999999999985  0.4709899999999999  1.0000
  C   C248      1.0  0.3947099999999999  0.6016000000000001  0.7336399999999997  1.0000
  C   C249      1.0  0.10205  0.55022  0.58049  1.0000
  C   C250      1.0  0.6879399999999998  0.40017  0.2978  1.0000
  C   C251      1.0  0.8465699999999998  0.47095000000000004  0.03259  1.0000
  C   C252      1.0  0.76357  0.74573  0.06397  1.0000
  C   C253      1.0  0.5732199999999998  0.11305000000000003  0.70179  1.0000
  C   C254      1.0  0.33839  0.22521  0.7747899999999998  1.0000
  C   C255      1.0  0.42478  0.8017399999999999  0.9236999999999997  1.0000
  C   C256      1.0  0.1794  0.16572000000000006  0.6090199999999999  1.0000
  C   C257      1.0  0.70368  0.4214700000000001  0.43862999999999996  1.0000
  C   C258      1.0  0.59534  0.8450400000000002  0.45839  1.0000
  C   C259      1.0  0.19873999999999994  0.85589  0.30766  1.0000
  C   C260      1.0  0.01569  0.68779  0.50023  1.0000
  C   C261      1.0  0.9088799999999999  0.7283700000000002  0.27163  1.0000
  C   C262      1.0  0.69873  0.3076700000000001  0.85588  1.0000
  C   C263      1.0  0.21885999999999994  0.5928900000000001  0.61203  1.0000
  C   C264      1.0  0.19565  0.34058  0.81931  1.0000
  C   C265      1.0  0.79241  0.72385  0.27615  1.0000
  C   C266      1.0  0.35296999999999995  0.2910000000000001  0.709  1.0000
  C   C267      1.0  0.3857599999999999  0.8602900000000001  0.47858  1.0000
  C   C268      1.0  0.42811  0.72067  0.7761999999999999  1.0000
  C   C269      1.0  0.97402  0.71483  0.28517  1.0000
  C   C270      1.0  0.8072199999999999  0.4184600000000001  0.58154  1.0000
  C   C271      1.0  0.19565  0.18068  0.65942  1.0000
  C   C272      1.0  0.09813  0.9721100000000003  0.3462  1.0000
  C   C273      1.0  0.47403  0.28517  0.71483  1.0000
  C   C274      1.0  0.3024  0.28931  0.02397  1.0000
  C   C275      1.0  0.38686  0.76677  0.8927  1.0000
  C   C276      1.0  0.57492  0.09959  0.06424  1.0000
  C   C277      1.0  0.26015  0.76828  0.42008  1.0000
  C   C278      1.0  0.97591  0.19473000000000001  0.80527  1.0000
  N   N1        1.0  0.22775  0.21499000000000007  0.94547  1.0000
  N   N2        1.0  0.78719  0.23739000000000002  0.7626  1.0000
  N   N3        1.0  0.19204  0.7156  0.38292  1.0000
  N   N4        1.0  0.75985  0.3715300000000001  0.77481  1.0000
  N   N5        1.0  0.54229  0.4576400000000001  0.69874  1.0000
  N   N6        1.0  0.5550999999999999  0.98337  0.10767  1.0000
  N   N7        1.0  0.53971  0.4770500000000001  0.12511  1.0000
  N   N8        1.0  0.24262999999999998  0.6246300000000002  0.72028  1.0000
  N   N9        1.0  0.54771  0.9728200000000002  0.18593  1.0000
  N   N10       1.0  0.25801  0.26039  0.88754  1.0000
  N   N11       1.0  0.0551  0.01661999999999994  0.8923199999999998  1.0000
  N   N12       1.0  0.05718999999999999  0.16318000000000002  0.83682  1.0000
  N   N13       1.0  0.54123  0.38018000000000013  0.03418  1.0000
  N   N14       1.0  0.23497999999999997  0.7701200000000002  0.88223  1.0000
  N   N15       1.0  0.75985  0.22519000000000006  0.62846  1.0000
  N   N16       1.0  0.03276  0.64135  0.50774  1.0000
  N   N17       1.0  0.0551  0.10767000000000003  0.98338  1.0000
  N   N18       1.0  0.07522  0.14153  0.9557499999999999  1.0000
  N   N19       1.0  0.5550999999999999  0.89233  0.01663  1.0000
  N   N20       1.0  0.6525  0.6944100000000001  0.20235  1.0000
  N   N21       1.0  0.5139899999999998  0.87068  0.9813999999999998  1.0000
  N   N22       1.0  0.2115  0.56721  0.43278  1.0000
  N   N23       1.0  0.7319599999999999  0.2795500000000001  0.13323  1.0000
  N   N24       1.0  0.57709  0.28661  0.71339  1.0000
  N   N25       1.0  0.8450899999999999  0.90955  0.59032  1.0000
  N   N26       1.0  0.03844  0.9844000000000003  0.36535  1.0000
  N   N27       1.0  0.52736  0.2662300000000001  0.73377  1.0000
  N   N28       1.0  0.54229  0.30126  0.54236  1.0000
  N   N29       1.0  0.13358  0.15896  0.50197  1.0000
  N   N30       1.0  0.74841  0.9287900000000002  0.56048  1.0000
  N   N31       1.0  0.8626499999999999  0.28253  0.22261  1.0000
  N   N32       1.0  0.6335799999999999  0.5019700000000001  0.15897  1.0000
  N   N33       1.0  0.023209999999999995  0.67812  0.80746  1.0000
  N   N34       1.0  0.25983  0.7748200000000001  0.37153  1.0000
  N   N35       1.0  0.54123  0.9658100000000002  0.6198199999999999  1.0000
  N   N36       1.0  0.11830999999999997  0.0399  0.06629  1.0000
  N   N37       1.0  0.34509999999999996  0.5903300000000001  0.9095399999999998  1.0000
  N   N38       1.0  0.17197999999999997  0.12522  0.29592  1.0000
  N   N39       1.0  0.57058  0.4687800000000001  0.62372  1.0000
  N   N40       1.0  0.21682  0.65073  0.2585  1.0000
  N   N41       1.0  0.57603  0.4384000000000001  0.65797  1.0000
  N   N42       1.0  0.7114799999999999  0.43279000000000006  0.5672099999999999  1.0000
  N   N43       1.0  0.9267499999999999  0.1658  0.34536999999999995  1.0000
  N   N44       1.0  0.89253  0.39724  0.21617999999999998  1.0000
  N   N45       1.0  0.53237  0.83881  0.6461599999999998  1.0000
  N   N46       1.0  0.48976999999999987  0.3168  0.6831999999999998  1.0000
  N   N47       1.0  0.57523  0.85847  0.04425  1.0000
  N   N48       1.0  0.64598  0.44224  0.4544299999999999  1.0000
  N   N49       1.0  0.5232199999999999  0.80747  0.6781199999999998  1.0000
  N   N50       1.0  0.57603  0.3420200000000001  0.5616  1.0000
  N   N51       1.0  0.6997099999999998  0.8033400000000003  0.09847  1.0000
  N   N52       1.0  0.04769  0.18591999999999997  0.9728099999999997  1.0000
  N   N53       1.0  0.7177599999999998  0.77589  0.13303  1.0000
  N   N54       1.0  0.5973799999999999  0.8595  0.53776  1.0000
  N   N55       1.0  0.98977  0.6831999999999999  0.31679999999999997  1.0000
  N   N56       1.0  0.4267499999999999  0.3453600000000001  0.16579  1.0000
  N   N57       1.0  0.73994  0.40757  0.10276  1.0000
  N   N58       1.0  0.53843  0.015610000000000008  0.63464  1.0000
  N   N59       1.0  0.14599  0.55776  0.54556  1.0000
  N   N60       1.0  0.023209999999999995  0.19254  0.32187999999999994  1.0000
  N   N61       1.0  0.17197999999999997  0.70408  0.8747799999999999  1.0000
  N   N62       1.0  0.5788999999999999  0.8063400000000002  0.19366  1.0000
  N   N63       1.0  0.01399  0.12932  0.01861  1.0000
  N   N64       1.0  0.7140299999999998  0.39997  0.60003  1.0000
  N   N65       1.0  0.48668999999999996  0.0036100000000000004  0.99638  1.0000
  N   N66       1.0  0.14885  0.26032  0.40963  1.0000
  N   N67       1.0  0.47464  0.3678700000000001  0.1451  1.0000
  N   N68       1.0  0.38331  0.9627000000000002  0.64486  1.0000
  N   N69       1.0  0.6000999999999999  0.9490200000000001  0.6302699999999998  1.0000
  N   N70       1.0  0.2154  0.07617000000000006  0.92383  1.0000
  N   N71       1.0  0.34509999999999996  0.09045  0.40967  1.0000
  N   N72       1.0  0.64884  0.73967  0.59038  1.0000
  N   N73       1.0  0.23672999999999997  0.6303000000000002  0.7700699999999999  1.0000
  N   N74       1.0  0.07603  0.6579700000000002  0.4383999999999999  1.0000
  N   N75       1.0  0.77601  0.39022  0.6097799999999999  1.0000
  N   N76       1.0  0.028919999999999998  0.21386000000000005  0.78614  1.0000
  N   N77       1.0  0.55719  0.8368200000000001  0.16317  1.0000
  N   N78       1.0  0.53971  0.87489  0.52295  1.0000
  N   N79       1.0  0.69379  0.95436  0.04564  1.0000
  N   N80       1.0  0.41079999999999994  0.4694200000000001  0.027599999999999996  1.0000
  N   N81       1.0  0.21847  0.5721200000000001  0.26822  1.0000
  N   N82       1.0  0.042289999999999994  0.54236  0.3012599999999999  1.0000
  N   N83       1.0  0.75801  0.8875400000000002  0.2604  1.0000
  N   N84       1.0  0.69206  0.2844  0.61708  1.0000
  N   N85       1.0  0.7726099999999999  0.4454700000000001  0.55452  1.0000
  N   N86       1.0  0.7184899999999999  0.26823  0.57212  1.0000
  N   N87       1.0  0.04123999999999999  0.61982  0.9658099999999998  1.0000
  N   N88       1.0  0.24389999999999998  0.025469999999999965  0.9745199999999998  1.0000
  N   N89       1.0  0.0706  0.5312100000000001  0.37627999999999995  1.0000
  N   N90       1.0  0.73496  0.8822200000000001  0.77012  1.0000
  N   N91       1.0  0.6804799999999998  0.3903800000000001  0.21842999999999999  1.0000
  N   N92       1.0  0.13708999999999996  0.012679999999999983  0.3486799999999999  1.0000
  N   N93       1.0  0.88332  0.03729  0.3551399999999999  1.0000
  N   N94       1.0  0.75801  0.73959  0.11245999999999998  1.0000
  N   N95       1.0  0.13458  0.10505  0.25743  1.0000
  N   N96       1.0  0.03237  0.6461600000000002  0.8387999999999999  1.0000
  N   N97       1.0  0.7801499999999999  0.9237000000000002  0.07629  1.0000
  N   N98       1.0  0.79776  0.3897400000000001  0.11421  1.0000
  N   N99       1.0  0.21682  0.7414900000000001  0.34927  1.0000
  N   N100      1.0  0.38331  0.35514  0.03729  1.0000
  N   N101      1.0  0.07708  0.71339  0.28661  1.0000
  N   N102      1.0  0.22775  0.05453000000000001  0.7849999999999999  1.0000
  N   N103      1.0  0.23198  0.72045  0.86677  1.0000
  N   N104      1.0  0.67196  0.87478  0.70408  1.0000
  N   N105      1.0  0.03276  0.4922600000000001  0.35864  1.0000
  N   N106      1.0  0.7177599999999998  0.8669700000000002  0.22411  1.0000
  N   N107      1.0  0.6997099999999998  0.9015200000000002  0.19665999999999997  1.0000
  N   N108      1.0  0.71684  0.25850000000000006  0.6507299999999999  1.0000
  N   N109      1.0  0.7184899999999999  0.42788000000000004  0.73176  1.0000
  N   N110      1.0  0.73674  0.7700700000000003  0.63029  1.0000
  N   N111      1.0  0.8450899999999999  0.4096800000000001  0.09045  1.0000
  N   N112      1.0  0.88332  0.6448600000000002  0.96271  1.0000
  N   N113      1.0  0.23497999999999997  0.11777000000000004  0.22988  1.0000
  N   N114      1.0  0.28015  0.07629999999999997  0.9236999999999997  1.0000
  N   N115      1.0  0.3626599999999999  0.71747  0.77739  1.0000
  N   N116      1.0  0.97465  0.6321300000000001  0.8548899999999998  1.0000
  N   N117      1.0  0.5369599999999999  0.52726  0.13424  1.0000
  N   N118      1.0  0.24841999999999997  0.07121  0.43952  1.0000
  N   N119      1.0  0.04123999999999999  0.034189999999999984  0.3801699999999999  1.0000
  N   N120      1.0  0.27263  0.55453  0.44547  1.0000
  N   N121      1.0  0.39254  0.6027600000000002  0.78382  1.0000
  N   N122      1.0  0.7319599999999999  0.8667700000000005  0.72045  1.0000
  N   N123      1.0  0.19204  0.61708  0.2844  1.0000
  N   N124      1.0  0.18048999999999998  0.21842999999999999  0.39039  1.0000
  N   N125      1.0  0.5139899999999998  0.0186  0.12932  1.0000
  N   N126      1.0  0.07522  0.044250000000000005  0.85847  1.0000
  N   N127      1.0  0.8901299999999999  0.2832200000000001  0.10739  1.0000
  N   N128      1.0  0.61831  0.9601  0.93371  1.0000
  N   N129      1.0  0.4267499999999999  0.8342100000000002  0.65463  1.0000
  N   N130      1.0  0.47464  0.85489  0.63213  1.0000
  N   N131      1.0  0.23198  0.13322  0.27955  1.0000
  N   N132      1.0  0.71684  0.34927000000000014  0.7414899999999998  1.0000
  N   N133      1.0  0.09738  0.5377600000000001  0.85951  1.0000
  N   N134      1.0  0.73674  0.3697  0.22993  1.0000
  N   N135      1.0  0.25983  0.62846  0.22517999999999996  1.0000
  N   N136      1.0  0.74841  0.43952  0.07121  1.0000
  N   N137      1.0  0.39254  0.21618  0.39724  1.0000
  N   N138      1.0  0.53237  0.3538299999999999  0.16117999999999996  1.0000
  N   N139      1.0  0.63708  0.9873200000000002  0.6513199999999999  1.0000
  N   N140      1.0  0.52004  0.48531  0.51469  1.0000
  N   N141      1.0  0.49237  0.83688  0.16311999999999993  1.0000
  N   N142      1.0  0.14885  0.5903600000000001  0.73967  1.0000
  N   N143      1.0  0.9267499999999999  0.6546300000000003  0.8341999999999999  1.0000
  N   N144      1.0  0.63456  0.8949400000000001  0.74256  1.0000
  N   N145      1.0  0.29775999999999997  0.11422000000000002  0.38973999999999986  1.0000
  N   N146      1.0  0.6335799999999999  0.84103  0.49802999999999986  1.0000
  N   N147      1.0  0.64884  0.40962  0.26033  1.0000
  N   N148      1.0  0.15249999999999997  0.30558  0.7976499999999999  1.0000
  N   N149      1.0  0.5232199999999999  0.3218800000000001  0.19253  1.0000
  N   N150      1.0  0.73994  0.89724  0.59242  1.0000
  N   N151      1.0  0.21847  0.7317700000000003  0.42787999999999987  1.0000
  N   N152      1.0  0.18048999999999998  0.6096100000000002  0.7815699999999999  1.0000
  N   N153      1.0  0.8626499999999999  0.7773900000000001  0.71747  1.0000
  N   N154      1.0  0.07603  0.5616  0.34201999999999994  1.0000
  N   N155      1.0  0.10010999999999999  0.05099  0.36972  1.0000
  N   N156      1.0  0.5544199999999999  0.31693  0.68307  1.0000
  N   N157      1.0  0.7426399999999999  0.72028  0.6246099999999999  1.0000
  N   N158      1.0  0.11830999999999997  0.9337100000000002  0.9601  1.0000
  N   N159      1.0  0.3626599999999999  0.22261  0.28253  1.0000
  N   N160      1.0  0.24262999999999998  0.27972  0.37537  1.0000
  N   N161      1.0  0.15559999999999996  0.8228800000000002  0.28257  1.0000
  N   N162      1.0  0.63708  0.34868  0.01267  1.0000
  N   N163      1.0  0.13708999999999996  0.65132  0.98731  1.0000
  N   N164      1.0  0.03695  0.47274  0.86576  1.0000
  N   N165      1.0  0.7438799999999999  0.9745300000000001  0.02547  1.0000
  N   N166      1.0  0.5327399999999999  0.35865  0.49227  1.0000
  N   N167      1.0  0.97465  0.14511  0.36786999999999986  1.0000
  N   N168      1.0  0.38181  0.4717900000000001  0.1413  1.0000
  N   N169      1.0  0.7848099999999999  0.7561400000000003  0.24385  1.0000
  N   N170      1.0  0.23672999999999997  0.22993000000000005  0.3697  1.0000
  N   N171      1.0  0.29775999999999997  0.6102600000000001  0.8857799999999999  1.0000
  N   N172      1.0  0.21776  0.13303  0.77589  1.0000
  N   N173      1.0  0.69206  0.38292  0.71559  1.0000
  N   N174      1.0  0.13458  0.74257  0.89495  1.0000
  N   N175      1.0  0.6525  0.79765  0.30558  1.0000
  N   N176      1.0  0.73496  0.22988  0.11778  1.0000
  N   N177      1.0  0.7277799999999999  0.9454600000000002  0.21498999999999996  1.0000
  N   N178      1.0  0.79776  0.8857900000000002  0.6102599999999999  1.0000
  N   N179      1.0  0.24841999999999997  0.5604800000000001  0.92879  1.0000
  N   N180      1.0  0.21776  0.22410000000000005  0.86697  1.0000
  N   N181      1.0  0.0397  0.5229500000000001  0.8748899999999998  1.0000
  N   N182      1.0  0.8818099999999999  0.14129000000000003  0.47179  1.0000
  N   N183      1.0  0.042289999999999994  0.6987400000000001  0.4576399999999999  1.0000
  N   N184      1.0  0.9107899999999999  0.53058  0.9723999999999998  1.0000
  N   N185      1.0  0.64598  0.5455700000000001  0.55776  1.0000
  N   N186      1.0  0.63456  0.25744  0.10506  1.0000
  N   N187      1.0  0.19968999999999995  0.09847000000000002  0.80333  1.0000
  N   N188      1.0  0.28718999999999995  0.7626000000000001  0.23739  1.0000
  N   N189      1.0  0.38181  0.85869  0.5282  1.0000
  N   N190      1.0  0.15559999999999996  0.71742  0.17712  1.0000
  N   N191      1.0  0.10010999999999999  0.63028  0.94901  1.0000
  N   N192      1.0  0.03695  0.13424  0.52725  1.0000
  N   N193      1.0  0.5973799999999999  0.4622300000000001  0.1405  1.0000
  N   N194      1.0  0.05442  0.6830700000000001  0.31693  1.0000
  N   N195      1.0  0.19381  0.04564000000000003  0.95436  1.0000
  N   N196      1.0  0.23994  0.5924200000000002  0.89724  1.0000
  N   N197      1.0  0.5369599999999999  0.8657600000000001  0.47274  1.0000
  N   N198      1.0  0.57523  0.9557500000000002  0.14153  1.0000
  N   N199      1.0  0.41079999999999994  0.9724000000000003  0.53058  1.0000
  N   N200      1.0  0.14599  0.45444000000000023  0.44224  1.0000
  N   N201      1.0  0.5289199999999998  0.78614  0.21386  1.0000
  N   N202      1.0  0.6804799999999998  0.7815699999999999  0.60962  1.0000
  N   N203      1.0  0.53843  0.3653600000000001  0.9843899999999998  1.0000
  N   N204      1.0  0.03237  0.16120000000000007  0.35383  1.0000
  N   N205      1.0  0.61831  0.06629  0.03989999999999999  1.0000
  N   N206      1.0  0.02736  0.73377  0.26623  1.0000
  N   N207      1.0  0.39013999999999993  0.7167900000000003  0.89261  1.0000
  N   N208      1.0  0.27601999999999993  0.6097900000000002  0.39020999999999995  1.0000
  N   N209      1.0  0.13358  0.4980299999999999  0.84104  1.0000
  N   N210      1.0  0.6555999999999997  0.28257  0.82288  1.0000
  N   N211      1.0  0.07888999999999999  0.19366000000000005  0.80633  1.0000
  N   N212      1.0  0.67196  0.29592  0.12522  1.0000
  N   N213      1.0  0.5327399999999999  0.5077300000000001  0.64135  1.0000
  N   N214      1.0  0.9866799999999999  0.9963900000000002  0.0036099999999999995  1.0000
  N   N215      1.0  0.19968999999999995  0.19666  0.90153  1.0000
  N   N216      1.0  0.0706  0.62372  0.46878  1.0000
  N   N217      1.0  0.09738  0.14049  0.4622299999999999  1.0000
  N   N218      1.0  0.01399  0.9813899999999998  0.8706799999999998  1.0000
  N   N219      1.0  0.9107899999999999  0.027600000000000013  0.46942  1.0000
  N   N220      1.0  0.7426399999999999  0.37538  0.27972  1.0000
  N   N221      1.0  0.21404  0.6000300000000001  0.39996  1.0000
  N   N222      1.0  0.7277799999999999  0.78501  0.054529999999999995  1.0000
  N   N223      1.0  0.8901299999999999  0.89261  0.7167799999999999  1.0000
  N   N224      1.0  0.57058  0.37628  0.53122  1.0000
  N   N225      1.0  0.89253  0.7838200000000002  0.60276  1.0000
  N   N226      1.0  0.25801  0.11246  0.7396  1.0000
  N   N227      1.0  0.04769999999999999  0.027190000000000002  0.81408  1.0000
  N   N228      1.0  0.39013999999999993  0.10739000000000003  0.28321  1.0000
  N   N229      1.0  0.23994  0.10276  0.40757999999999994  1.0000
  N   N230      1.0  0.03844  0.63465  0.0156  1.0000
  N   N231      1.0  0.6000999999999999  0.36973  0.05098  1.0000
  N   N232      1.0  0.8818099999999999  0.52821  0.8586999999999999  1.0000
  N   N233      1.0  0.28481  0.24385000000000004  0.75614  1.0000
  N   N234      1.0  0.99237  0.16312000000000004  0.83687  1.0000
  N   N235      1.0  0.15249999999999997  0.20235  0.69441  1.0000
  N   N236      1.0  0.6555999999999997  0.17712  0.71742  1.0000
  N   N237      1.0  0.7154  0.92383  0.07616  1.0000
  N   N238      1.0  0.02005  0.5147  0.4852999999999999  1.0000
  N   N239      1.0  0.54771  0.81407  0.02718  1.0000
  N   N240      1.0  0.039709999999999995  0.12511  0.47705  1.0000
