data_image0
_chemical_formula_structural       Gd48H208C592N64O288
_chemical_formula_sum              "Gd48 H208 C592 N64 O288"
_cell_length_a       21.26392
_cell_length_b       37.250589999999995
_cell_length_c       40.95315
_cell_angle_alpha    90.16052999999998
_cell_angle_beta     90.00228000000001
_cell_angle_gamma    89.9906

_symmetry_space_group_name_H-M    'P 1'
_symmetry_Int_Tables_number       1

loop_
  _symmetry_equiv_pos_as_xyz
  'x,y,z'

loop_
  _atom_site_type_symbol
  _atom_site_label
  _atom_site_symmetry_multiplicity
  _atom_site_fract_x
  _atom_site_fract_y
  _atom_site_fract_z
  _atom_site_occupancy
  Gd  Gd1       1.0  0.93422  0.7178  0.9601999999999999  1.0000
  Gd  Gd2       1.0  0.72558  0.486  0.10409999999999998  1.0000
  Gd  Gd3       1.0  0.85875  0.54048  0.15697999999999998  1.0000
  Gd  Gd4       1.0  0.643  0.40176  0.8519799999999998  1.0000
  Gd  Gd5       1.0  0.22402  0.63713  0.06786999999999999  1.0000
  Gd  Gd6       1.0  0.05984  0.66277  0.01697  1.0000
  Gd  Gd7       1.0  0.06573  0.782  0.45965999999999996  1.0000
  Gd  Gd8       1.0  0.27499  0.013920000000000002  0.60444  1.0000
  Gd  Gd9       1.0  0.14128  0.9597000000000001  0.65691  1.0000
  Gd  Gd10      1.0  0.35722  0.09745  0.35285999999999995  1.0000
  Gd  Gd11      1.0  0.77617  0.8624  0.56807  1.0000
  Gd  Gd12      1.0  0.94045  0.83738  0.51694  1.0000
  Gd  Gd13      1.0  0.43433999999999995  0.28204  0.53988  1.0000
  Gd  Gd14      1.0  0.22662  0.51398  0.39581  1.0000
  Gd  Gd15      1.0  0.35755  0.45953  0.34307999999999994  1.0000
  Gd  Gd16      1.0  0.14428  0.5979  0.6477099999999999  1.0000
  Gd  Gd17      1.0  0.72258  0.36263  0.43173  1.0000
  Gd  Gd18      1.0  0.56042  0.33734  0.48312  1.0000
  Gd  Gd19      1.0  0.56577  0.2182  0.04003  1.0000
  Gd  Gd20      1.0  0.77342  0.9858800000000001  0.8957299999999999  1.0000
  Gd  Gd21      1.0  0.6422  0.04014  0.84321  1.0000
  Gd  Gd22      1.0  0.85599  0.90272  0.14718  1.0000
  Gd  Gd23      1.0  0.27775  0.13764  0.93158  1.0000
  Gd  Gd24      1.0  0.43969  0.16258  0.98319  1.0000
  Gd  Gd25      1.0  0.06579  0.28221  0.03979  1.0000
  Gd  Gd26      1.0  0.27442  0.51401  0.8959  1.0000
  Gd  Gd27      1.0  0.14125  0.45952  0.84302  1.0000
  Gd  Gd28      1.0  0.35701  0.59824  0.14802  1.0000
  Gd  Gd29      1.0  0.77598  0.36287  0.9321299999999999  1.0000
  Gd  Gd30      1.0  0.94016  0.33723  0.9830199999999999  1.0000
  Gd  Gd31      1.0  0.9342699999999999  0.21801  0.5403399999999999  1.0000
  Gd  Gd32      1.0  0.72501  0.98609  0.39555  1.0000
  Gd  Gd33      1.0  0.85872  0.04031  0.34309  1.0000
  Gd  Gd34      1.0  0.64278  0.90255  0.64714  1.0000
  Gd  Gd35      1.0  0.22384  0.13761  0.43193  1.0000
  Gd  Gd36      1.0  0.05955  0.16263  0.48306  1.0000
  Gd  Gd37      1.0  0.56567  0.71796  0.46012  1.0000
  Gd  Gd38      1.0  0.77339  0.48602999999999996  0.6041799999999999  1.0000
  Gd  Gd39      1.0  0.64245  0.54048  0.65692  1.0000
  Gd  Gd40      1.0  0.8557199999999999  0.40211  0.35228999999999994  1.0000
  Gd  Gd41      1.0  0.27742  0.63737  0.56827  1.0000
  Gd  Gd42      1.0  0.43958  0.66266  0.51687  1.0000
  Gd  Gd43      1.0  0.43424  0.7818  0.9599699999999999  1.0000
  Gd  Gd44      1.0  0.22658999999999999  0.014119999999999999  0.10426  1.0000
  Gd  Gd45      1.0  0.35781  0.95986  0.15679  1.0000
  Gd  Gd46      1.0  0.144  0.09728  0.85282  1.0000
  Gd  Gd47      1.0  0.72226  0.86237  0.06842  1.0000
  Gd  Gd48      1.0  0.56031  0.83743  0.01681  1.0000
  H   H1        1.0  0.72798  0.77264  0.9675999999999999  1.0000
  H   H2        1.0  0.56624  0.71644  0.92955  1.0000
  H   H3        1.0  0.72795  0.61471  0.19069  1.0000
  H   H4        1.0  0.7537900000000001  0.68316  0.90235  1.0000
  H   H5        1.0  0.89895  0.60615  0.05885  1.0000
  H   H6        1.0  0.72049  0.55563  0.039459999999999995  1.0000
  H   H7        1.0  0.79368  0.63542  0.97294  1.0000
  H   H8        1.0  0.89054  0.40643  0.06992  1.0000
  H   H9        1.0  0.07916  0.37942  0.0995  1.0000
  H   H10       1.0  0.98452  0.47105  0.14216  1.0000
  H   H11       1.0  0.69815  0.43422000000000005  0.9953799999999999  1.0000
  H   H12       1.0  0.57753  0.48097  0.92239  1.0000
  H   H13       1.0  0.58114  0.52412  0.02066  1.0000
  H   H14       1.0  0.82135  0.46083  0.24592999999999998  1.0000
  H   H15       1.0  0.73103  0.35916  0.26292  1.0000
  H   H16       1.0  0.70312  0.41459  0.17149  1.0000
  H   H17       1.0  0.06617  0.58467  0.13301  1.0000
  H   H18       1.0  0.23226  0.5411  0.1789  1.0000
  H   H19       1.0  0.047659999999999994  0.51767  0.21776  1.0000
  H   H20       1.0  0.87424  0.78193  0.049109999999999994  1.0000
  H   H21       1.0  0.9325799999999999  0.81542  0.14546  1.0000
  H   H22       1.0  0.04549  0.74  0.0902  1.0000
  H   H23       1.0  0.57395  0.55903  0.14473  1.0000
  H   H24       1.0  0.53845  0.65575  0.19943  1.0000
  H   H25       1.0  0.07424  0.65377  0.11415999999999997  1.0000
  H   H26       1.0  0.1988  0.63888  0.9721999999999998  1.0000
  H   H27       1.0  0.27178  0.72739  0.46713  1.0000
  H   H28       1.0  0.43428  0.78354  0.43018  1.0000
  H   H29       1.0  0.2723  0.8852299999999999  0.69109  1.0000
  H   H30       1.0  0.24729  0.81705  0.40239  1.0000
  H   H31       1.0  0.10143  0.89415  0.55873  1.0000
  H   H32       1.0  0.28079  0.9436099999999998  0.5396  1.0000
  H   H33       1.0  0.20636  0.8639200000000001  0.47286  1.0000
  H   H34       1.0  0.1105  0.09361  0.57  1.0000
  H   H35       1.0  0.92149  0.12070000000000002  0.59893  1.0000
  H   H36       1.0  0.01539  0.02911  0.64162  1.0000
  H   H37       1.0  0.30366  0.06652  0.49704  1.0000
  H   H38       1.0  0.42107  0.01954  0.42252  1.0000
  H   H39       1.0  0.4195900000000001  0.9756  0.52028  1.0000
  H   H40       1.0  0.17911  0.03945  0.74628  1.0000
  H   H41       1.0  0.26977  0.14106  0.76361  1.0000
  H   H42       1.0  0.29613  0.08586  0.67165  1.0000
  H   H43       1.0  0.93386  0.91556  0.63298  1.0000
  H   H44       1.0  0.7681799999999999  0.9595  0.67911  1.0000
  H   H45       1.0  0.9529899999999999  0.98239  0.71815  1.0000
  H   H46       1.0  0.12778  0.71813  0.54854  1.0000
  H   H47       1.0  0.06886  0.68476  0.64467  1.0000
  H   H48       1.0  0.95579  0.75969  0.58936  1.0000
  H   H49       1.0  0.42592  0.9406  0.64472  1.0000
  H   H50       1.0  0.46194  0.84436  0.6995  1.0000
  H   H51       1.0  0.92619  0.84639  0.6141899999999999  1.0000
  H   H52       1.0  0.80182  0.8591999999999999  0.47248  1.0000
  H   H53       1.0  0.22808  0.22709  0.53227  1.0000
  H   H54       1.0  0.06656  0.28352  0.57037  1.0000
  H   H55       1.0  0.22658999999999999  0.3853  0.30966  1.0000
  H   H56       1.0  0.25419  0.31654  0.5975399999999998  1.0000
  H   H57       1.0  0.39921  0.39328  0.4409  1.0000
  H   H58       1.0  0.22133  0.44433  0.46066  1.0000
  H   H59       1.0  0.29338  0.36338  0.52642  1.0000
  H   H60       1.0  0.39124  0.5934  0.42993999999999993  1.0000
  H   H61       1.0  0.57976  0.62079  0.40058999999999995  1.0000
  H   H62       1.0  0.48584  0.52903  0.35774  1.0000
  H   H63       1.0  0.19867  0.567  0.50397  1.0000
  H   H64       1.0  0.07904  0.5196  0.57705  1.0000
  H   H65       1.0  0.08227  0.47686  0.47865  1.0000
  H   H66       1.0  0.32066  0.53908  0.2541  1.0000
  H   H67       1.0  0.23102  0.64095  0.23699  1.0000
  H   H68       1.0  0.20231999999999997  0.58557  0.32837  1.0000
  H   H69       1.0  0.56462  0.41549  0.36694  1.0000
  H   H70       1.0  0.73073  0.45866000000000007  0.3208  1.0000
  H   H71       1.0  0.54609  0.48209  0.28193  1.0000
  H   H72       1.0  0.3744  0.21786999999999998  0.45153999999999994  1.0000
  H   H73       1.0  0.43191  0.18475  0.35493  1.0000
  H   H74       1.0  0.54512  0.26005  0.41014999999999996  1.0000
  H   H75       1.0  0.07249  0.44125  0.35529  1.0000
  H   H76       1.0  0.03706  0.34441  0.30075  1.0000
  H   H77       1.0  0.57214  0.34612  0.38587999999999995  1.0000
  H   H78       1.0  0.69957  0.36038  0.52766  1.0000
  H   H79       1.0  0.77156  0.27309  0.03293  1.0000
  H   H80       1.0  0.93364  0.21644999999999998  0.06983  1.0000
  H   H81       1.0  0.7731499999999999  0.11424999999999999  0.80984  1.0000
  H   H82       1.0  0.74642  0.18329  0.09746999999999999  1.0000
  H   H83       1.0  0.60099  0.10667  0.9410399999999999  1.0000
  H   H84       1.0  0.7789399999999999  0.05576  0.96062  1.0000
  H   H85       1.0  0.70666  0.13673  0.02672  1.0000
  H   H86       1.0  0.6089  0.9064999999999999  0.92999  1.0000
  H   H87       1.0  0.42021  0.87902  0.90085  1.0000
  H   H88       1.0  0.5138  0.97069  0.85812  1.0000
  H   H89       1.0  0.80091  0.9329199999999999  0.003119999999999999  1.0000
  H   H90       1.0  0.9210799999999999  0.97868  0.07707  1.0000
  H   H91       1.0  0.9179  0.02316  0.97949  1.0000
  H   H92       1.0  0.6793  0.9607400000000001  0.7537  1.0000
  H   H93       1.0  0.76856  0.85876  0.73606  1.0000
  H   H94       1.0  0.79741  0.91408  0.8277699999999998  1.0000
  H   H95       1.0  0.43509  0.08427  0.8670099999999998  1.0000
  H   H96       1.0  0.26942  0.04072  0.8205499999999999  1.0000
  H   H97       1.0  0.4543  0.018  0.7814999999999999  1.0000
  H   H98       1.0  0.6242  0.28259  0.95198  1.0000
  H   H99       1.0  0.56625  0.31522  0.85546  1.0000
  H   H100      1.0  0.45402  0.23962  0.9104599999999999  1.0000
  H   H101      1.0  0.92659  0.05863  0.8561099999999999  1.0000
  H   H102      1.0  0.9632699999999998  0.15419  0.80051  1.0000
  H   H103      1.0  0.42807999999999996  0.15384  0.8858599999999999  1.0000
  H   H104      1.0  0.29975  0.13918  0.027509999999999996  1.0000
  H   H105      1.0  0.27202  0.22737  0.0324  1.0000
  H   H106      1.0  0.4337599999999999  0.28357  0.07045  1.0000
  H   H107      1.0  0.27206  0.3853  0.80931  1.0000
  H   H108      1.0  0.24622  0.31685  0.09765  1.0000
  H   H109      1.0  0.10105000000000001  0.39386  0.94115  1.0000
  H   H110      1.0  0.27952  0.44438  0.9605399999999998  1.0000
  H   H111      1.0  0.20632  0.36459  0.027059999999999997  1.0000
  H   H112      1.0  0.10946  0.59357  0.9300799999999999  1.0000
  H   H113      1.0  0.92085  0.62058  0.9005  1.0000
  H   H114      1.0  0.015479999999999999  0.52896  0.85784  1.0000
  H   H115      1.0  0.30185  0.56578  0.00462  1.0000
  H   H116      1.0  0.42246999999999996  0.51903  0.07761  1.0000
  H   H117      1.0  0.41886999999999996  0.47587999999999997  0.9793299999999999  1.0000
  H   H118      1.0  0.17865  0.53918  0.75407  1.0000
  H   H119      1.0  0.26897  0.64084  0.7370699999999999  1.0000
  H   H120      1.0  0.29688  0.58542  0.82851  1.0000
  H   H121      1.0  0.93384  0.41534  0.8669899999999999  1.0000
  H   H122      1.0  0.7677499999999999  0.4589  0.8211  1.0000
  H   H123      1.0  0.95235  0.4823299999999999  0.78224  1.0000
  H   H124      1.0  0.12576  0.21806999999999999  0.95089  1.0000
  H   H125      1.0  0.06742  0.18458  0.85454  1.0000
  H   H126      1.0  0.95451  0.26  0.9098  1.0000
  H   H127      1.0  0.42606  0.44098  0.85527  1.0000
  H   H128      1.0  0.46156  0.34426  0.80057  1.0000
  H   H129      1.0  0.9257699999999999  0.34623  0.88584  1.0000
  H   H130      1.0  0.80121  0.36113  0.0278  1.0000
  H   H131      1.0  0.72822  0.27261  0.53287  1.0000
  H   H132      1.0  0.56573  0.21647  0.5698099999999999  1.0000
  H   H133      1.0  0.7277  0.11478  0.3089199999999999  1.0000
  H   H134      1.0  0.75272  0.18295  0.5976  1.0000
  H   H135      1.0  0.89857  0.10585  0.44127  1.0000
  H   H136      1.0  0.71922  0.05639000000000001  0.4603999999999999  1.0000
  H   H137      1.0  0.7936399999999999  0.13608  0.52714  1.0000
  H   H138      1.0  0.8895100000000001  0.9064000000000001  0.42999999999999994  1.0000
  H   H139      1.0  0.07851  0.87931  0.40106  1.0000
  H   H140      1.0  0.98462  0.9708900000000001  0.35838  1.0000
  H   H141      1.0  0.69634  0.9334799999999999  0.50296  1.0000
  H   H142      1.0  0.57894  0.9804699999999998  0.57747  1.0000
  H   H143      1.0  0.58042  0.024400000000000005  0.47971  1.0000
  H   H144      1.0  0.8209  0.9605499999999999  0.25371999999999995  1.0000
  H   H145      1.0  0.73024  0.85895  0.23639  1.0000
  H   H146      1.0  0.70387  0.91415  0.32834  1.0000
  H   H147      1.0  0.06614  0.08444  0.36701999999999996  1.0000
  H   H148      1.0  0.23182  0.0405  0.32088999999999995  1.0000
  H   H149      1.0  0.04702  0.01761  0.28185  1.0000
  H   H150      1.0  0.87222  0.28187  0.45145  1.0000
  H   H151      1.0  0.9311399999999999  0.31524  0.35533  1.0000
  H   H152      1.0  0.04422  0.24031999999999998  0.41064  1.0000
  H   H153      1.0  0.57406  0.05941  0.3552699999999999  1.0000
  H   H154      1.0  0.53806  0.15565  0.30048  1.0000
  H   H155      1.0  0.07381  0.15361  0.38581  1.0000
  H   H156      1.0  0.19818  0.14081  0.52752  1.0000
  H   H157      1.0  0.77193  0.77292  0.46772999999999987  1.0000
  H   H158      1.0  0.9334399999999999  0.71649  0.42963  1.0000
  H   H159      1.0  0.77341  0.61471  0.69034  1.0000
  H   H160      1.0  0.74581  0.68346  0.40246  1.0000
  H   H161      1.0  0.60079  0.60673  0.5591  1.0000
  H   H162      1.0  0.77868  0.55567  0.53934  1.0000
  H   H163      1.0  0.70663  0.63663  0.47357999999999995  1.0000
  H   H164      1.0  0.60877  0.4066  0.5700499999999998  1.0000
  H   H165      1.0  0.42024999999999996  0.37921  0.59941  1.0000
  H   H166      1.0  0.51416  0.47097  0.64226  1.0000
  H   H167      1.0  0.8013399999999999  0.433  0.49602999999999997  1.0000
  H   H168      1.0  0.92096  0.48039999999999994  0.42295  1.0000
  H   H169      1.0  0.91773  0.52315  0.52135  1.0000
  H   H170      1.0  0.67934  0.46093  0.7459  1.0000
  H   H171      1.0  0.76898  0.35906  0.7630099999999999  1.0000
  H   H172      1.0  0.79769  0.41443  0.67163  1.0000
  H   H173      1.0  0.43538999999999994  0.58451  0.63306  1.0000
  H   H174      1.0  0.26927  0.54135  0.6792  1.0000
  H   H175      1.0  0.45391999999999993  0.51792  0.71807  1.0000
  H   H176      1.0  0.62561  0.78213  0.54846  1.0000
  H   H177      1.0  0.5681  0.81526  0.64507  1.0000
  H   H178      1.0  0.45489000000000007  0.73995  0.58985  1.0000
  H   H179      1.0  0.92752  0.55876  0.64471  1.0000
  H   H180      1.0  0.96294  0.6556  0.6992499999999999  1.0000
  H   H181      1.0  0.42785999999999996  0.65389  0.61412  1.0000
  H   H182      1.0  0.30043  0.63963  0.4723399999999999  1.0000
  H   H183      1.0  0.22845000000000001  0.72692  0.96707  1.0000
  H   H184      1.0  0.06637  0.78356  0.93017  1.0000
  H   H185      1.0  0.22684  0.8857500000000001  0.19016  1.0000
  H   H186      1.0  0.25358  0.81672  0.90253  1.0000
  H   H187      1.0  0.39902  0.89334  0.05896  1.0000
  H   H188      1.0  0.22107  0.9442399999999999  0.03938  1.0000
  H   H189      1.0  0.29335  0.86328  0.9732799999999999  1.0000
  H   H190      1.0  0.39110000000000006  0.09351  0.07001  1.0000
  H   H191      1.0  0.57979  0.12098  0.09915  1.0000
  H   H192      1.0  0.48621  0.029319999999999995  0.14187999999999998  1.0000
  H   H193      1.0  0.19909  0.06709  0.99688  1.0000
  H   H194      1.0  0.07892  0.02132  0.92293  1.0000
  H   H195      1.0  0.08211  0.9768400000000002  0.02051  1.0000
  H   H196      1.0  0.3207  0.03927  0.24629  1.0000
  H   H197      1.0  0.23145  0.14124  0.26393  1.0000
  H   H198      1.0  0.20259  0.08592  0.17223  1.0000
  H   H199      1.0  0.56491  0.91573  0.13299  1.0000
  H   H200      1.0  0.73059  0.9592900000000001  0.17944999999999997  1.0000
  H   H201      1.0  0.5457  0.9819999999999999  0.2185  1.0000
  H   H202      1.0  0.37581  0.71742  0.04801999999999999  1.0000
  H   H203      1.0  0.4337599999999999  0.68479  0.14454  1.0000
  H   H204      1.0  0.54599  0.76039  0.08954  1.0000
  H   H205      1.0  0.07341  0.94138  0.14388999999999996  1.0000
  H   H206      1.0  0.03673  0.84582  0.19949  1.0000
  H   H207      1.0  0.57192  0.84616  0.11413999999999999  1.0000
  H   H208      1.0  0.70025  0.8608199999999999  0.97249  1.0000
  C   C1        1.0  0.74738  0.72844  0.9349399999999998  1.0000
  C   C2        1.0  0.8171400000000001  0.73153  0.93782  1.0000
  C   C3        1.0  0.70771  0.75163  0.9523799999999999  1.0000
  C   C4        1.0  0.64225  0.74758  0.9500999999999998  1.0000
  C   C5        1.0  0.59901  0.77257  0.9677999999999999  1.0000
  C   C6        1.0  0.61691  0.71986  0.9309899999999999  1.0000
  C   C7        1.0  0.65668  0.69626  0.9139199999999998  1.0000
  C   C8        1.0  0.63068  0.66762  0.8949699999999999  1.0000
  C   C9        1.0  0.67803  0.61267  0.18535  1.0000
  C   C10       1.0  0.72217  0.7009  0.91566  1.0000
  C   C11       1.0  0.85163  0.62271  0.01459  1.0000
  C   C12       1.0  0.9012499999999999  0.6488  0.00539  1.0000
  C   C13       1.0  0.85777  0.60293  0.04331  1.0000
  C   C14       1.0  0.80979  0.57934  0.05229999999999999  1.0000
  C   C15       1.0  0.8150999999999999  0.55931  0.08351  1.0000
  C   C16       1.0  0.7570699999999999  0.57446  0.032319999999999995  1.0000
  C   C17       1.0  0.7512  0.59448  0.0034499999999999995  1.0000
  C   C18       1.0  0.69747  0.58977  0.9829699999999999  1.0000
  C   C19       1.0  0.79821  0.6192  0.99486  1.0000
  C   C20       1.0  0.9313  0.44066  0.10678  1.0000
  C   C21       1.0  0.87452  0.46398000000000006  0.11018  1.0000
  C   C22       1.0  0.93171  0.41178  0.08490999999999999  1.0000
  C   C23       1.0  0.98511  0.38996  0.08232  1.0000
  C   C24       1.0  0.98634  0.35974  0.0583  1.0000
  C   C25       1.0  0.03827  0.39684  0.10157  1.0000
  C   C26       1.0  0.03843  0.42645  0.12291999999999997  1.0000
  C   C27       1.0  0.09282  0.43537  0.14177999999999996  1.0000
  C   C28       1.0  0.9847599999999999  0.44825999999999994  0.12552  1.0000
  C   C29       1.0  0.64195  0.47905000000000003  0.01129  1.0000
  C   C30       1.0  0.66513  0.47751999999999994  0.04562  1.0000
  C   C31       1.0  0.66397  0.45438999999999996  0.9881499999999998  1.0000
  C   C32       1.0  0.64085  0.45522  0.9561399999999999  1.0000
  C   C33       1.0  0.66241  0.42836  0.93147  1.0000
  C   C34       1.0  0.59584  0.48086999999999996  0.94719  1.0000
  C   C35       1.0  0.5747  0.50613  0.9702499999999997  1.0000
  C   C36       1.0  0.52844  0.53207  0.96115  1.0000
  C   C37       1.0  0.5978  0.50512  0.0023999999999999994  1.0000
  C   C38       1.0  0.76415  0.44071  0.20618999999999998  1.0000
  C   C39       1.0  0.77836  0.47093  0.18348  1.0000
  C   C40       1.0  0.79098  0.43923  0.23743999999999998  1.0000
  C   C41       1.0  0.7784699999999999  0.4098  0.25761999999999996  1.0000
  C   C42       1.0  0.80609  0.40727  0.29103  1.0000
  C   C43       1.0  0.73938  0.38191  0.2469  1.0000
  C   C44       1.0  0.71168  0.38366  0.21584  1.0000
  C   C45       1.0  0.67138  0.35561  0.20446999999999999  1.0000
  C   C46       1.0  0.72422  0.41316  0.19559999999999997  1.0000
  C   C47       1.0  0.05048999999999999  0.55153  0.1753  1.0000
  C   C48       1.0  0.9805699999999999  0.55422  0.17337  1.0000
  C   C49       1.0  0.08831  0.56878  0.15207  1.0000
  C   C50       1.0  0.1539  0.56526  0.15344  1.0000
  C   C51       1.0  0.19598999999999997  0.58437  0.12987  1.0000
  C   C52       1.0  0.18142  0.54413  0.17791999999999997  1.0000
  C   C53       1.0  0.14349  0.52708  0.20129  1.0000
  C   C54       1.0  0.17132  0.50642  0.22686  1.0000
  C   C55       1.0  0.07779  0.5308  0.19994999999999996  1.0000
  C   C56       1.0  0.9613  0.75901  0.06651  1.0000
  C   C57       1.0  0.9728099999999998  0.73833  0.03578  1.0000
  C   C58       1.0  0.9074599999999999  0.78052  0.06928  1.0000
  C   C59       1.0  0.89683  0.80042  0.09783999999999998  1.0000
  C   C60       1.0  0.84031  0.824  0.10054  1.0000
  C   C61       1.0  0.94009  0.7992  0.12363  1.0000
  C   C62       1.0  0.99359  0.77721  0.12094  1.0000
  C   C63       1.0  0.03779  0.77581  0.14716  1.0000
  C   C64       1.0  0.00403  0.75694  0.09244  1.0000
  C   C65       1.0  0.65582  0.58424  0.1661  1.0000
  C   C66       1.0  0.70074  0.55762  0.15212  1.0000
  C   C67       1.0  0.5915  0.58117  0.15949  1.0000
  C   C68       1.0  0.54963  0.60688  0.17166  1.0000
  C   C69       1.0  0.48137  0.60359  0.16411  1.0000
  C   C70       1.0  0.57148  0.63573  0.19047  1.0000
  C   C71       1.0  0.63598  0.63853  0.19757  1.0000
  C   C72       1.0  0.65938  0.66726  0.2173  1.0000
  C   C73       1.0  0.07922  0.65336  0.08741  1.0000
  C   C74       1.0  0.20623  0.6392  0.99881  1.0000
  C   C75       1.0  0.25307  0.77168  0.43471  1.0000
  C   C76       1.0  0.18324  0.76859  0.43721  1.0000
  C   C77       1.0  0.2924  0.74842  0.45216999999999996  1.0000
  C   C78       1.0  0.3579  0.75244  0.45022  1.0000
  C   C79       1.0  0.40099  0.72742  0.46787  1.0000
  C   C80       1.0  0.3835799999999999  0.78018  0.43138  1.0000
  C   C81       1.0  0.34415  0.80383  0.41428  1.0000
  C   C82       1.0  0.37051  0.83236  0.39548  1.0000
  C   C83       1.0  0.32217  0.88734  0.68569  1.0000
  C   C84       1.0  0.27863  0.79925  0.41572999999999993  1.0000
  C   C85       1.0  0.14849  0.87713  0.5145  1.0000
  C   C86       1.0  0.09763  0.85178  0.50535  1.0000
  C   C87       1.0  0.14275  0.8970200000000002  0.54327  1.0000
  C   C88       1.0  0.19105  0.92036  0.55236  1.0000
  C   C89       1.0  0.18537  0.94062  0.58353  1.0000
  C   C90       1.0  0.24393000000000004  0.92489  0.53244  1.0000
  C   C91       1.0  0.24951  0.9046500000000001  0.50355  1.0000
  C   C92       1.0  0.30339  0.90905  0.48313999999999996  1.0000
  C   C93       1.0  0.20206  0.88016  0.49485999999999997  1.0000
  C   C94       1.0  0.06917  0.059399999999999994  0.60656  1.0000
  C   C95       1.0  0.12584  0.03602  0.6101199999999999  1.0000
  C   C96       1.0  0.06914  0.08826999999999999  0.5848199999999999  1.0000
  C   C97       1.0  0.01583  0.11013999999999999  0.58213  1.0000
  C   C98       1.0  0.01497  0.14037  0.55824  1.0000
  C   C99       1.0  0.96235  0.10328  0.6011  1.0000
  C   C100      1.0  0.96181  0.07368  0.6223099999999999  1.0000
  C   C101      1.0  0.90716  0.0647  0.64087  1.0000
  C   C102      1.0  0.015419999999999998  0.05186  0.62505  1.0000
  C   C103      1.0  0.35963  0.02124  0.51201  1.0000
  C   C104      1.0  0.33752  0.022539999999999998  0.54658  1.0000
  C   C105      1.0  0.33726  0.0462  0.4893199999999999  1.0000
  C   C106      1.0  0.35904  0.0453  0.4570499999999999  1.0000
  C   C107      1.0  0.33675  0.07205  0.4326  1.0000
  C   C108      1.0  0.40347999999999995  0.019549999999999998  0.44746  1.0000
  C   C109      1.0  0.42508999999999997  0.99409  0.47009  1.0000
  C   C110      1.0  0.47112999999999994  0.96827  0.46032  1.0000
  C   C111      1.0  0.40288  0.99492  0.50241  1.0000
  C   C112      1.0  0.23577  0.05956999999999999  0.70644  1.0000
  C   C113      1.0  0.22160999999999997  0.029249999999999998  0.6836499999999999  1.0000
  C   C114      1.0  0.20930999999999997  0.06107  0.73778  1.0000
  C   C115      1.0  0.22214  0.09046  0.75814  1.0000
  C   C116      1.0  0.19511  0.09278  0.79174  1.0000
  C   C117      1.0  0.26106  0.11837  0.74745  1.0000
  C   C118      1.0  0.28819  0.11668  0.7162399999999999  1.0000
  C   C119      1.0  0.32826  0.14475  0.70481  1.0000
  C   C120      1.0  0.2754  0.0872  0.69586  1.0000
  C   C121      1.0  0.94978  0.9486099999999998  0.67548  1.0000
  C   C122      1.0  0.01964  0.94583  0.67343  1.0000
  C   C123      1.0  0.91186  0.9314600000000001  0.65216  1.0000
  C   C124      1.0  0.84633  0.93516  0.6535399999999999  1.0000
  C   C125      1.0  0.80403  0.9162300000000001  0.62985  1.0000
  C   C126      1.0  0.81899  0.9563499999999999  0.67816  1.0000
  C   C127      1.0  0.85703  0.97327  0.70164  1.0000
  C   C128      1.0  0.8292  0.99397  0.7272899999999999  1.0000
  C   C129      1.0  0.9227  0.9693700000000001  0.70027  1.0000
  C   C130      1.0  0.04034  0.74098  0.56576  1.0000
  C   C131      1.0  0.02886  0.76157  0.5350299999999999  1.0000
  C   C132      1.0  0.0943  0.71957  0.5686  1.0000
  C   C133      1.0  0.10498000000000002  0.69979  0.59716  1.0000
  C   C134      1.0  0.16209  0.67665  0.59985  1.0000
  C   C135      1.0  0.06144  0.70084  0.6228199999999999  1.0000
  C   C136      1.0  0.007709999999999999  0.72262  0.6200299999999999  1.0000
  C   C137      1.0  0.9630499999999999  0.72389  0.64604  1.0000
  C   C138      1.0  0.9974200000000001  0.74291  0.59161  1.0000
  C   C139      1.0  0.34411  0.91571  0.66643  1.0000
  C   C140      1.0  0.29919  0.9424  0.65266  1.0000
  C   C141      1.0  0.40831999999999996  0.9185899999999999  0.65953  1.0000
  C   C142      1.0  0.45027000000000006  0.89286  0.6714799999999999  1.0000
  C   C143      1.0  0.51811  0.8959800000000001  0.66306  1.0000
  C   C144      1.0  0.42878  0.8642699999999999  0.69055  1.0000
  C   C145      1.0  0.36437  0.86161  0.69787  1.0000
  C   C146      1.0  0.34102  0.83301  0.7176099999999999  1.0000
  C   C147      1.0  0.92105  0.84675  0.58745  1.0000
  C   C148      1.0  0.79427  0.85896  0.4990699999999999  1.0000
  C   C149      1.0  0.24769999999999998  0.27128  0.56494  1.0000
  C   C150      1.0  0.31757  0.26832  0.5622  1.0000
  C   C151      1.0  0.20791  0.24813  0.5475  1.0000
  C   C152      1.0  0.14243  0.25228  0.5498  1.0000
  C   C153      1.0  0.09874  0.22747  0.53215  1.0000
  C   C154      1.0  0.11720999999999998  0.28003  0.56893  1.0000
  C   C155      1.0  0.15706  0.30356  0.586  1.0000
  C   C156      1.0  0.13116  0.33219  0.6050099999999999  1.0000
  C   C157      1.0  0.17665  0.38741  0.31493  1.0000
  C   C158      1.0  0.22251999999999997  0.29884  0.58423  1.0000
  C   C159      1.0  0.35159  0.37634  0.48491999999999996  1.0000
  C   C160      1.0  0.40167  0.35043  0.49393999999999993  1.0000
  C   C161      1.0  0.35796  0.39644  0.45639  1.0000
  C   C162      1.0  0.31031  0.42032  0.44757  1.0000
  C   C163      1.0  0.31608  0.44054999999999994  0.41648999999999997  1.0000
  C   C164      1.0  0.25765  0.42522  0.46758999999999995  1.0000
  C   C165      1.0  0.2515  0.40487  0.49626  1.0000
  C   C166      1.0  0.19790000000000002  0.40973  0.5168099999999999  1.0000
  C   C167      1.0  0.29816  0.3798  0.50463  1.0000
  C   C168      1.0  0.43237  0.55928  0.39310999999999996  1.0000
  C   C169      1.0  0.3757  0.53591  0.38969  1.0000
  C   C170      1.0  0.4325  0.58814  0.41501  1.0000
  C   C171      1.0  0.48574  0.61004  0.41769  1.0000
  C   C172      1.0  0.48666999999999994  0.64023  0.44175999999999993  1.0000
  C   C173      1.0  0.539  0.60329  0.39847  1.0000
  C   C174      1.0  0.53943  0.57372  0.37706999999999996  1.0000
  C   C175      1.0  0.59394  0.56493  0.35825  1.0000
  C   C176      1.0  0.48591  0.5518  0.3744  1.0000
  C   C177      1.0  0.1426  0.52208  0.48804  1.0000
  C   C178      1.0  0.16526  0.5235  0.45365  1.0000
  C   C179      1.0  0.16469  0.54671  0.51118  1.0000
  C   C180      1.0  0.14194  0.54556  0.54325  1.0000
  C   C181      1.0  0.16381  0.57201  0.5681599999999999  1.0000
  C   C182      1.0  0.09711  0.51984  0.5522  1.0000
  C   C183      1.0  0.07591  0.49464  0.52912  1.0000
  C   C184      1.0  0.02971  0.4687  0.53823  1.0000
  C   C185      1.0  0.0988  0.49582999999999994  0.49695999999999996  1.0000
  C   C186      1.0  0.26324  0.5593  0.29371  1.0000
  C   C187      1.0  0.27713  0.52908  0.31643  1.0000
  C   C188      1.0  0.29032  0.56072  0.26253  1.0000
  C   C189      1.0  0.2781  0.59017  0.24233  1.0000
  C   C190      1.0  0.306  0.59276  0.20897999999999997  1.0000
  C   C191      1.0  0.23914999999999997  0.61817  0.25301  1.0000
  C   C192      1.0  0.21139999999999998  0.61652  0.28405  1.0000
  C   C193      1.0  0.17153  0.64473  0.29552  1.0000
  C   C194      1.0  0.22351999999999997  0.58694  0.30429  1.0000
  C   C195      1.0  0.54896  0.44843999999999995  0.32453  1.0000
  C   C196      1.0  0.47906000000000004  0.4457400000000001  0.32650999999999997  1.0000
  C   C197      1.0  0.58678  0.43126000000000003  0.3478  1.0000
  C   C198      1.0  0.65237  0.4346999999999999  0.3464  1.0000
  C   C199      1.0  0.69439  0.41558  0.37002  1.0000
  C   C200      1.0  0.67989  0.45570000000000005  0.32182  1.0000
  C   C201      1.0  0.64196  0.47269999999999995  0.29842  1.0000
  C   C202      1.0  0.66992  0.49318000000000006  0.27278  1.0000
  C   C203      1.0  0.57624  0.46904  0.29978  1.0000
  C   C204      1.0  0.46118  0.2409  0.4339899999999999  1.0000
  C   C205      1.0  0.47283  0.2614  0.46481  1.0000
  C   C206      1.0  0.40739  0.21935  0.43129  1.0000
  C   C207      1.0  0.39633999999999997  0.19957  0.40269  1.0000
  C   C208      1.0  0.33919  0.17643  0.40024  1.0000
  C   C209      1.0  0.43943000000000004  0.20085  0.37683  1.0000
  C   C210      1.0  0.4929299999999999  0.22288999999999998  0.37945  1.0000
  C   C211      1.0  0.53694  0.22435  0.35314  1.0000
  C   C212      1.0  0.50363  0.24311  0.40795999999999993  1.0000
  C   C213      1.0  0.15441  0.41591  0.33409  1.0000
  C   C214      1.0  0.19938  0.44249000000000005  0.34808  1.0000
  C   C215      1.0  0.09006  0.41905  0.3406  1.0000
  C   C216      1.0  0.04819  0.39335  0.32843  1.0000
  C   C217      1.0  0.97991  0.39663  0.33595  1.0000
  C   C218      1.0  0.07009  0.36443  0.3096999999999999  1.0000
  C   C219      1.0  0.13461  0.36157  0.30269  1.0000
  C   C220      1.0  0.15813  0.33271  0.28313999999999995  1.0000
  C   C221      1.0  0.57739  0.34668  0.4126099999999999  1.0000
  C   C222      1.0  0.7073  0.35989  0.50105  1.0000
  C   C223      1.0  0.7524300000000002  0.22873  0.06527  1.0000
  C   C224      1.0  0.68249  0.23168  0.06281  1.0000
  C   C225      1.0  0.79199  0.25197  0.047869999999999996  1.0000
  C   C226      1.0  0.85753  0.24779  0.04983  1.0000
  C   C227      1.0  0.90113  0.27262  0.03219  1.0000
  C   C228      1.0  0.8829699999999999  0.21995  0.06862  1.0000
  C   C229      1.0  0.84337  0.19633  0.08564999999999999  1.0000
  C   C230      1.0  0.86969  0.16763  0.10428  1.0000
  C   C231      1.0  0.82308  0.11206  0.81512  1.0000
  C   C232      1.0  0.77788  0.20106  0.0842  1.0000
  C   C233      1.0  0.64854  0.12367  0.98513  1.0000
  C   C234      1.0  0.59842  0.14961  0.99406  1.0000
  C   C235      1.0  0.64222  0.10355  0.9565299999999999  1.0000
  C   C236      1.0  0.68991  0.07971  0.94762  1.0000
  C   C237      1.0  0.68396  0.05941  0.9165099999999999  1.0000
  C   C238      1.0  0.74257  0.07486  0.9676299999999998  1.0000
  C   C239      1.0  0.74866  0.09524  0.9964  1.0000
  C   C240      1.0  0.80231  0.0904  0.0169  1.0000
  C   C241      1.0  0.70194  0.12029  0.00486  1.0000
  C   C242      1.0  0.56757  0.94053  0.89329  1.0000
  C   C243      1.0  0.62421  0.9639300000000001  0.8897499999999999  1.0000
  C   C244      1.0  0.56756  0.9117199999999999  0.91512  1.0000
  C   C245      1.0  0.51433  0.8898  0.91781  1.0000
  C   C246      1.0  0.51338  0.8596599999999999  0.94179  1.0000
  C   C247      1.0  0.46096  0.8965199999999999  0.89871  1.0000
  C   C248      1.0  0.46037  0.92605  0.87743  1.0000
  C   C249      1.0  0.40568  0.9348799999999999  0.85883  1.0000
  C   C250      1.0  0.51388  0.94796  0.87472  1.0000
  C   C251      1.0  0.85749  0.97781  0.9879899999999999  1.0000
  C   C252      1.0  0.8347899999999999  0.9765700000000002  0.9535899999999999  1.0000
  C   C253      1.0  0.83511  0.95296  0.01071  1.0000
  C   C254      1.0  0.85783  0.9535  0.04277999999999999  1.0000
  C   C255      1.0  0.83527  0.92664  0.06698  1.0000
  C   C256      1.0  0.9029  0.97892  0.052239999999999995  1.0000
  C   C257      1.0  0.92409  0.00453  0.02964  1.0000
  C   C258      1.0  0.97011  0.03043  0.03923999999999999  1.0000
  C   C259      1.0  0.90129  0.0038900000000000002  0.99742  1.0000
  C   C260      1.0  0.73657  0.9404699999999999  0.79327  1.0000
  C   C261      1.0  0.72288  0.97076  0.81619  1.0000
  C   C262      1.0  0.70953  0.9390599999999999  0.76206  1.0000
  C   C263      1.0  0.72165  0.90959  0.7416599999999999  1.0000
  C   C264      1.0  0.69387  0.9072200000000001  0.70822  1.0000
  C   C265      1.0  0.76047  0.88154  0.75221  1.0000
  C   C266      1.0  0.7881799999999999  0.88317  0.7832899999999998  1.0000
  C   C267      1.0  0.8279799999999999  0.85491  0.7946  1.0000
  C   C268      1.0  0.7761799999999999  0.91275  0.8036799999999998  1.0000
  C   C269      1.0  0.45109  0.05145  0.8243799999999999  1.0000
  C   C270      1.0  0.52095  0.054220000000000004  0.82645  1.0000
  C   C271      1.0  0.41312000000000004  0.06848  0.84775  1.0000
  C   C272      1.0  0.34757  0.06481  0.8463099999999999  1.0000
  C   C273      1.0  0.30536  0.08371  0.87006  1.0000
  C   C274      1.0  0.32023  0.04381  0.82156  1.0000
  C   C275      1.0  0.35832  0.02709  0.79798  1.0000
  C   C276      1.0  0.33059  0.00677  0.7720499999999999  1.0000
  C   C277      1.0  0.42400000000000004  0.030889999999999997  0.79944  1.0000
  C   C278      1.0  0.53782  0.25917  0.93433  1.0000
  C   C279      1.0  0.52678  0.23852999999999996  0.96501  1.0000
  C   C280      1.0  0.59127  0.28099  0.9317  1.0000
  C   C281      1.0  0.60203  0.30077  0.90318  1.0000
  C   C282      1.0  0.65894  0.32412  0.90076  1.0000
  C   C283      1.0  0.5589  0.2992  0.8773399999999998  1.0000
  C   C284      1.0  0.50561  0.27701  0.87993  1.0000
  C   C285      1.0  0.46130000000000004  0.2753  0.8537499999999999  1.0000
  C   C286      1.0  0.4952599999999999  0.25676  0.9083599999999998  1.0000
  C   C287      1.0  0.8450199999999999  0.08383  0.83454  1.0000
  C   C288      1.0  0.8001499999999999  0.05741000000000001  0.84867  1.0000
  C   C289      1.0  0.9092800000000001  0.08061  0.84118  1.0000
  C   C290      1.0  0.9514199999999999  0.10594  0.82882  1.0000
  C   C291      1.0  0.01948  0.10245  0.83657  1.0000
  C   C292      1.0  0.92995  0.13452  0.8097099999999999  1.0000
  C   C293      1.0  0.86548  0.13749  0.80261  1.0000
  C   C294      1.0  0.8423399999999999  0.16596  0.7826299999999999  1.0000
  C   C295      1.0  0.4227699999999999  0.15331  0.9125799999999998  1.0000
  C   C296      1.0  0.29264  0.14001  0.0009  1.0000
  C   C297      1.0  0.25263  0.27156  0.06505  1.0000
  C   C298      1.0  0.18286  0.26848  0.06217999999999999  1.0000
  C   C299      1.0  0.29229  0.24838  0.04762  1.0000
  C   C300      1.0  0.35775  0.25243  0.0499  1.0000
  C   C301      1.0  0.40099  0.22743  0.03219  1.0000
  C   C302      1.0  0.38309999999999994  0.28014  0.06901  1.0000
  C   C303      1.0  0.34332  0.30375  0.08607999999999999  1.0000
  C   C304      1.0  0.36932  0.33239  0.10502999999999998  1.0000
  C   C305      1.0  0.32198  0.38733  0.8146499999999998  1.0000
  C   C306      1.0  0.27784  0.29911  0.08434  1.0000
  C   C307      1.0  0.14838  0.3773  0.98541  1.0000
  C   C308      1.0  0.09875999999999999  0.3512  0.9946  1.0000
  C   C309      1.0  0.14224  0.39708  0.95669  1.0000
  C   C310      1.0  0.19022000000000003  0.4206599999999999  0.9477  1.0000
  C   C311      1.0  0.1849  0.4406900000000001  0.91648  1.0000
  C   C312      1.0  0.24292999999999998  0.42555  0.9676799999999999  1.0000
  C   C313      1.0  0.24880999999999998  0.40552  0.99655  1.0000
  C   C314      1.0  0.30253  0.41023  0.01703  1.0000
  C   C315      1.0  0.20179  0.38081  0.00514  1.0000
  C   C316      1.0  0.06871  0.55935  0.89322  1.0000
  C   C317      1.0  0.12549  0.53602  0.8898199999999998  1.0000
  C   C318      1.0  0.0683  0.58822  0.91509  1.0000
  C   C319      1.0  0.014889999999999999  0.61004  0.91768  1.0000
  C   C320      1.0  0.01367  0.64026  0.9416899999999998  1.0000
  C   C321      1.0  0.96174  0.60316  0.8984299999999998  1.0000
  C   C322      1.0  0.9615699999999999  0.57355  0.8770799999999999  1.0000
  C   C323      1.0  0.9071900000000002  0.56464  0.8582199999999999  1.0000
  C   C324      1.0  0.01525  0.55174  0.87448  1.0000
  C   C325      1.0  0.35806  0.52095  0.9887099999999999  1.0000
  C   C326      1.0  0.33487  0.52249  0.95438  1.0000
  C   C327      1.0  0.33603  0.54562  0.01185  1.0000
  C   C328      1.0  0.35915  0.54478  0.04385  1.0000
  C   C329      1.0  0.3376  0.57164  0.06853  1.0000
  C   C330      1.0  0.4041600000000001  0.51914  0.052809999999999996  1.0000
  C   C331      1.0  0.4253  0.49387  0.029749999999999995  1.0000
  C   C332      1.0  0.47156999999999993  0.46793999999999997  0.03885  1.0000
  C   C333      1.0  0.40220000000000006  0.49488  0.9976  1.0000
  C   C334      1.0  0.23585999999999996  0.5593  0.7937999999999998  1.0000
  C   C335      1.0  0.22165  0.52908  0.81652  1.0000
  C   C336      1.0  0.20903  0.56077  0.76256  1.0000
  C   C337      1.0  0.22153  0.5902  0.7423799999999999  1.0000
  C   C338      1.0  0.19391  0.59273  0.70897  1.0000
  C   C339      1.0  0.26062  0.6181  0.7531  1.0000
  C   C340      1.0  0.28832  0.61635  0.78415  1.0000
  C   C341      1.0  0.32863  0.64439  0.7955299999999998  1.0000
  C   C342      1.0  0.27579  0.58684  0.8044  1.0000
  C   C343      1.0  0.9495099999999999  0.44848  0.8246999999999999  1.0000
  C   C344      1.0  0.01943  0.44577999999999995  0.8266299999999998  1.0000
  C   C345      1.0  0.91169  0.43122  0.84792  1.0000
  C   C346      1.0  0.84611  0.43475  0.8465599999999999  1.0000
  C   C347      1.0  0.8040099999999999  0.41563  0.8701299999999998  1.0000
  C   C348      1.0  0.81858  0.45588000000000006  0.82207  1.0000
  C   C349      1.0  0.85651  0.47292999999999996  0.7987099999999999  1.0000
  C   C350      1.0  0.82868  0.4935800000000001  0.77314  1.0000
  C   C351      1.0  0.92222  0.46920000000000006  0.80005  1.0000
  C   C352      1.0  0.0387  0.24100000000000002  0.93349  1.0000
  C   C353      1.0  0.02719  0.26168  0.96421  1.0000
  C   C354      1.0  0.09255  0.21948  0.9307199999999999  1.0000
  C   C355      1.0  0.10318  0.19959  0.90216  1.0000
  C   C356      1.0  0.1597  0.17601  0.89946  1.0000
  C   C357      1.0  0.05990999999999999  0.20081  0.8763699999999999  1.0000
  C   C358      1.0  0.00642  0.22279  0.8790499999999999  1.0000
  C   C359      1.0  0.96221  0.22420000000000004  0.85284  1.0000
  C   C360      1.0  0.9959799999999999  0.24306  0.90756  1.0000
  C   C361      1.0  0.34418  0.41576  0.8339  1.0000
  C   C362      1.0  0.29927  0.44238000000000005  0.84788  1.0000
  C   C363      1.0  0.40850000000000003  0.41883  0.8405099999999999  1.0000
  C   C364      1.0  0.45038000000000006  0.39313  0.8283399999999999  1.0000
  C   C365      1.0  0.51863  0.39642  0.83589  1.0000
  C   C366      1.0  0.42852  0.36427  0.80953  1.0000
  C   C367      1.0  0.36403  0.36148  0.80243  1.0000
  C   C368      1.0  0.34062  0.33274  0.7827  1.0000
  C   C369      1.0  0.9207799999999999  0.34665  0.91259  1.0000
  C   C370      1.0  0.7937799999999999  0.36081  0.0011899999999999999  1.0000
  C   C371      1.0  0.74694  0.22832999999999998  0.56529  1.0000
  C   C372      1.0  0.81677  0.23141  0.56278  1.0000
  C   C373      1.0  0.7076  0.25158  0.54783  1.0000
  C   C374      1.0  0.6421  0.24756  0.54978  1.0000
  C   C375      1.0  0.59901  0.27258  0.53212  1.0000
  C   C376      1.0  0.61642  0.21983000000000003  0.56862  1.0000
  C   C377      1.0  0.65586  0.19618  0.58572  1.0000
  C   C378      1.0  0.6295  0.16764  0.6045199999999998  1.0000
  C   C379      1.0  0.67782  0.11267  0.31431  1.0000
  C   C380      1.0  0.72138  0.20075  0.58427  1.0000
  C   C381      1.0  0.85151  0.12287999999999999  0.48549999999999993  1.0000
  C   C382      1.0  0.9023799999999998  0.14823  0.49464999999999987  1.0000
  C   C383      1.0  0.85725  0.10299  0.45673  1.0000
  C   C384      1.0  0.80895  0.07964  0.44764  1.0000
  C   C385      1.0  0.81463  0.05939  0.41647  1.0000
  C   C386      1.0  0.75607  0.07512  0.4675599999999999  1.0000
  C   C387      1.0  0.75049  0.09535  0.49644  1.0000
  C   C388      1.0  0.69661  0.09096  0.51686  1.0000
  C   C389      1.0  0.7979399999999999  0.11984  0.5051399999999999  1.0000
  C   C390      1.0  0.9308399999999999  0.94061  0.39342999999999995  1.0000
  C   C391      1.0  0.87416  0.96399  0.38987999999999995  1.0000
  C   C392      1.0  0.93086  0.91173  0.41518  1.0000
  C   C393      1.0  0.98417  0.8898600000000001  0.41787  1.0000
  C   C394      1.0  0.9850399999999999  0.8596299999999999  0.44175999999999993  1.0000
  C   C395      1.0  0.03766  0.8967300000000001  0.3989  1.0000
  C   C396      1.0  0.03819  0.92632  0.37768999999999997  1.0000
  C   C397      1.0  0.09285  0.9353  0.35913  1.0000
  C   C398      1.0  0.9845899999999999  0.9481400000000001  0.37493999999999994  1.0000
  C   C399      1.0  0.64037  0.97876  0.48797999999999997  1.0000
  C   C400      1.0  0.66249  0.97747  0.45341999999999993  1.0000
  C   C401      1.0  0.66275  0.9538000000000001  0.51067  1.0000
  C   C402      1.0  0.64097  0.95471  0.54295  1.0000
  C   C403      1.0  0.66325  0.92795  0.5674  1.0000
  C   C404      1.0  0.59653  0.98045  0.55253  1.0000
  C   C405      1.0  0.57492  0.00591  0.52991  1.0000
  C   C406      1.0  0.52888  0.031740000000000004  0.53968  1.0000
  C   C407      1.0  0.59712  0.00508  0.49758  1.0000
  C   C408      1.0  0.76423  0.94043  0.29355  1.0000
  C   C409      1.0  0.7783899999999999  0.9707500000000001  0.31635  1.0000
  C   C410      1.0  0.7907  0.9389399999999999  0.26222  1.0000
  C   C411      1.0  0.77786  0.90955  0.24185999999999994  1.0000
  C   C412      1.0  0.8049  0.9072299999999999  0.20825999999999997  1.0000
  C   C413      1.0  0.73894  0.88164  0.25254  1.0000
  C   C414      1.0  0.71181  0.88332  0.28375999999999996  1.0000
  C   C415      1.0  0.67174  0.85526  0.29519  1.0000
  C   C416      1.0  0.7246  0.9128099999999999  0.30414  1.0000
  C   C417      1.0  0.05022  0.05139  0.32452  1.0000
  C   C418      1.0  0.98036  0.054169999999999996  0.32657  1.0000
  C   C419      1.0  0.08815  0.06854  0.34784  1.0000
  C   C420      1.0  0.15367  0.06484  0.34645  1.0000
  C   C421      1.0  0.19596999999999998  0.08377  0.37015  1.0000
  C   C422      1.0  0.18101  0.04366  0.32184  1.0000
  C   C423      1.0  0.14298  0.02674  0.29835  1.0000
  C   C424      1.0  0.1708  0.00603  0.27271  1.0000
  C   C425      1.0  0.0773  0.03063  0.29973  1.0000
  C   C426      1.0  0.95967  0.25903  0.4342399999999999  1.0000
  C   C427      1.0  0.97115  0.23843  0.46497  1.0000
  C   C428      1.0  0.9057  0.28044  0.43139999999999995  1.0000
  C   C429      1.0  0.8950199999999999  0.30021  0.40284  1.0000
  C   C430      1.0  0.8379099999999999  0.32336  0.40014999999999995  1.0000
  C   C431      1.0  0.9385700000000001  0.29917  0.37717999999999996  1.0000
  C   C432      1.0  0.9923  0.27738  0.37997  1.0000
  C   C433      1.0  0.03695  0.27611  0.35395999999999994  1.0000
  C   C434      1.0  0.00258  0.2571  0.40839  1.0000
  C   C435      1.0  0.65587  0.0843  0.33356  1.0000
  C   C436      1.0  0.7008  0.05761  0.34734  1.0000
  C   C437      1.0  0.59166  0.08141  0.34046  1.0000
  C   C438      1.0  0.54972  0.10714  0.32851  1.0000
  C   C439      1.0  0.48188  0.10403  0.33694  1.0000
  C   C440      1.0  0.5712  0.13574  0.30943999999999994  1.0000
  C   C441      1.0  0.63562  0.13839  0.30212  1.0000
  C   C442      1.0  0.65898  0.167  0.28239  1.0000
  C   C443      1.0  0.07895  0.15326  0.4125499999999999  1.0000
  C   C444      1.0  0.20573  0.14105  0.50093  1.0000
  C   C445      1.0  0.7523099999999999  0.72873  0.43505999999999995  1.0000
  C   C446      1.0  0.68244  0.73168  0.43779999999999997  1.0000
  C   C447      1.0  0.7920899999999998  0.75188  0.4525  1.0000
  C   C448      1.0  0.8575699999999999  0.74773  0.45019999999999993  1.0000
  C   C449      1.0  0.90127  0.77253  0.46784999999999993  1.0000
  C   C450      1.0  0.88279  0.71998  0.43107  1.0000
  C   C451      1.0  0.84294  0.69644  0.414  1.0000
  C   C452      1.0  0.8688499999999999  0.66781  0.39498999999999995  1.0000
  C   C453      1.0  0.82335  0.61259  0.68507  1.0000
  C   C454      1.0  0.77749  0.70116  0.4157699999999999  1.0000
  C   C455      1.0  0.64841  0.62366  0.51508  1.0000
  C   C456      1.0  0.59833  0.64958  0.50606  1.0000
  C   C457      1.0  0.64204  0.60356  0.54361  1.0000
  C   C458      1.0  0.6897  0.57969  0.5524299999999999  1.0000
  C   C459      1.0  0.68392  0.55945  0.58351  1.0000
  C   C460      1.0  0.74236  0.57478  0.53241  1.0000
  C   C461      1.0  0.7485  0.59514  0.50373  1.0000
  C   C462      1.0  0.8021  0.59027  0.48319  1.0000
  C   C463      1.0  0.70185  0.62021  0.4953699999999999  1.0000
  C   C464      1.0  0.56763  0.44071999999999995  0.6068899999999999  1.0000
  C   C465      1.0  0.6243  0.46409000000000006  0.6103  1.0000
  C   C466      1.0  0.5675  0.41187  0.58499  1.0000
  C   C467      1.0  0.51426  0.38996  0.58231  1.0000
  C   C468      1.0  0.51333  0.35977  0.55824  1.0000
  C   C469      1.0  0.461  0.39671  0.60153  1.0000
  C   C470      1.0  0.46057999999999993  0.42628  0.6229299999999999  1.0000
  C   C471      1.0  0.40606  0.4350800000000001  0.64175  1.0000
  C   C472      1.0  0.5141  0.44819999999999993  0.6256  1.0000
  C   C473      1.0  0.8574  0.4779300000000001  0.51195  1.0000
  C   C474      1.0  0.8347400000000001  0.47650000000000003  0.54635  1.0000
  C   C475      1.0  0.8353099999999999  0.45329  0.48881999999999987  1.0000
  C   C476      1.0  0.85806  0.45444  0.45675  1.0000
  C   C477      1.0  0.8361999999999999  0.42799  0.43184  1.0000
  C   C478      1.0  0.90289  0.48016999999999993  0.44779  1.0000
  C   C479      1.0  0.92409  0.50536  0.47088  1.0000
  C   C480      1.0  0.97029  0.53131  0.46177  1.0000
  C   C481      1.0  0.90121  0.50418  0.50304  1.0000
  C   C482      1.0  0.73677  0.44071  0.70628  1.0000
  C   C483      1.0  0.72288  0.47093  0.6835599999999998  1.0000
  C   C484      1.0  0.70968  0.43929  0.73747  1.0000
  C   C485      1.0  0.72191  0.40984  0.75767  1.0000
  C   C486      1.0  0.694  0.40724  0.79102  1.0000
  C   C487      1.0  0.76086  0.38184  0.74699  1.0000
  C   C488      1.0  0.7886  0.38349  0.71594  1.0000
  C   C489      1.0  0.82847  0.35528  0.7044799999999999  1.0000
  C   C490      1.0  0.7764799999999998  0.41306  0.6957099999999999  1.0000
  C   C491      1.0  0.45103999999999994  0.55156  0.67547  1.0000
  C   C492      1.0  0.52095  0.55426  0.67349  1.0000
  C   C493      1.0  0.41322  0.56875  0.6521999999999999  1.0000
  C   C494      1.0  0.34763  0.56531  0.6536  1.0000
  C   C495      1.0  0.30562  0.58443  0.62998  1.0000
  C   C496      1.0  0.32011  0.5443  0.67817  1.0000
  C   C497      1.0  0.35805  0.5273  0.70158  1.0000
  C   C498      1.0  0.33008  0.50682  0.72722  1.0000
  C   C499      1.0  0.42376  0.53097  0.7002099999999999  1.0000
  C   C500      1.0  0.53883  0.75911  0.56601  1.0000
  C   C501      1.0  0.52718  0.73861  0.53519  1.0000
  C   C502      1.0  0.59262  0.78066  0.56871  1.0000
  C   C503      1.0  0.60367  0.80043  0.5972999999999999  1.0000
  C   C504      1.0  0.66083  0.82356  0.59976  1.0000
  C   C505      1.0  0.56058  0.79916  0.62316  1.0000
  C   C506      1.0  0.50708  0.77712  0.62055  1.0000
  C   C507      1.0  0.46307  0.77565  0.64686  1.0000
  C   C508      1.0  0.49638000000000004  0.7569  0.59203  1.0000
  C   C509      1.0  0.84559  0.58409  0.66591  1.0000
  C   C510      1.0  0.8006199999999999  0.55751  0.65191  1.0000
  C   C511      1.0  0.9099400000000001  0.58095  0.6594  1.0000
  C   C512      1.0  0.95182  0.60666  0.6715699999999999  1.0000
  C   C513      1.0  0.02009  0.60338  0.66405  1.0000
  C   C514      1.0  0.92992  0.63557  0.6902999999999999  1.0000
  C   C515      1.0  0.86539  0.63843  0.69731  1.0000
  C   C516      1.0  0.84187  0.6673  0.71685  1.0000
  C   C517      1.0  0.42261  0.65332  0.58739  1.0000
  C   C518      1.0  0.2927  0.64012  0.49895  1.0000
  C   C519      1.0  0.24758  0.77127  0.93473  1.0000
  C   C520      1.0  0.31752  0.76832  0.93718  1.0000
  C   C521      1.0  0.20801  0.74804  0.9521299999999999  1.0000
  C   C522      1.0  0.14248  0.75221  0.9501699999999998  1.0000
  C   C523      1.0  0.09887  0.72739  0.9678099999999998  1.0000
  C   C524      1.0  0.11704  0.78006  0.93138  1.0000
  C   C525      1.0  0.15664  0.80367  0.9143499999999999  1.0000
  C   C526      1.0  0.13031  0.83237  0.89572  1.0000
  C   C527      1.0  0.17691  0.88795  0.18488  1.0000
  C   C528      1.0  0.22213  0.79894  0.9158  1.0000
  C   C529      1.0  0.35147  0.8763399999999999  0.014869999999999998  1.0000
  C   C530      1.0  0.40158999999999995  0.8504  0.00594  1.0000
  C   C531      1.0  0.35779  0.8964600000000001  0.043469999999999995  1.0000
  C   C532      1.0  0.3101  0.9203  0.05237  1.0000
  C   C533      1.0  0.31604  0.9406  0.08349  1.0000
  C   C534      1.0  0.25743  0.92515  0.03237  1.0000
  C   C535      1.0  0.25135  0.90477  0.0036  1.0000
  C   C536      1.0  0.19769  0.9096  0.9830999999999999  1.0000
  C   C537      1.0  0.29806  0.8797199999999998  0.9951399999999999  1.0000
  C   C538      1.0  0.43244  0.05948  0.1067  1.0000
  C   C539      1.0  0.37579  0.03608  0.11025  1.0000
  C   C540      1.0  0.43244999999999995  0.08828  0.08488  1.0000
  C   C541      1.0  0.48567  0.11020999999999999  0.08218999999999999  1.0000
  C   C542      1.0  0.48662  0.14035  0.05820999999999999  1.0000
  C   C543      1.0  0.53905  0.10349  0.10129  1.0000
  C   C544      1.0  0.53963  0.07395  0.12256999999999998  1.0000
  C   C545      1.0  0.59433  0.06512  0.14117  1.0000
  C   C546      1.0  0.48613  0.05205  0.12528  1.0000
  C   C547      1.0  0.14251  0.0222  0.012009999999999998  1.0000
  C   C548      1.0  0.16521  0.02344  0.04639999999999999  1.0000
  C   C549      1.0  0.16489  0.04705  0.9892899999999998  1.0000
  C   C550      1.0  0.14217  0.0465  0.95721  1.0000
  C   C551      1.0  0.16473  0.07337  0.9330199999999998  1.0000
  C   C552      1.0  0.09711  0.021080000000000005  0.94776  1.0000
  C   C553      1.0  0.07591  0.99548  0.9703599999999999  1.0000
  C   C554      1.0  0.02989  0.96958  0.96075  1.0000
  C   C555      1.0  0.09872  0.99611  0.00258  1.0000
  C   C556      1.0  0.26344  0.05953  0.20671999999999996  1.0000
  C   C557      1.0  0.27712  0.029249999999999998  0.18381  1.0000
  C   C558      1.0  0.29047  0.06094999999999999  0.23794  1.0000
  C   C559      1.0  0.27835  0.09041  0.25833  1.0000
  C   C560      1.0  0.30614  0.09279  0.29178  1.0000
  C   C561      1.0  0.23954  0.11846000000000001  0.24779  1.0000
  C   C562      1.0  0.21181999999999998  0.11684  0.21671  1.0000
  C   C563      1.0  0.17203  0.1451  0.2054  1.0000
  C   C564      1.0  0.22382999999999997  0.08725  0.19630999999999998  1.0000
  C   C565      1.0  0.54892  0.9485599999999998  0.17562  1.0000
  C   C566      1.0  0.47905  0.9457899999999999  0.17355  1.0000
  C   C567      1.0  0.58688  0.93153  0.15225  1.0000
  C   C568      1.0  0.65243  0.93519  0.15369  1.0000
  C   C569      1.0  0.69464  0.9163  0.12994  1.0000
  C   C570      1.0  0.67977  0.95619  0.17843999999999996  1.0000
  C   C571      1.0  0.64169  0.97292  0.20201999999999995  1.0000
  C   C572      1.0  0.66942  0.9932399999999999  0.22794999999999996  1.0000
  C   C573      1.0  0.576  0.96911  0.20054999999999998  1.0000
  C   C574      1.0  0.4621799999999999  0.74083  0.06567  1.0000
  C   C575      1.0  0.47323  0.76147  0.03499  1.0000
  C   C576      1.0  0.40874  0.71902  0.06829  1.0000
  C   C577      1.0  0.39798000000000006  0.69924  0.09681999999999999  1.0000
  C   C578      1.0  0.34107  0.67589  0.09923  1.0000
  C   C579      1.0  0.44110999999999995  0.70081  0.12266  1.0000
  C   C580      1.0  0.49439  0.723  0.12006999999999997  1.0000
  C   C581      1.0  0.5387  0.72471  0.14625  1.0000
  C   C582      1.0  0.50474  0.74324  0.09163999999999999  1.0000
  C   C583      1.0  0.15498  0.91618  0.16546  1.0000
  C   C584      1.0  0.19984999999999997  0.9426  0.15133  1.0000
  C   C585      1.0  0.09072  0.9194  0.15882  1.0000
  C   C586      1.0  0.04857999999999999  0.89407  0.17118  1.0000
  C   C587      1.0  0.9805099999999999  0.89755  0.16343  1.0000
  C   C588      1.0  0.07004  0.86549  0.19029  1.0000
  C   C589      1.0  0.13452  0.8625200000000001  0.19739  1.0000
  C   C590      1.0  0.15766  0.83405  0.21736999999999998  1.0000
  C   C591      1.0  0.57723  0.84669  0.08741  1.0000
  C   C592      1.0  0.70736  0.86  0.9990999999999999  1.0000
  N   N1        1.0  0.60944  0.64414  0.87952  1.0000
  N   N2        1.0  0.6536  0.58567  0.96617  1.0000
  N   N3        1.0  0.13664  0.44395999999999997  0.15719  1.0000
  N   N4        1.0  0.48899  0.55243  0.95395  1.0000
  N   N5        1.0  0.63843  0.33287  0.19467  1.0000
  N   N6        1.0  0.19328  0.49025  0.24846999999999994  1.0000
  N   N7        1.0  0.07417  0.77483  0.16854  1.0000
  N   N8        1.0  0.67974  0.69023  0.23368  1.0000
  N   N9        1.0  0.39196  0.85568  0.38003  1.0000
  N   N10       1.0  0.34741  0.9129099999999999  0.46640999999999994  1.0000
  N   N11       1.0  0.86318  0.05598  0.65604  1.0000
  N   N12       1.0  0.51064  0.9482  0.45244999999999996  1.0000
  N   N13       1.0  0.36103  0.16745  0.69491  1.0000
  N   N14       1.0  0.80701  0.01021  0.74888  1.0000
  N   N15       1.0  0.92624  0.72476  0.66723  1.0000
  N   N16       1.0  0.3204  0.81013  0.7339  1.0000
  N   N17       1.0  0.10998  0.35563  0.6205399999999999  1.0000
  N   N18       1.0  0.15414  0.41404  0.53365  1.0000
  N   N19       1.0  0.63786  0.55639  0.34289  1.0000
  N   N20       1.0  0.9902199999999999  0.44842999999999994  0.54554  1.0000
  N   N21       1.0  0.13902  0.66757  0.30553  1.0000
  N   N22       1.0  0.69213  0.50921  0.25115  1.0000
  N   N23       1.0  0.57309  0.22531  0.33164  1.0000
  N   N24       1.0  0.17867  0.30962  0.26696  1.0000
  N   N25       1.0  0.8913499999999999  0.14416  0.11946999999999999  1.0000
  N   N26       1.0  0.8461799999999999  0.08608  0.03365  1.0000
  N   N27       1.0  0.36156  0.94349  0.8436999999999998  1.0000
  N   N28       1.0  0.00935  0.05075  0.04692  1.0000
  N   N29       1.0  0.86043  0.83202  0.8044599999999998  1.0000
  N   N30       1.0  0.30863  0.99092  0.75016  1.0000
  N   N31       1.0  0.42457  0.27396  0.8325299999999999  1.0000
  N   N32       1.0  0.8221600000000001  0.18872  0.76606  1.0000
  N   N33       1.0  0.39055999999999996  0.35587  0.12047999999999999  1.0000
  N   N34       1.0  0.34641  0.41433  0.03383  1.0000
  N   N35       1.0  0.8633599999999999  0.55604  0.8428099999999998  1.0000
  N   N36       1.0  0.51101  0.4475799999999999  0.04605  1.0000
  N   N37       1.0  0.36157  0.66714  0.8053299999999999  1.0000
  N   N38       1.0  0.80673  0.50976  0.7515299999999999  1.0000
  N   N39       1.0  0.92584  0.22517999999999996  0.8314599999999999  1.0000
  N   N40       1.0  0.32026  0.30977  0.76632  1.0000
  N   N41       1.0  0.60804  0.14432  0.61997  1.0000
  N   N42       1.0  0.65259  0.0871  0.53359  1.0000
  N   N43       1.0  0.13683  0.94403  0.34395999999999993  1.0000
  N   N44       1.0  0.48937  0.05181  0.54754  1.0000
  N   N45       1.0  0.63897  0.83255  0.30509  1.0000
  N   N46       1.0  0.19298999999999997  0.9897900000000001  0.25111  1.0000
  N   N47       1.0  0.07376  0.27524  0.33277  1.0000
  N   N48       1.0  0.6796  0.18987  0.2661  1.0000
  N   N49       1.0  0.8900300000000001  0.64437  0.37946  1.0000
  N   N50       1.0  0.84587  0.58597  0.46634  1.0000
  N   N51       1.0  0.36214  0.44361  0.6571099999999999  1.0000
  N   N52       1.0  0.00978  0.55158  0.45446  1.0000
  N   N53       1.0  0.86098  0.33244  0.6944699999999999  1.0000
  N   N54       1.0  0.30788  0.49079000000000006  0.7488499999999999  1.0000
  N   N55       1.0  0.42692  0.77469  0.6683599999999998  1.0000
  N   N56       1.0  0.82134  0.69039  0.73304  1.0000
  N   N57       1.0  0.10864999999999998  0.85584  0.88053  1.0000
  N   N58       1.0  0.15383  0.91392  0.96635  1.0000
  N   N59       1.0  0.63845  0.05652  0.1563  1.0000
  N   N60       1.0  0.9906599999999999  0.94925  0.9530799999999999  1.0000
  N   N61       1.0  0.13957  0.16798  0.19554  1.0000
  N   N62       1.0  0.69138  0.00909  0.24984  1.0000
  N   N63       1.0  0.57543  0.72605  0.16747  1.0000
  N   N64       1.0  0.17784  0.81129  0.23393999999999995  1.0000
  O   O1        1.0  0.84156  0.75443  0.95753  1.0000
  O   O2        1.0  0.8521099999999999  0.70932  0.92195  1.0000
  O   O3        1.0  0.54009  0.77093  0.9609899999999999  1.0000
  O   O4        1.0  0.62198  0.79443  0.98865  1.0000
  O   O5        1.0  0.88279  0.67676  0.9902499999999999  1.0000
  O   O6        1.0  0.95805  0.64212  0.01304  1.0000
  O   O7        1.0  0.7814499999999999  0.53085  0.08597  1.0000
  O   O8        1.0  0.85135  0.57067  0.10561  1.0000
  O   O9        1.0  0.8230099999999999  0.45454  0.09728999999999999  1.0000
  O   O10       1.0  0.8823599999999999  0.4930899999999999  0.12657  1.0000
  O   O11       1.0  0.94518  0.35993  0.03554  1.0000
  O   O12       1.0  0.028799999999999996  0.33597  0.061649999999999996  1.0000
  O   O13       1.0  0.64419  0.50024  0.06661999999999998  1.0000
  O   O14       1.0  0.70743  0.45453  0.053709999999999994  1.0000
  O   O15       1.0  0.63172  0.4255  0.90515  1.0000
  O   O16       1.0  0.71096  0.4091  0.93847  1.0000
  O   O17       1.0  0.74914  0.47086  0.15593  1.0000
  O   O18       1.0  0.81875  0.49445  0.19141  1.0000
  O   O19       1.0  0.83489  0.43446  0.30349999999999994  1.0000
  O   O20       1.0  0.79954  0.378  0.30692  1.0000
  O   O21       1.0  0.9461199999999999  0.5362  0.19324999999999998  1.0000
  O   O22       1.0  0.9552199999999998  0.57298  0.15073  1.0000
  O   O23       1.0  0.17124  0.60366  0.1071  1.0000
  O   O24       1.0  0.25481  0.58134  0.13329  1.0000
  O   O25       1.0  0.9391499999999999  0.7456  0.01108  1.0000
  O   O26       1.0  0.01596  0.7143  0.03589  1.0000
  O   O27       1.0  0.7960699999999999  0.81995  0.07941  1.0000
  O   O28       1.0  0.8375399999999998  0.84728  0.12314999999999998  1.0000
  O   O29       1.0  0.67941  0.53306  0.13356  1.0000
  O   O30       1.0  0.75919  0.56167  0.15923  1.0000
  O   O31       1.0  0.46082999999999996  0.57539  0.1495  1.0000
  O   O32       1.0  0.44404  0.62934  0.17197  1.0000
  O   O33       1.0  0.12769  0.66922  0.07467  1.0000
  O   O34       1.0  0.03808  0.63825  0.07006  1.0000
  O   O35       1.0  0.15858  0.63084  0.017669999999999998  1.0000
  O   O36       1.0  0.25829  0.64711  0.011  1.0000
  O   O37       1.0  0.15844  0.74537  0.4563199999999999  1.0000
  O   O38       1.0  0.1485  0.79106  0.42169  1.0000
  O   O39       1.0  0.4599  0.72905  0.46104  1.0000
  O   O40       1.0  0.37803  0.7056  0.48863999999999996  1.0000
  O   O41       1.0  0.1144  0.82321  0.49045999999999995  1.0000
  O   O42       1.0  0.04135  0.8597299999999999  0.51293  1.0000
  O   O43       1.0  0.21875000000000003  0.96919  0.58602  1.0000
  O   O44       1.0  0.14893  0.92936  0.60554  1.0000
  O   O45       1.0  0.17749  0.045349999999999994  0.5973199999999999  1.0000
  O   O46       1.0  0.11774  0.00705  0.62655  1.0000
  O   O47       1.0  0.05675  0.1402  0.53573  1.0000
  O   O48       1.0  0.97211  0.164  0.5615  1.0000
  O   O49       1.0  0.3556  0.9981199999999999  0.56658  1.0000
  O   O50       1.0  0.29864  0.04704  0.55571  1.0000
  O   O51       1.0  0.36613  0.07443  0.40587  1.0000
  O   O52       1.0  0.28897  0.09173  0.44009  1.0000
  O   O53       1.0  0.25081  0.029249999999999998  0.6561  1.0000
  O   O54       1.0  0.18131  0.00569  0.69148  1.0000
  O   O55       1.0  0.16513  0.06569  0.8035499999999999  1.0000
  O   O56       1.0  0.20314  0.12156  0.80836  1.0000
  O   O57       1.0  0.05415999999999999  0.96389  0.6933299999999999  1.0000
  O   O58       1.0  0.04485  0.9270400000000001  0.65068  1.0000
  O   O59       1.0  0.8285300000000001  0.8964199999999999  0.60724  1.0000
  O   O60       1.0  0.74533  0.9200699999999999  0.63311  1.0000
  O   O61       1.0  0.06040000000000001  0.75289  0.50988  1.0000
  O   O62       1.0  0.98792  0.78691  0.53568  1.0000
  O   O63       1.0  0.20692  0.6818  0.57928  1.0000
  O   O64       1.0  0.1651  0.65259  0.6216899999999999  1.0000
  O   O65       1.0  0.32069  0.9672299999999999  0.63461  1.0000
  O   O66       1.0  0.24061  0.93822  0.65937  1.0000
  O   O67       1.0  0.53746  0.9239000000000002  0.6478  1.0000
  O   O68       1.0  0.55619  0.87054  0.67058  1.0000
  O   O69       1.0  0.87265  0.83076  0.57468  1.0000
  O   O70       1.0  0.9620400000000001  0.86185  0.5701  1.0000
  O   O71       1.0  0.84118  0.8690700000000001  0.5178  1.0000
  O   O72       1.0  0.74304  0.84948  0.51127  1.0000
  O   O73       1.0  0.3425  0.24541  0.54266  1.0000
  O   O74       1.0  0.35227  0.29073  0.57802  1.0000
  O   O75       1.0  0.03994  0.22927000000000003  0.53914  1.0000
  O   O76       1.0  0.12092999999999998  0.2056  0.51115  1.0000
  O   O77       1.0  0.384  0.32173  0.5081799999999999  1.0000
  O   O78       1.0  0.45831999999999995  0.35808  0.48698  1.0000
  O   O79       1.0  0.28276  0.46916  0.414  1.0000
  O   O80       1.0  0.35245  0.42925  0.39443  1.0000
  O   O81       1.0  0.32419  0.54539  0.40259999999999996  1.0000
  O   O82       1.0  0.38364  0.50681  0.37331  1.0000
  O   O83       1.0  0.44481  0.6402  0.46424  1.0000
  O   O84       1.0  0.52962  0.66379  0.43859999999999993  1.0000
  O   O85       1.0  0.14568  0.49972  0.43327999999999994  1.0000
  O   O86       1.0  0.20577  0.54721  0.44481  1.0000
  O   O87       1.0  0.1332  0.57461  0.5945099999999999  1.0000
  O   O88       1.0  0.21263  0.59112  0.56142  1.0000
  O   O89       1.0  0.24771999999999997  0.52921  0.34394  1.0000
  O   O90       1.0  0.3174  0.50549  0.30858  1.0000
  O   O91       1.0  0.33613  0.56589  0.19672  1.0000
  O   O92       1.0  0.29843  0.62187  0.19295  1.0000
  O   O93       1.0  0.44451999999999997  0.4637899999999999  0.30668  1.0000
  O   O94       1.0  0.45378  0.42696  0.34914  1.0000
  O   O95       1.0  0.66956  0.39634  0.3928  1.0000
  O   O96       1.0  0.75322  0.41855  0.36665  1.0000
  O   O97       1.0  0.44125999999999993  0.25274  0.48988999999999994  1.0000
  O   O98       1.0  0.5139  0.28664  0.46426999999999996  1.0000
  O   O99       1.0  0.29448  0.18186  0.4208299999999999  1.0000
  O   O100      1.0  0.33604  0.15197  0.37862  1.0000
  O   O101      1.0  0.17815  0.4670500000000001  0.36668  1.0000
  O   O102      1.0  0.25786  0.43839999999999996  0.34089  1.0000
  O   O103      1.0  0.95938  0.42489  0.35051  1.0000
  O   O104      1.0  0.94259  0.37085  0.32816  1.0000
  O   O105      1.0  0.62601  0.33086  0.42534  1.0000
  O   O106      1.0  0.53647  0.36183  0.43002  1.0000
  O   O107      1.0  0.65983  0.36905  0.48227  1.0000
  O   O108      1.0  0.75882  0.35123  0.48871  1.0000
  O   O109      1.0  0.65736  0.25491  0.04377  1.0000
  O   O110      1.0  0.6478  0.20907  0.07821  1.0000
  O   O111      1.0  0.95999  0.27075  0.03908  1.0000
  O   O112      1.0  0.8788299999999999  0.2945  0.01134  1.0000
  O   O113      1.0  0.61604  0.17841  0.00826  1.0000
  O   O114      1.0  0.54182  0.14193  0.98701  1.0000
  O   O115      1.0  0.71722  0.030770000000000002  0.9139599999999999  1.0000
  O   O116      1.0  0.64749  0.07068  0.8945299999999999  1.0000
  O   O117      1.0  0.67583  0.9546000000000001  0.90259  1.0000
  O   O118      1.0  0.61621  0.9929199999999999  0.87333  1.0000
  O   O119      1.0  0.55529  0.8598200000000001  0.96426  1.0000
  O   O120      1.0  0.47039999999999993  0.8361  0.9386099999999999  1.0000
  O   O121      1.0  0.85429  0.00032999999999999956  0.9333299999999999  1.0000
  O   O122      1.0  0.7942399999999998  0.95284  0.94471  1.0000
  O   O123      1.0  0.8667799999999999  0.9220699999999998  0.09282  1.0000
  O   O124      1.0  0.7846799999999999  0.90915  0.06004  1.0000
  O   O125      1.0  0.7522999999999999  0.9706599999999999  0.8436999999999998  1.0000
  O   O126      1.0  0.68267  0.99441  0.8085  1.0000
  O   O127      1.0  0.66358  0.9342299999999999  0.69647  1.0000
  O   O128      1.0  0.70162  0.87837  0.69165  1.0000
  O   O129      1.0  0.55552  0.03615  0.80658  1.0000
  O   O130      1.0  0.54615  0.07301  0.84919  1.0000
  O   O131      1.0  0.33005  0.10358  0.8925699999999999  1.0000
  O   O132      1.0  0.24656  0.07991  0.8669599999999998  1.0000
  O   O133      1.0  0.55863  0.24720999999999999  0.9900499999999999  1.0000
  O   O134      1.0  0.48599  0.21316  0.96439  1.0000
  O   O135      1.0  0.70241  0.31988  0.92227  1.0000
  O   O136      1.0  0.66337  0.34734  0.87825  1.0000
  O   O137      1.0  0.82181  0.03273  0.86685  1.0000
  O   O138      1.0  0.74146  0.06164000000000001  0.84212  1.0000
  O   O139      1.0  0.03902  0.07473  0.8520999999999999  1.0000
  O   O140      1.0  0.05743999999999999  0.12754  0.82798  1.0000
  O   O141      1.0  0.37417  0.16923  0.92532  1.0000
  O   O142      1.0  0.46354  0.13814  0.92998  1.0000
  O   O143      1.0  0.34032  0.13097  0.98219  1.0000
  O   O144      1.0  0.24129  0.14899  0.98865  1.0000
  O   O145      1.0  0.15845  0.24558  0.04246  1.0000
  O   O146      1.0  0.1479  0.29069  0.07804999999999998  1.0000
  O   O147      1.0  0.45991  0.22908  0.03901  1.0000
  O   O148      1.0  0.37802  0.20558  0.01135  1.0000
  O   O149      1.0  0.11720999999999998  0.32325  0.00975  1.0000
  O   O150      1.0  0.04195  0.35789  0.98696  1.0000
  O   O151      1.0  0.21855000000000002  0.46915  0.9140199999999999  1.0000
  O   O152      1.0  0.14865  0.42933  0.8943899999999999  1.0000
  O   O153      1.0  0.17699  0.54547  0.90271  1.0000
  O   O154      1.0  0.11764  0.50692  0.8734299999999999  1.0000
  O   O155      1.0  0.054819999999999994  0.64008  0.96446  1.0000
  O   O156      1.0  0.97121  0.66404  0.93834  1.0000
  O   O157      1.0  0.35582  0.49976  0.93338  1.0000
  O   O158      1.0  0.29257  0.54547  0.9462899999999997  1.0000
  O   O159      1.0  0.36828  0.57451  0.09485  1.0000
  O   O160      1.0  0.28905  0.59091  0.06153  1.0000
  O   O161      1.0  0.25086  0.52915  0.8440699999999999  1.0000
  O   O162      1.0  0.18125  0.50556  0.80859  1.0000
  O   O163      1.0  0.16511  0.56554  0.6965  1.0000
  O   O164      1.0  0.20046  0.622  0.69307  1.0000
  O   O165      1.0  0.05388  0.46381000000000006  0.8067499999999999  1.0000
  O   O166      1.0  0.04478  0.42702  0.84927  1.0000
  O   O167      1.0  0.82877  0.39635  0.8929  1.0000
  O   O168      1.0  0.7452  0.41867  0.86671  1.0000
  O   O169      1.0  0.06085  0.25441  0.9889099999999998  1.0000
  O   O170      1.0  0.98405  0.28571  0.9641099999999999  1.0000
  O   O171      1.0  0.20393  0.18005  0.9205899999999999  1.0000
  O   O172      1.0  0.16246  0.15272  0.8768399999999998  1.0000
  O   O173      1.0  0.3206  0.46695  0.8664399999999999  1.0000
  O   O174      1.0  0.24081  0.43834  0.8407599999999998  1.0000
  O   O175      1.0  0.53917  0.42461  0.8504999999999999  1.0000
  O   O176      1.0  0.55596  0.37067  0.82803  1.0000
  O   O177      1.0  0.8723199999999999  0.33079  0.92533  1.0000
  O   O178      1.0  0.9619199999999999  0.36175  0.92994  1.0000
  O   O179      1.0  0.84142  0.36917  0.98232  1.0000
  O   O180      1.0  0.74172  0.35289  0.989  1.0000
  O   O181      1.0  0.84156  0.25463  0.54368  1.0000
  O   O182      1.0  0.8514999999999999  0.20895  0.57831  1.0000
  O   O183      1.0  0.5401  0.27095  0.53896  1.0000
  O   O184      1.0  0.62198  0.29441  0.51136  1.0000
  O   O185      1.0  0.88561  0.17679  0.50954  1.0000
  O   O186      1.0  0.95866  0.14027  0.48707  1.0000
  O   O187      1.0  0.78125  0.03081  0.41398  1.0000
  O   O188      1.0  0.85107  0.07064  0.39446  1.0000
  O   O189      1.0  0.8225199999999999  0.9546599999999998  0.40268  1.0000
  O   O190      1.0  0.88226  0.9929499999999999  0.37345  1.0000
  O   O191      1.0  0.94326  0.8597999999999999  0.46426999999999996  1.0000
  O   O192      1.0  0.0279  0.83601  0.43849  1.0000
  O   O193      1.0  0.6444  0.00188  0.43342  1.0000
  O   O194      1.0  0.70137  0.95297  0.44428  1.0000
  O   O195      1.0  0.63388  0.92558  0.59413  1.0000
  O   O196      1.0  0.71103  0.9082699999999999  0.55991  1.0000
  O   O197      1.0  0.74919  0.9707500000000001  0.3439  1.0000
  O   O198      1.0  0.81869  0.99431  0.30851  1.0000
  O   O199      1.0  0.8348699999999999  0.93431  0.19645  1.0000
  O   O200      1.0  0.79686  0.87844  0.19164  1.0000
  O   O201      1.0  0.94585  0.03611  0.30667  1.0000
  O   O202      1.0  0.95515  0.07297  0.34931  1.0000
  O   O203      1.0  0.17147  0.10359  0.39275999999999994  1.0000
  O   O204      1.0  0.25467  0.07993  0.36689  1.0000
  O   O205      1.0  0.9396  0.24711999999999998  0.4901199999999999  1.0000
  O   O206      1.0  0.01208  0.2131  0.46432  1.0000
  O   O207      1.0  0.79308  0.3182  0.42072  1.0000
  O   O208      1.0  0.8349000000000001  0.34742  0.37831  1.0000
  O   O209      1.0  0.67931  0.03278  0.36539  1.0000
  O   O210      1.0  0.75938  0.06179  0.34062999999999993  1.0000
  O   O211      1.0  0.46249999999999997  0.0761  0.35218  1.0000
  O   O212      1.0  0.44382  0.12949  0.32947  1.0000
  O   O213      1.0  0.12736  0.16924  0.4253199999999999  1.0000
  O   O214      1.0  0.03797  0.13815  0.42989999999999995  1.0000
  O   O215      1.0  0.15882  0.13094  0.4822  1.0000
  O   O216      1.0  0.25696  0.15053  0.48873  1.0000
  O   O217      1.0  0.65751  0.75459  0.45734  1.0000
  O   O218      1.0  0.64774  0.70927  0.42198  1.0000
  O   O219      1.0  0.96006  0.77073  0.46086  1.0000
  O   O220      1.0  0.87907  0.79441  0.48885  1.0000
  O   O221      1.0  0.616  0.67827  0.49182  1.0000
  O   O222      1.0  0.54168  0.64193  0.51301  1.0000
  O   O223      1.0  0.71724  0.53085  0.586  1.0000
  O   O224      1.0  0.64755  0.57076  0.60557  1.0000
  O   O225      1.0  0.67581  0.45461999999999997  0.5973999999999999  1.0000
  O   O226      1.0  0.61637  0.49319  0.6266899999999999  1.0000
  O   O227      1.0  0.55519  0.3598  0.5357599999999999  1.0000
  O   O228      1.0  0.47038  0.33621  0.5614  1.0000
  O   O229      1.0  0.85432  0.50029  0.56672  1.0000
  O   O230      1.0  0.79423  0.45280000000000004  0.55519  1.0000
  O   O231      1.0  0.8668  0.4254  0.40549  1.0000
  O   O232      1.0  0.7873799999999999  0.40888  0.43858  1.0000
  O   O233      1.0  0.75229  0.4708  0.6560499999999999  1.0000
  O   O234      1.0  0.68261  0.49451  0.69142  1.0000
  O   O235      1.0  0.66387  0.43412  0.80328  1.0000
  O   O236      1.0  0.70157  0.37813  0.80704  1.0000
  O   O237      1.0  0.55549  0.53621  0.6933199999999999  1.0000
  O   O238      1.0  0.54623  0.57304  0.65086  1.0000
  O   O239      1.0  0.33044  0.60367  0.6072  1.0000
  O   O240      1.0  0.24678  0.58145  0.6333499999999999  1.0000
  O   O241      1.0  0.55874  0.74726  0.51011  1.0000
  O   O242      1.0  0.4861  0.71337  0.53573  1.0000
  O   O243      1.0  0.70554  0.81815  0.57917  1.0000
  O   O244      1.0  0.66394  0.84801  0.62138  1.0000
  O   O245      1.0  0.8218600000000001  0.53295  0.63332  1.0000
  O   O246      1.0  0.74215  0.5616  0.65911  1.0000
  O   O247      1.0  0.04063  0.57511  0.6494899999999999  1.0000
  O   O248      1.0  0.05741  0.62915  0.67184  1.0000
  O   O249      1.0  0.37399  0.66915  0.57466  1.0000
  O   O250      1.0  0.46353  0.63818  0.56998  1.0000
  O   O251      1.0  0.34017  0.63095  0.51773  1.0000
  O   O252      1.0  0.24118999999999996  0.64878  0.5112899999999999  1.0000
  O   O253      1.0  0.34264  0.7451  0.95623  1.0000
  O   O254      1.0  0.3522  0.79094  0.92179  1.0000
  O   O255      1.0  0.04001  0.72926  0.9609199999999999  1.0000
  O   O256      1.0  0.12117  0.7055  0.98865  1.0000
  O   O257      1.0  0.38396  0.82159  0.99174  1.0000
  O   O258      1.0  0.45819  0.85808  0.01299  1.0000
  O   O259      1.0  0.28278  0.96923  0.08602999999999998  1.0000
  O   O260      1.0  0.35252  0.92933  0.10546999999999998  1.0000
  O   O261      1.0  0.32418  0.0454  0.09741  1.0000
  O   O262      1.0  0.3837999999999999  0.007089999999999999  0.12667  1.0000
  O   O263      1.0  0.44470999999999994  0.14019  0.03574  1.0000
  O   O264      1.0  0.52961  0.1639  0.06137999999999999  1.0000
  O   O265      1.0  0.14571  0.99967  0.06667  1.0000
  O   O266      1.0  0.20575999999999997  0.04716  0.05529  1.0000
  O   O267      1.0  0.13322  0.07793  0.90718  1.0000
  O   O268      1.0  0.21532  0.09086  0.9399599999999999  1.0000
  O   O269      1.0  0.24771  0.02934  0.1563  1.0000
  O   O270      1.0  0.31733  0.0056  0.1915  1.0000
  O   O271      1.0  0.33642  0.06578000000000002  0.30353  1.0000
  O   O272      1.0  0.29839  0.12164  0.30833999999999995  1.0000
  O   O273      1.0  0.44448  0.96386  0.19342  1.0000
  O   O274      1.0  0.4538499999999999  0.9269900000000001  0.15081  1.0000
  O   O275      1.0  0.66995  0.8964199999999999  0.10742999999999998  1.0000
  O   O276      1.0  0.75345  0.9201  0.13303  1.0000
  O   O277      1.0  0.44136999999999993  0.7528  0.00995  1.0000
  O   O278      1.0  0.51401  0.78685  0.03561  1.0000
  O   O279      1.0  0.2976  0.68012  0.07774  1.0000
  O   O280      1.0  0.33666  0.65266  0.12174999999999998  1.0000
  O   O281      1.0  0.17819  0.96727  0.13314  1.0000
  O   O282      1.0  0.25854  0.93837  0.15787  1.0000
  O   O283      1.0  0.9609599999999999  0.92528  0.1479  1.0000
  O   O284      1.0  0.9425599999999998  0.87246  0.17202  1.0000
  O   O285      1.0  0.62584  0.83077  0.07468  1.0000
  O   O286      1.0  0.53646  0.86187  0.07002  1.0000
  O   O287      1.0  0.65968  0.8690299999999999  0.01781  1.0000
  O   O288      1.0  0.75871  0.85101  0.01135  1.0000
