data_image0
_chemical_formula_structural       Zn48H504C684O156
_chemical_formula_sum              "Zn48 H504 C684 O156"
_cell_length_a       21.89649
_cell_length_b       21.89351
_cell_length_c       78.45726
_cell_angle_alpha    90.00384000000001
_cell_angle_beta     89.99464
_cell_angle_gamma    119.99842999999998

_space_group_name_H-M_alt    "P 1"
_space_group_IT_number       1

loop_
  _space_group_symop_operation_xyz
  'x, y, z'

loop_
  _atom_site_type_symbol
  _atom_site_label
  _atom_site_symmetry_multiplicity
  _atom_site_fract_x
  _atom_site_fract_y
  _atom_site_fract_z
  _atom_site_occupancy
  Zn  Zn1       1.0  0.22701999999999997  0.63901  0.14424999999999993  1.0000
  Zn  Zn2       1.0  0.32419  0.65137  0.11294  1.0000
  Zn  Zn3       1.0  0.32414  0.56635  0.14665  1.0000
  Zn  Zn4       1.0  0.40053999999999995  0.73381  0.1449  1.0000
  Zn  Zn5       1.0  0.3608  0.58793  0.8109399999999998  1.0000
  Zn  Zn6       1.0  0.34861999999999993  0.67281  0.77961  1.0000
  Zn  Zn7       1.0  0.43364  0.75782  0.8133199999999999  1.0000
  Zn  Zn8       1.0  0.26621999999999996  0.66669  0.81153  1.0000
  Zn  Zn9       1.0  0.41202  0.77285  0.47762  1.0000
  Zn  Zn10      1.0  0.32719999999999994  0.6758  0.44628  1.0000
  Zn  Zn11      1.0  0.24215  0.67584  0.47998999999999997  1.0000
  Zn  Zn12      1.0  0.33339  0.59956  0.4782199999999999  1.0000
  Zn  Zn13      1.0  0.77483  0.36266  0.6446099999999998  1.0000
  Zn  Zn14      1.0  0.67576  0.34875  0.6133  1.0000
  Zn  Zn15      1.0  0.67598  0.43395  0.6464599999999998  1.0000
  Zn  Zn16      1.0  0.59989  0.26659  0.64466  1.0000
  Zn  Zn17      1.0  0.63824  0.41215  0.31127999999999995  1.0000
  Zn  Zn18      1.0  0.65124  0.32707  0.27995  1.0000
  Zn  Zn19      1.0  0.56611  0.24188000000000004  0.31316  1.0000
  Zn  Zn20      1.0  0.73355  0.33343  0.31143  1.0000
  Zn  Zn21      1.0  0.58793  0.22572000000000003  0.97797  1.0000
  Zn  Zn22      1.0  0.67287  0.32418  0.94663  1.0000
  Zn  Zn23      1.0  0.75823  0.32417  0.97978  1.0000
  Zn  Zn24      1.0  0.6668199999999997  0.40025  0.9780399999999999  1.0000
  Zn  Zn25      1.0  0.63911  0.22703000000000004  0.5224199999999999  1.0000
  Zn  Zn26      1.0  0.65134  0.32415  0.5537399999999999  1.0000
  Zn  Zn27      1.0  0.5662899999999998  0.32406  0.52001  1.0000
  Zn  Zn28      1.0  0.73379  0.40051  0.52177  1.0000
  Zn  Zn29      1.0  0.58789  0.36075  0.8557299999999999  1.0000
  Zn  Zn30      1.0  0.67282  0.34861  0.8870599999999998  1.0000
  Zn  Zn31      1.0  0.75779  0.43362  0.8533499999999999  1.0000
  Zn  Zn32      1.0  0.66682  0.26626  0.8551299999999998  1.0000
  Zn  Zn33      1.0  0.7728399999999997  0.41211  0.18903999999999999  1.0000
  Zn  Zn34      1.0  0.6758  0.3272  0.22038999999999995  1.0000
  Zn  Zn35      1.0  0.67588  0.24216000000000001  0.18667999999999998  1.0000
  Zn  Zn36      1.0  0.59961  0.33334  0.18845999999999993  1.0000
  Zn  Zn37      1.0  0.3625499999999999  0.77473  0.02206  1.0000
  Zn  Zn38      1.0  0.34868999999999994  0.67576  0.05335999999999999  1.0000
  Zn  Zn39      1.0  0.43386  0.67582  0.020189999999999993  1.0000
  Zn  Zn40      1.0  0.26649  0.60003  0.02202  1.0000
  Zn  Zn41      1.0  0.4121699999999999  0.63882  0.35538  1.0000
  Zn  Zn42      1.0  0.32704  0.65122  0.38673  1.0000
  Zn  Zn43      1.0  0.2418  0.56603  0.3535099999999999  1.0000
  Zn  Zn44      1.0  0.33338  0.7336  0.35522999999999993  1.0000
  Zn  Zn45      1.0  0.22572999999999996  0.58793  0.6887  1.0000
  Zn  Zn46      1.0  0.32419  0.67287  0.72003  1.0000
  Zn  Zn47      1.0  0.32418  0.75822  0.6868799999999999  1.0000
  Zn  Zn48      1.0  0.4002499999999999  0.66681  0.6886399999999999  1.0000
  H   H1        1.0  0.21518  0.68224  0.07605  1.0000
  H   H2        1.0  0.9639399999999999  0.59669  0.09159999999999997  1.0000
  H   H3        1.0  0.048229999999999995  0.59683  0.11322  1.0000
  H   H4        1.0  0.15967999999999996  0.67173  0.04205999999999999  1.0000
  H   H5        1.0  0.15538000000000002  0.74679  0.04852999999999999  1.0000
  H   H6        1.0  0.002159999999999969  0.69817  0.05868999999999999  1.0000
  H   H7        1.0  0.9502599999999998  0.60635  0.05534999999999999  1.0000
  H   H8        1.0  0.005809999999999984  0.54128  0.04235  1.0000
  H   H9        1.0  0.06823  0.58309  0.02583999999999999  1.0000
  H   H10       1.0  0.03905999999999991  0.74544  0.03147  1.0000
  H   H11       1.0  0.08915  0.7218  0.01806  1.0000
  H   H12       1.0  0.90482  0.46624999999999994  0.01556  1.0000
  H   H13       1.0  0.83556  0.59866  0.99223  1.0000
  H   H14       1.0  0.93886  0.70618  0.00465  1.0000
  H   H15       1.0  0.08101999999999995  0.50568  0.18192999999999995  1.0000
  H   H16       1.0  0.07057  0.27244  0.18207999999999994  1.0000
  H   H17       1.0  0.16593999999999998  0.37509  0.16621  1.0000
  H   H18       1.0  0.98654  0.44249  0.21084  1.0000
  H   H19       1.0  0.9248699999999997  0.3885  0.1953  1.0000
  H   H20       1.0  0.91653  0.24961  0.19371  1.0000
  H   H21       1.0  0.9725099999999999  0.24285000000000004  0.20897  1.0000
  H   H22       1.0  0.83747  0.30499  0.21284999999999998  1.0000
  H   H23       1.0  0.8472499999999998  0.23631  0.22164999999999999  1.0000
  H   H24       1.0  0.04631  0.39728  0.22855999999999996  1.0000
  H   H25       1.0  0.007090000000000004  0.3071  0.23379999999999998  1.0000
  H   H26       1.0  0.7739499999999998  0.29669  0.24552  1.0000
  H   H27       1.0  0.9304199999999999  0.39906  0.28461999999999993  1.0000
  H   H28       1.0  0.024029999999999992  0.4078  0.26483  1.0000
  H   H29       1.0  0.41926  0.88379  0.17414999999999994  1.0000
  H   H30       1.0  0.20200999999999994  0.8848  0.19291  1.0000
  H   H31       1.0  0.19366999999999993  0.7881  0.17421  1.0000
  H   H32       1.0  0.48324  0.98827  0.19961  1.0000
  H   H33       1.0  0.46455999999999986  0.04426  0.18711999999999998  1.0000
  H   H34       1.0  0.29968000000000006  0.9910300000000001  0.21603  1.0000
  H   H35       1.0  0.34061  0.04582  0.19807999999999995  1.0000
  H   H36       1.0  0.51297  0.11714999999999999  0.21336  1.0000
  H   H37       1.0  0.44052999999999987  0.13124  0.21384  1.0000
  H   H38       1.0  0.34891  0.9253700000000001  0.22847  1.0000
  H   H39       1.0  0.43818  0.94897  0.22637  1.0000
  H   H40       1.0  0.5192  0.19872  0.24526  1.0000
  H   H41       1.0  0.44436  0.04506  0.28558999999999996  1.0000
  H   H42       1.0  0.39024  0.9473200000000002  0.26415  1.0000
  H   H43       1.0  0.31748  0.53278  0.74268  1.0000
  H   H44       1.0  0.4034199999999999  0.36748  0.75828  1.0000
  H   H45       1.0  0.4029  0.45145  0.77989  1.0000
  H   H46       1.0  0.32859999999999995  0.48805  0.70866  1.0000
  H   H47       1.0  0.25366999999999995  0.40854  0.71509  1.0000
  H   H48       1.0  0.30222  0.30419  0.72531  1.0000
  H   H49       1.0  0.39406  0.34405  0.72205  1.0000
  H   H50       1.0  0.45938999999999997  0.46469  0.70898  1.0000
  H   H51       1.0  0.41759  0.4849800000000001  0.69239  1.0000
  H   H52       1.0  0.25513  0.29389  0.6980799999999999  1.0000
  H   H53       1.0  0.27899  0.36755  0.68466  1.0000
  H   H54       1.0  0.5343400000000001  0.43782000000000004  0.6821699999999998  1.0000
  H   H55       1.0  0.40108  0.2364  0.65877  1.0000
  H   H56       1.0  0.29405  0.23244999999999996  0.67142  1.0000
  H   H57       1.0  0.49409999999999993  0.57524  0.8485799999999999  1.0000
  H   H58       1.0  0.7272999999999998  0.79808  0.8487  1.0000
  H   H59       1.0  0.6245799999999999  0.79071  0.83283  1.0000
  H   H60       1.0  0.55737  0.54408  0.8775  1.0000
  H   H61       1.0  0.61124  0.53623  0.8619499999999999  1.0000
  H   H62       1.0  0.7502  0.66691  0.8603199999999999  1.0000
  H   H63       1.0  0.7569199999999999  0.72966  0.8755699999999998  1.0000
  H   H64       1.0  0.69488  0.53244  0.8794999999999998  1.0000
  H   H65       1.0  0.7635699999999999  0.61097  0.88829  1.0000
  H   H66       1.0  0.60263  0.64912  0.89519  1.0000
  H   H67       1.0  0.69276  0.70007  0.9004  1.0000
  H   H68       1.0  0.7032099999999999  0.47735  0.91217  1.0000
  H   H69       1.0  0.60081  0.53156  0.95127  1.0000
  H   H70       1.0  0.59219  0.61642  0.93144  1.0000
  H   H71       1.0  0.11621999999999996  0.53552  0.8407999999999999  1.0000
  H   H72       1.0  0.11535000000000001  0.31732  0.85954  1.0000
  H   H73       1.0  0.21206  0.40574  0.84083  1.0000
  H   H74       1.0  0.012029999999999968  0.49517999999999995  0.8663199999999999  1.0000
  H   H75       1.0  0.9559899999999998  0.42064  0.85378  1.0000
  H   H76       1.0  0.009100000000000016  0.30874  0.88269  1.0000
  H   H77       1.0  0.9544399999999998  0.29501  0.86471  1.0000
  H   H78       1.0  0.88302  0.39596  0.8800099999999998  1.0000
  H   H79       1.0  0.8689999999999999  0.30942  0.8804399999999999  1.0000
  H   H80       1.0  0.07475999999999998  0.42367  0.8951299999999999  1.0000
  H   H81       1.0  0.05116999999999998  0.48933  0.89303  1.0000
  H   H82       1.0  0.8013399999999999  0.32053  0.9118799999999999  1.0000
  H   H83       1.0  0.95502  0.39929  0.9522599999999999  1.0000
  H   H84       1.0  0.05264000000000007  0.44301000000000007  0.93078  1.0000
  H   H85       1.0  0.46708  0.78462  0.40942  1.0000
  H   H86       1.0  0.6325799999999999  0.03596  0.42490999999999995  1.0000
  H   H87       1.0  0.54857  0.95174  0.44655  1.0000
  H   H88       1.0  0.51192  0.8399  0.37543  1.0000
  H   H89       1.0  0.5914499999999999  0.84456  0.38188  1.0000
  H   H90       1.0  0.6958  0.9976800000000001  0.39197  1.0000
  H   H91       1.0  0.65587  0.04955  0.38865  1.0000
  H   H92       1.0  0.53492  0.99367  0.37570999999999993  1.0000
  H   H93       1.0  0.51477  0.9316600000000002  0.3591099999999999  1.0000
  H   H94       1.0  0.70602  0.96075  0.3647399999999999  1.0000
  H   H95       1.0  0.6323199999999999  0.91067  0.3513599999999999  1.0000
  H   H96       1.0  0.56201  0.09613  0.34915  1.0000
  H   H97       1.0  0.76389  0.16519  0.32592  1.0000
  H   H98       1.0  0.76698  0.06087  0.33803999999999995  1.0000
  H   H99       1.0  0.4246199999999999  0.9188399999999999  0.5152599999999999  1.0000
  H   H100      1.0  0.20187  0.92938  0.51539  1.0000
  H   H101      1.0  0.20916999999999994  0.83399  0.49951999999999996  1.0000
  H   H102      1.0  0.45595  0.013390000000000003  0.54416  1.0000
  H   H103      1.0  0.46362999999999993  0.07503  0.52862  1.0000
  H   H104      1.0  0.33316999999999997  0.08342  0.52702  1.0000
  H   H105      1.0  0.27038  0.02748  0.54227  1.0000
  H   H106      1.0  0.46749  0.16246  0.54617  1.0000
  H   H107      1.0  0.38897999999999994  0.15264  0.55496  1.0000
  H   H108      1.0  0.35092999999999996  0.9535800000000001  0.56187  1.0000
  H   H109      1.0  0.29994  0.99279  0.5671  1.0000
  H   H110      1.0  0.52265  0.22598  0.57884  1.0000
  H   H111      1.0  0.4685999999999999  0.06945  0.61793  1.0000
  H   H112      1.0  0.38365000000000005  0.97587  0.59815  1.0000
  H   H113      1.0  0.46459999999999996  0.58064  0.50751  1.0000
  H   H114      1.0  0.68275  0.79806  0.5262299999999999  1.0000
  H   H115      1.0  0.59438  0.80629  0.50751  1.0000
  H   H116      1.0  0.50509  0.51679  0.53296  1.0000
  H   H117      1.0  0.57972  0.53541  0.5204599999999999  1.0000
  H   H118      1.0  0.6915099999999998  0.70031  0.5493499999999999  1.0000
  H   H119      1.0  0.7051499999999999  0.65932  0.53138  1.0000
  H   H120      1.0  0.6043  0.4870399999999999  0.54669  1.0000
  H   H121      1.0  0.6907799999999998  0.55952  0.54719  1.0000
  H   H122      1.0  0.5765  0.65112  0.5618  1.0000
  H   H123      1.0  0.51085  0.56185  0.5597  1.0000
  H   H124      1.0  0.67947  0.48075  0.57858  1.0000
  H   H125      1.0  0.6007  0.5556  0.61893  1.0000
  H   H126      1.0  0.55708  0.60977  0.59748  1.0000
  H   H127      1.0  0.7846899999999999  0.3181  0.57645  1.0000
  H   H128      1.0  0.03606999999999999  0.4036  0.5918999999999999  1.0000
  H   H129      1.0  0.95175  0.40324  0.61357  1.0000
  H   H130      1.0  0.84022  0.3296  0.54242  1.0000
  H   H131      1.0  0.84495  0.25456  0.54871  1.0000
  H   H132      1.0  0.9983299999999999  0.30343  0.55881  1.0000
  H   H133      1.0  0.04975999999999995  0.3954  0.55566  1.0000
  H   H134      1.0  0.9945300000000001  0.46049000000000007  0.5427  1.0000
  H   H135      1.0  0.93215  0.41894  0.52615  1.0000
  H   H136      1.0  0.9605100000000001  0.25611  0.53167  1.0000
  H   H137      1.0  0.91069  0.28021  0.51831  1.0000
  H   H138      1.0  0.09621999999999999  0.5355  0.51599  1.0000
  H   H139      1.0  0.16424999999999995  0.40227  0.4925399999999999  1.0000
  H   H140      1.0  0.06043999999999999  0.29497  0.50491  1.0000
  H   H141      1.0  0.91857  0.49501  0.6821699999999998  1.0000
  H   H142      1.0  0.92927  0.72839  0.68209  1.0000
  H   H143      1.0  0.83316  0.6251  0.66645  1.0000
  H   H144      1.0  0.01455000000000002  0.55899  0.71076  1.0000
  H   H145      1.0  0.07542999999999994  0.61285  0.6950699999999999  1.0000
  H   H146      1.0  0.08358999999999997  0.7513  0.69342  1.0000
  H   H147      1.0  0.028099999999999976  0.75852  0.70877  1.0000
  H   H148      1.0  0.16338999999999998  0.69725  0.71261  1.0000
  H   H149      1.0  0.15289999999999998  0.76529  0.72158  1.0000
  H   H150      1.0  0.9543  0.60416  0.7284  1.0000
  H   H151      1.0  0.9936  0.69436  0.7336399999999998  1.0000
  H   H152      1.0  0.22659999999999997  0.70413  0.74523  1.0000
  H   H153      1.0  0.07013  0.60136  0.7843299999999999  1.0000
  H   H154      1.0  0.97655  0.5932  0.76457  1.0000
  H   H155      1.0  0.5803999999999999  0.11673000000000001  0.67416  1.0000
  H   H156      1.0  0.79798  0.11542000000000001  0.69249  1.0000
  H   H157      1.0  0.8059699999999999  0.21225000000000002  0.67388  1.0000
  H   H158      1.0  0.51688  0.01241  0.69962  1.0000
  H   H159      1.0  0.53533  0.95652  0.687  1.0000
  H   H160      1.0  0.7004  0.00924  0.71582  1.0000
  H   H161      1.0  0.65935  0.95472  0.69785  1.0000
  H   H162      1.0  0.48706999999999995  0.88312  0.7130299999999999  1.0000
  H   H163      1.0  0.5594700000000001  0.8690199999999999  0.7135  1.0000
  H   H164      1.0  0.65093  0.07442  0.72851  1.0000
  H   H165      1.0  0.5617799999999998  0.05104  0.72634  1.0000
  H   H166      1.0  0.48022000000000004  0.80059  0.74482  1.0000
  H   H167      1.0  0.55423  0.95328  0.7854199999999998  1.0000
  H   H168      1.0  0.60868  0.05147  0.7640899999999998  1.0000
  H   H169      1.0  0.6818399999999999  0.4665500000000001  0.24312  1.0000
  H   H170      1.0  0.59628  0.63238  0.25859  1.0000
  H   H171      1.0  0.5968  0.54852  0.28026  1.0000
  H   H172      1.0  0.67013  0.51042  0.20908999999999997  1.0000
  H   H173      1.0  0.7451999999999999  0.59013  0.21536999999999998  1.0000
  H   H174      1.0  0.69627  0.69481  0.22548  1.0000
  H   H175      1.0  0.6043299999999999  0.65415  0.22231999999999996  1.0000
  H   H176      1.0  0.53935  0.53403  0.20936  1.0000
  H   H177      1.0  0.58084  0.51313  0.19279999999999997  1.0000
  H   H178      1.0  0.74369  0.70425  0.19831999999999997  1.0000
  H   H179      1.0  0.71975  0.6303  0.18498  1.0000
  H   H180      1.0  0.46443  0.56097  0.18267  1.0000
  H   H181      1.0  0.5978499999999999  0.76227  0.15928  1.0000
  H   H182      1.0  0.70509  0.76525  0.17152  1.0000
  H   H183      1.0  0.50512  0.4235900000000001  0.3488199999999999  1.0000
  H   H184      1.0  0.2717399999999999  0.20095  0.3487199999999999  1.0000
  H   H185      1.0  0.37501  0.20806  0.3331  1.0000
  H   H186      1.0  0.44113999999999987  0.45558  0.37741  1.0000
  H   H187      1.0  0.38731  0.46266000000000007  0.36172  1.0000
  H   H188      1.0  0.24886999999999998  0.33241  0.36007  1.0000
  H   H189      1.0  0.24159999999999998  0.26965  0.3754  1.0000
  H   H190      1.0  0.30292  0.46623  0.37927  1.0000
  H   H191      1.0  0.23485999999999999  0.38769  0.38823  1.0000
  H   H192      1.0  0.39591999999999994  0.35014  0.3950499999999999  1.0000
  H   H193      1.0  0.30572999999999995  0.29926  0.40027999999999997  1.0000
  H   H194      1.0  0.29589999999999994  0.52247  0.41189999999999993  1.0000
  H   H195      1.0  0.39864  0.46873  0.451  1.0000
  H   H196      1.0  0.4066899999999999  0.38321  0.43124  1.0000
  H   H197      1.0  0.88316  0.46401  0.34078  1.0000
  H   H198      1.0  0.8848899999999998  0.68298  0.3592399999999999  1.0000
  H   H199      1.0  0.78789  0.59437  0.34061999999999987  1.0000
  H   H200      1.0  0.9874699999999997  0.50447  0.36620999999999987  1.0000
  H   H201      1.0  0.04339999999999998  0.57889  0.35362  1.0000
  H   H202      1.0  0.99096  0.69125  0.38253  1.0000
  H   H203      1.0  0.045430000000000005  0.70468  0.3645399999999999  1.0000
  H   H204      1.0  0.11672999999999993  0.60368  0.37969  1.0000
  H   H205      1.0  0.13094  0.69027  0.38015  1.0000
  H   H206      1.0  0.9254599999999997  0.57625  0.3951499999999999  1.0000
  H   H207      1.0  0.94909  0.51063  0.3929999999999999  1.0000
  H   H208      1.0  0.19934999999999997  0.67959  0.41147  1.0000
  H   H209      1.0  0.04676000000000001  0.6009  0.45207  1.0000
  H   H210      1.0  0.94852  0.55729  0.43075999999999987  1.0000
  H   H211      1.0  0.53336  0.21533000000000002  0.9098  1.0000
  H   H212      1.0  0.36767  0.9639  0.9252299999999998  1.0000
  H   H213      1.0  0.45142  0.04823  0.9469199999999999  1.0000
  H   H214      1.0  0.48964  0.15977  0.87579  1.0000
  H   H215      1.0  0.4099599999999999  0.15528  0.8820499999999998  1.0000
  H   H216      1.0  0.30518999999999996  0.00158  0.8921599999999998  1.0000
  H   H217      1.0  0.34579999999999994  0.9502599999999999  0.8889699999999999  1.0000
  H   H218      1.0  0.46592999999999996  0.00542  0.87603  1.0000
  H   H219      1.0  0.48697  0.06796  0.8595099999999999  1.0000
  H   H220      1.0  0.29576  0.03965  0.8649999999999999  1.0000
  H   H221      1.0  0.36972  0.08948  0.85165  1.0000
  H   H222      1.0  0.43937  0.90387  0.8493199999999999  1.0000
  H   H223      1.0  0.23812999999999998  0.83582  0.82587  1.0000
  H   H224      1.0  0.23462  0.9396100000000001  0.8382299999999998  1.0000
  H   H225      1.0  0.57644  0.08139  0.01549  1.0000
  H   H226      1.0  0.7991199999999999  0.07065  0.015409999999999998  1.0000
  H   H227      1.0  0.7919299999999999  0.16672  0.9997799999999999  1.0000
  H   H228      1.0  0.54446  0.98547  0.04408  1.0000
  H   H229      1.0  0.53741  0.92455  0.0284  1.0000
  H   H230      1.0  0.6675599999999999  0.91629  0.02675  1.0000
  H   H231      1.0  0.73032  0.97171  0.0421  1.0000
  H   H232      1.0  0.5337299999999998  0.83658  0.04596  1.0000
  H   H233      1.0  0.61224  0.84699  0.054909999999999994  1.0000
  H   H234      1.0  0.64971  0.04562  0.06173  1.0000
  H   H235      1.0  0.70076  0.0065  0.06695  1.0000
  H   H236      1.0  0.4775  0.77336  0.07859  1.0000
  H   H237      1.0  0.53122  0.92992  0.11767  1.0000
  H   H238      1.0  0.6168399999999999  0.02344  0.09792  1.0000
  H   H239      1.0  0.53652  0.41971  0.007509999999999999  1.0000
  H   H240      1.0  0.31756  0.20214  0.02583999999999999  1.0000
  H   H241      1.0  0.40639  0.19417  0.007209999999999999  1.0000
  H   H242      1.0  0.49546999999999997  0.48340999999999995  0.03295  1.0000
  H   H243      1.0  0.42103999999999997  0.46462000000000003  0.020329999999999997  1.0000
  H   H244      1.0  0.30886  0.29955  0.04912  1.0000
  H   H245      1.0  0.29549  0.34072  0.031139999999999994  1.0000
  H   H246      1.0  0.39585  0.51286  0.04636  1.0000
  H   H247      1.0  0.30942  0.44033  0.04684999999999999  1.0000
  H   H248      1.0  0.42352  0.34905  0.06181999999999999  1.0000
  H   H249      1.0  0.48924999999999996  0.43826  0.05966  1.0000
  H   H250      1.0  0.32038  0.51973  0.07816  1.0000
  H   H251      1.0  0.39917  0.44582999999999995  0.11874  1.0000
  H   H252      1.0  0.4428599999999999  0.39133  0.09740999999999998  1.0000
  H   H253      1.0  0.68215  0.21512  0.59061  1.0000
  H   H254      1.0  0.5966999999999999  0.9638200000000001  0.57509  1.0000
  H   H255      1.0  0.59675  0.04809  0.55347  1.0000
  H   H256      1.0  0.67173  0.15968  0.6246  1.0000
  H   H257      1.0  0.7467899999999998  0.15537  0.6181399999999998  1.0000
  H   H258      1.0  0.69816  0.00211  0.60799  1.0000
  H   H259      1.0  0.60635  0.95022  0.6113299999999999  1.0000
  H   H260      1.0  0.5413  0.00579  0.62431  1.0000
  H   H261      1.0  0.5830799999999999  0.06824  0.64082  1.0000
  H   H262      1.0  0.74541  0.03904  0.63521  1.0000
  H   H263      1.0  0.72178  0.08915  0.64861  1.0000
  H   H264      1.0  0.46624  0.9048299999999999  0.6511099999999999  1.0000
  H   H265      1.0  0.5985999999999999  0.8355  0.67444  1.0000
  H   H266      1.0  0.7061199999999997  0.93881  0.66203  1.0000
  H   H267      1.0  0.5055299999999999  0.08102  0.48473999999999995  1.0000
  H   H268      1.0  0.27229  0.07051  0.48457999999999996  1.0000
  H   H269      1.0  0.37494  0.16593  0.50044  1.0000
  H   H270      1.0  0.4424100000000001  0.98652  0.45583  1.0000
  H   H271      1.0  0.38837999999999995  0.92481  0.47135999999999995  1.0000
  H   H272      1.0  0.24956999999999996  0.9164400000000001  0.47294999999999987  1.0000
  H   H273      1.0  0.24272999999999995  0.97241  0.45769999999999994  1.0000
  H   H274      1.0  0.30496  0.83746  0.45381  1.0000
  H   H275      1.0  0.23629000000000003  0.8472300000000001  0.445  1.0000
  H   H276      1.0  0.39724999999999994  0.04633  0.43811  1.0000
  H   H277      1.0  0.3071  0.00713  0.43286  1.0000
  H   H278      1.0  0.29666  0.77394  0.4211599999999999  1.0000
  H   H279      1.0  0.39907999999999993  0.93039  0.38204  1.0000
  H   H280      1.0  0.40778999999999993  0.02402  0.4018199999999999  1.0000
  H   H281      1.0  0.8838199999999999  0.41913  0.49253  1.0000
  H   H282      1.0  0.8847999999999998  0.20188  0.47376  1.0000
  H   H283      1.0  0.78811  0.19347  0.49245999999999995  1.0000
  H   H284      1.0  0.9883799999999998  0.48317  0.46707  1.0000
  H   H285      1.0  0.04426999999999998  0.46446  0.4796099999999999  1.0000
  H   H286      1.0  0.9912099999999999  0.29968  0.45065  1.0000
  H   H287      1.0  0.04583999999999997  0.34047  0.46863  1.0000
  H   H288      1.0  0.11728000000000004  0.513  0.45330999999999994  1.0000
  H   H289      1.0  0.13141  0.44061  0.45284  1.0000
  H   H290      1.0  0.9254599999999997  0.34894  0.43827  1.0000
  H   H291      1.0  0.94915  0.43825  0.44036999999999993  1.0000
  H   H292      1.0  0.19874999999999998  0.51921  0.42144  1.0000
  H   H293      1.0  0.04505000000000003  0.44428000000000006  0.3811  1.0000
  H   H294      1.0  0.9473599999999998  0.39004  0.40255  1.0000
  H   H295      1.0  0.53281  0.31739  0.9239899999999998  1.0000
  H   H296      1.0  0.36754  0.40338  0.90838  1.0000
  H   H297      1.0  0.45148999999999995  0.40283  0.88677  1.0000
  H   H298      1.0  0.48806  0.32846  0.9579899999999999  1.0000
  H   H299      1.0  0.40856  0.2535  0.95155  1.0000
  H   H300      1.0  0.3042  0.30213  0.94134  1.0000
  H   H301      1.0  0.3441199999999999  0.39397  0.94463  1.0000
  H   H302      1.0  0.46477  0.4592  0.9576699999999999  1.0000
  H   H303      1.0  0.4849799999999999  0.4174  0.97428  1.0000
  H   H304      1.0  0.2939  0.25493  0.96857  1.0000
  H   H305      1.0  0.36755  0.2788  0.9819899999999999  1.0000
  H   H306      1.0  0.4377499999999999  0.53423  0.9844  1.0000
  H   H307      1.0  0.23617999999999997  0.40103  0.007729999999999999  1.0000
  H   H308      1.0  0.23257  0.29392  0.9952399999999998  1.0000
  H   H309      1.0  0.57524  0.49407  0.8181  1.0000
  H   H310      1.0  0.79807  0.72731  0.8179699999999999  1.0000
  H   H311      1.0  0.7906799999999999  0.62455  0.83384  1.0000
  H   H312      1.0  0.54408  0.55734  0.78917  1.0000
  H   H313      1.0  0.53623  0.61123  0.8047099999999998  1.0000
  H   H314      1.0  0.6669099999999999  0.7502  0.8063499999999998  1.0000
  H   H315      1.0  0.7296499999999999  0.7569  0.7911  1.0000
  H   H316      1.0  0.53246  0.69489  0.78717  1.0000
  H   H317      1.0  0.6109899999999999  0.76358  0.7783799999999998  1.0000
  H   H318      1.0  0.6491  0.60259  0.77148  1.0000
  H   H319      1.0  0.7000599999999999  0.69274  0.7662599999999998  1.0000
  H   H320      1.0  0.47737999999999997  0.70322  0.7545  1.0000
  H   H321      1.0  0.53158  0.60082  0.7153899999999997  1.0000
  H   H322      1.0  0.61643  0.59219  0.7352199999999998  1.0000
  H   H323      1.0  0.5355  0.11614  0.82587  1.0000
  H   H324      1.0  0.3174199999999999  0.11531  0.80709  1.0000
  H   H325      1.0  0.40558  0.2119  0.8258499999999999  1.0000
  H   H326      1.0  0.4951  0.01191  0.80034  1.0000
  H   H327      1.0  0.42057  0.95586  0.8128799999999998  1.0000
  H   H328      1.0  0.30864  0.0089  0.7839799999999998  1.0000
  H   H329      1.0  0.29502000000000006  0.9543399999999999  0.8019699999999998  1.0000
  H   H330      1.0  0.39588  0.88287  0.78665  1.0000
  H   H331      1.0  0.30936  0.86888  0.78621  1.0000
  H   H332      1.0  0.42358999999999997  0.07467  0.7715399999999998  1.0000
  H   H333      1.0  0.48927  0.05112  0.77363  1.0000
  H   H334      1.0  0.32052  0.80128  0.7547699999999998  1.0000
  H   H335      1.0  0.39932999999999996  0.95505  0.7144099999999998  1.0000
  H   H336      1.0  0.44299999999999995  0.05266  0.7359  1.0000
  H   H337      1.0  0.7845599999999999  0.46709  0.25726  1.0000
  H   H338      1.0  0.035880000000000016  0.63244  0.24173999999999998  1.0000
  H   H339      1.0  0.95156  0.54848  0.22010999999999997  1.0000
  H   H340      1.0  0.8398799999999998  0.5119  0.29124  1.0000
  H   H341      1.0  0.84462  0.59147  0.28478  1.0000
  H   H342      1.0  0.9977299999999998  0.69577  0.27468  1.0000
  H   H343      1.0  0.04953999999999998  0.65576  0.2780099999999999  1.0000
  H   H344      1.0  0.99364  0.53481  0.29092999999999997  1.0000
  H   H345      1.0  0.93165  0.51468  0.30755  1.0000
  H   H346      1.0  0.9608  0.70597  0.30191  1.0000
  H   H347      1.0  0.91068  0.63226  0.31529  1.0000
  H   H348      1.0  0.09608999999999998  0.56191  0.31751  1.0000
  H   H349      1.0  0.16514000000000006  0.76378  0.34073  1.0000
  H   H350      1.0  0.06083000000000005  0.7669  0.32863  1.0000
  H   H351      1.0  0.9188299999999998  0.42468999999999996  0.15140999999999996  1.0000
  H   H352      1.0  0.92934  0.20188  0.15127999999999997  1.0000
  H   H353      1.0  0.8339699999999999  0.20926  0.16716  1.0000
  H   H354      1.0  0.013380000000000024  0.45602000000000004  0.12249999999999998  1.0000
  H   H355      1.0  0.07501999999999999  0.46374  0.13805  1.0000
  H   H356      1.0  0.08332999999999997  0.33314  0.13967  1.0000
  H   H357      1.0  0.02735000000000001  0.27038  0.12440999999999999  1.0000
  H   H358      1.0  0.16245  0.46754  0.12048999999999999  1.0000
  H   H359      1.0  0.15258999999999998  0.38897  0.11172  1.0000
  H   H360      1.0  0.9535499999999998  0.3509  0.10480999999999999  1.0000
  H   H361      1.0  0.9927799999999999  0.29995  0.09959  1.0000
  H   H362      1.0  0.2259  0.52261  0.08781  1.0000
  H   H363      1.0  0.06933000000000006  0.4685000000000001  0.04872999999999999  1.0000
  H   H364      1.0  0.9757999999999999  0.3836  0.06854  1.0000
  H   H365      1.0  0.58068  0.46454  0.15918  1.0000
  H   H366      1.0  0.7980099999999999  0.68272  0.14045  1.0000
  H   H367      1.0  0.80632  0.59431  0.15915999999999994  1.0000
  H   H368      1.0  0.51683  0.50497  0.13369  1.0000
  H   H369      1.0  0.53547  0.5796  0.14621  1.0000
  H   H370      1.0  0.70037  0.6914  0.11732  1.0000
  H   H371      1.0  0.6593799999999999  0.70508  0.13528  1.0000
  H   H372      1.0  0.48708999999999997  0.60421  0.11997  1.0000
  H   H373      1.0  0.55956  0.69071  0.11952  1.0000
  H   H374      1.0  0.65114  0.57645  0.10484999999999998  1.0000
  H   H375      1.0  0.56185  0.51076  0.10695  1.0000
  H   H376      1.0  0.48073999999999995  0.67942  0.08808  1.0000
  H   H377      1.0  0.55573  0.60061  0.04775  1.0000
  H   H378      1.0  0.6097699999999999  0.557  0.06920999999999998  1.0000
  H   H379      1.0  0.31803999999999993  0.78466  0.09021  1.0000
  H   H380      1.0  0.4036699999999999  0.03611  0.07477  1.0000
  H   H381      1.0  0.40320999999999996  0.95174  0.05309  1.0000
  H   H382      1.0  0.32956  0.84014  0.12422999999999998  1.0000
  H   H383      1.0  0.25453999999999993  0.8448899999999999  0.11795  1.0000
  H   H384      1.0  0.30344000000000004  0.99831  0.10784999999999999  1.0000
  H   H385      1.0  0.39539  0.04975  0.11102  1.0000
  H   H386      1.0  0.46044  0.99446  0.12397  1.0000
  H   H387      1.0  0.41889  0.93202  0.14051  1.0000
  H   H388      1.0  0.2561300000000001  0.9605  0.13499999999999998  1.0000
  H   H389      1.0  0.2801600000000001  0.91059  0.14836  1.0000
  H   H390      1.0  0.53547  0.09616  0.15067  1.0000
  H   H391      1.0  0.40229  0.16427  0.17412  1.0000
  H   H392      1.0  0.29499  0.06039  0.16177  1.0000
  H   H393      1.0  0.49496999999999997  0.91856  0.9844899999999999  1.0000
  H   H394      1.0  0.7283199999999999  0.9292099999999999  0.9845899999999999  1.0000
  H   H395      1.0  0.62502  0.8331  0.00022999999999999998  1.0000
  H   H396      1.0  0.55898  0.01452  0.9559  1.0000
  H   H397      1.0  0.61283  0.07542  0.9715899999999997  1.0000
  H   H398      1.0  0.75125  0.08356  0.9732399999999998  1.0000
  H   H399      1.0  0.7584699999999999  0.02805  0.9578999999999999  1.0000
  H   H400      1.0  0.69721  0.16334  0.9540599999999999  1.0000
  H   H401      1.0  0.76524  0.15286  0.94508  1.0000
  H   H402      1.0  0.6041499999999999  0.95423  0.9382799999999998  1.0000
  H   H403      1.0  0.69432  0.9935700000000001  0.9330199999999998  1.0000
  H   H404      1.0  0.70412  0.22658000000000003  0.92144  1.0000
  H   H405      1.0  0.6014  0.07012  0.88233  1.0000
  H   H406      1.0  0.5931199999999999  0.97649  0.9020999999999999  1.0000
  H   H407      1.0  0.11672000000000003  0.58047  0.99251  1.0000
  H   H408      1.0  0.11538000000000002  0.79802  0.9741599999999998  1.0000
  H   H409      1.0  0.21216  0.80608  0.9927799999999998  1.0000
  H   H410      1.0  0.012419999999999952  0.51689  0.96706  1.0000
  H   H411      1.0  0.9565299999999999  0.53535  0.9796699999999999  1.0000
  H   H412      1.0  0.009170000000000011  0.70038  0.9508399999999998  1.0000
  H   H413      1.0  0.9546799999999999  0.65932  0.9688099999999998  1.0000
  H   H414      1.0  0.8831099999999997  0.48705  0.9536499999999999  1.0000
  H   H415      1.0  0.86903  0.55947  0.95317  1.0000
  H   H416      1.0  0.07439999999999994  0.65091  0.93816  1.0000
  H   H417      1.0  0.051000000000000004  0.56174  0.9403299999999998  1.0000
  H   H418      1.0  0.80059  0.48023000000000005  0.9218499999999997  1.0000
  H   H419      1.0  0.9532799999999999  0.55421  0.8812499999999999  1.0000
  H   H420      1.0  0.051459999999999964  0.60865  0.90258  1.0000
  H   H421      1.0  0.46658  0.68192  0.42356  1.0000
  H   H422      1.0  0.63233  0.5963  0.40806999999999993  1.0000
  H   H423      1.0  0.5484699999999999  0.59685  0.3864  1.0000
  H   H424      1.0  0.51046  0.67017  0.4575699999999999  1.0000
  H   H425      1.0  0.59018  0.74523  0.45131  1.0000
  H   H426      1.0  0.69481  0.69627  0.44118  1.0000
  H   H427      1.0  0.65413  0.60431  0.44433  1.0000
  H   H428      1.0  0.53406  0.53932  0.45731  1.0000
  H   H429      1.0  0.5131699999999999  0.58083  0.47386999999999996  1.0000
  H   H430      1.0  0.70425  0.74371  0.46835  1.0000
  H   H431      1.0  0.6303  0.71974  0.48168  1.0000
  H   H432      1.0  0.56099  0.4643999999999999  0.48399999999999993  1.0000
  H   H433      1.0  0.76229  0.59783  0.50739  1.0000
  H   H434      1.0  0.7652499999999999  0.70508  0.49514999999999987  1.0000
  H   H435      1.0  0.42354999999999987  0.50514  0.3178599999999999  1.0000
  H   H436      1.0  0.20095  0.27175  0.3179299999999999  1.0000
  H   H437      1.0  0.20805  0.37496  0.33357  1.0000
  H   H438      1.0  0.4555799999999999  0.44115  0.28925  1.0000
  H   H439      1.0  0.4626299999999999  0.38729  0.30493  1.0000
  H   H440      1.0  0.33239999999999986  0.24885  0.30659  1.0000
  H   H441      1.0  0.26966  0.24161  0.29125  1.0000
  H   H442      1.0  0.46622  0.30293  0.2873899999999999  1.0000
  H   H443      1.0  0.38767999999999997  0.23482000000000003  0.27844  1.0000
  H   H444      1.0  0.3502  0.39596  0.2715999999999999  1.0000
  H   H445      1.0  0.29923999999999995  0.30575  0.26638  1.0000
  H   H446      1.0  0.52246  0.29589  0.25477  1.0000
  H   H447      1.0  0.46873999999999993  0.39865  0.21566999999999995  1.0000
  H   H448      1.0  0.38321  0.4067  0.23542  1.0000
  H   H449      1.0  0.4640999999999999  0.88321  0.32589  1.0000
  H   H450      1.0  0.6830199999999998  0.8848799999999999  0.30742  1.0000
  H   H451      1.0  0.59436  0.78788  0.32605  1.0000
  H   H452      1.0  0.50455  0.9874900000000001  0.30045  1.0000
  H   H453      1.0  0.5789399999999999  0.04346  0.31303999999999993  1.0000
  H   H454      1.0  0.6912899999999998  0.99096  0.28412999999999994  1.0000
  H   H455      1.0  0.70473  0.04545  0.30212  1.0000
  H   H456      1.0  0.60375  0.11679  0.28695999999999994  1.0000
  H   H457      1.0  0.6903099999999999  0.13098  0.2865  1.0000
  H   H458      1.0  0.57629  0.92545  0.27152  1.0000
  H   H459      1.0  0.51069  0.9491  0.27366  1.0000
  H   H460      1.0  0.6795599999999999  0.19935  0.2551899999999999  1.0000
  H   H461      1.0  0.60089  0.04672  0.21458999999999998  1.0000
  H   H462      1.0  0.5573399999999997  0.9484699999999999  0.23590999999999998  1.0000
  H   H463      1.0  0.21534  0.53337  0.75686  1.0000
  H   H464      1.0  0.9639299999999997  0.36769  0.7414299999999998  1.0000
  H   H465      1.0  0.048279999999999955  0.4514599999999999  0.71974  1.0000
  H   H466      1.0  0.15977  0.48967  0.79087  1.0000
  H   H467      1.0  0.15527  0.40996  0.7846199999999999  1.0000
  H   H468      1.0  0.00156  0.30519  0.7745099999999998  1.0000
  H   H469      1.0  0.95029  0.34585  0.7776899999999999  1.0000
  H   H470      1.0  0.00545999999999999  0.46597999999999995  0.7906299999999999  1.0000
  H   H471      1.0  0.06792000000000002  0.48694000000000004  0.8071699999999999  1.0000
  H   H472      1.0  0.03954999999999999  0.29572  0.80167  1.0000
  H   H473      1.0  0.08951000000000003  0.36968  0.8150099999999998  1.0000
  H   H474      1.0  0.9036799999999998  0.43923  0.8173199999999999  1.0000
  H   H475      1.0  0.8357199999999998  0.23794000000000004  0.84074  1.0000
  H   H476      1.0  0.9397299999999998  0.23466000000000004  0.8284599999999999  1.0000
  H   H477      1.0  0.08139999999999993  0.57645  0.65118  1.0000
  H   H478      1.0  0.07063  0.79913  0.65126  1.0000
  H   H479      1.0  0.16672  0.79197  0.66689  1.0000
  H   H480      1.0  0.98547  0.54443  0.6225899999999999  1.0000
  H   H481      1.0  0.9245599999999998  0.53741  0.63828  1.0000
  H   H482      1.0  0.9162999999999998  0.66753  0.63992  1.0000
  H   H483      1.0  0.97169  0.73031  0.6245799999999999  1.0000
  H   H484      1.0  0.83658  0.53371  0.6207  1.0000
  H   H485      1.0  0.8470299999999998  0.61224  0.6117599999999999  1.0000
  H   H486      1.0  0.045630000000000004  0.64973  0.60493  1.0000
  H   H487      1.0  0.006489999999999995  0.70077  0.59971  1.0000
  H   H488      1.0  0.77339  0.47752000000000006  0.58808  1.0000
  H   H489      1.0  0.9299399999999999  0.53122  0.549  1.0000
  H   H490      1.0  0.02343999999999997  0.61685  0.56874  1.0000
  H   H491      1.0  0.4196699999999999  0.53655  0.6591599999999999  1.0000
  H   H492      1.0  0.20217  0.31754  0.64082  1.0000
  H   H493      1.0  0.19415  0.40634  0.65946  1.0000
  H   H494      1.0  0.48338999999999993  0.4955300000000001  0.63372  1.0000
  H   H495      1.0  0.46459999999999996  0.42111  0.64633  1.0000
  H   H496      1.0  0.29958  0.30889  0.61755  1.0000
  H   H497      1.0  0.34073  0.29549  0.6355199999999999  1.0000
  H   H498      1.0  0.51288  0.39595  0.6202999999999997  1.0000
  H   H499      1.0  0.4404  0.30949  0.61983  1.0000
  H   H500      1.0  0.34908  0.42357  0.60485  1.0000
  H   H501      1.0  0.43827999999999995  0.48929000000000006  0.6069999999999999  1.0000
  H   H502      1.0  0.51967  0.32032  0.58851  1.0000
  H   H503      1.0  0.44584  0.39916  0.54792  1.0000
  H   H504      1.0  0.39134  0.44286  0.56925  1.0000
  C   C1        1.0  0.13635  0.63992  0.09594  1.0000
  C   C2        1.0  0.16037000000000007  0.66379  0.07926999999999998  1.0000
  C   C3        1.0  0.11362000000000001  0.66395  0.06731  1.0000
  C   C4        1.0  0.04315000000000002  0.64045  0.07177  1.0000
  C   C5        1.0  0.01867  0.61543  0.0882  1.0000
  C   C6        1.0  0.06550999999999998  0.61534  0.10028999999999999  1.0000
  C   C7        1.0  0.12713999999999998  0.68873  0.049  1.0000
  C   C8        1.0  0.052230000000000006  0.6576  0.041269999999999994  1.0000
  C   C9        1.0  0.00476999999999997  0.64956  0.05691999999999999  1.0000
  C   C10       1.0  0.025170000000000005  0.58394  0.03291  1.0000
  C   C11       1.0  0.96888  0.57827  0.02081  1.0000
  C   C12       1.0  0.97878  0.64583  0.01748999999999999  1.0000
  C   C13       1.0  0.04349000000000001  0.7006  0.02675  1.0000
  C   C14       1.0  0.9129399999999999  0.51889  0.01343  1.0000
  C   C15       1.0  0.86482  0.52684  0.00307  1.0000
  C   C16       1.0  0.87405  0.59424  9.999999999999999e-05  1.0000
  C   C17       1.0  0.9315999999999999  0.65404  0.00711  1.0000
  C   C18       1.0  0.80495  0.46379  0.9949499999999999  1.0000
  C   C19       1.0  0.18747000000000005  0.64276  0.10881999999999997  1.0000
  C   C20       1.0  0.12816999999999998  0.44552  0.17293999999999998  1.0000
  C   C21       1.0  0.07813  0.45465000000000005  0.18217  1.0000
  C   C22       1.0  0.027099999999999992  0.39855  0.19164999999999993  1.0000
  C   C23       1.0  0.023729999999999998  0.33267  0.19136999999999996  1.0000
  C   C24       1.0  0.07286999999999998  0.32323  0.18213999999999997  1.0000
  C   C25       1.0  0.12582  0.38019  0.17317  1.0000
  C   C26       1.0  0.96975  0.39508  0.20302999999999993  1.0000
  C   C27       1.0  0.9481399999999999  0.3281  0.21407  1.0000
  C   C28       1.0  0.9624999999999999  0.28054  0.20203  1.0000
  C   C29       1.0  0.87171  0.29413  0.22100999999999996  1.0000
  C   C30       1.0  0.88004  0.32366  0.23877999999999996  1.0000
  C   C31       1.0  0.95048  0.355  0.24417  1.0000
  C   C32       1.0  0.9952899999999998  0.34897  0.23040999999999998  1.0000
  C   C33       1.0  0.82839  0.32039  0.24963999999999997  1.0000
  C   C34       1.0  0.84684  0.34726  0.26628  1.0000
  C   C35       1.0  0.9174099999999998  0.37872  0.27169  1.0000
  C   C36       1.0  0.96947  0.38324  0.2606  1.0000
  C   C37       1.0  0.79032  0.34015  0.27796  1.0000
  C   C38       1.0  0.18399999999999997  0.50485  0.16286999999999996  1.0000
  C   C39       1.0  0.30588999999999994  0.83076  0.17307  1.0000
  C   C40       1.0  0.37265  0.88541  0.17818999999999993  1.0000
  C   C41       1.0  0.3771999999999999  0.93862  0.18858  1.0000
  C   C42       1.0  0.31601000000000007  0.9388200000000001  0.19395999999999994  1.0000
  C   C43       1.0  0.24962999999999994  0.88535  0.18869  1.0000
  C   C44       1.0  0.24467999999999998  0.83111  0.17824  1.0000
  C   C45       1.0  0.44158  3e-05  0.19619999999999999  1.0000
  C   C46       1.0  0.41134  0.01889  0.21185999999999997  1.0000
  C   C47       1.0  0.33682  0.00141  0.20553999999999997  1.0000
  C   C48       1.0  0.45895  0.09558  0.21827  1.0000
  C   C49       1.0  0.45841999999999994  0.08978  0.23739  1.0000
  C   C50       1.0  0.42418999999999996  0.01909  0.24265999999999996  1.0000
  C   C51       1.0  0.40257999999999994  0.97072  0.22748999999999994  1.0000
  C   C52       1.0  0.48973999999999995  0.14388  0.24926  1.0000
  C   C53       1.0  0.48494  0.12706  0.26668  1.0000
  C   C54       1.0  0.44772999999999996  0.05632999999999999  0.27201999999999993  1.0000
  C   C55       1.0  0.41763999999999996  0.0021  0.26002  1.0000
  C   C56       1.0  0.52381  0.18486  0.27909  1.0000
  C   C57       1.0  0.3032299999999999  0.77298  0.16250999999999996  1.0000
  C   C58       1.0  0.35963000000000006  0.49628  0.76258  1.0000
  C   C59       1.0  0.33601000000000003  0.49649000000000004  0.7458799999999999  1.0000
  C   C60       1.0  0.3362200000000001  0.44975  0.73392  1.0000
  C   C61       1.0  0.35975000000000007  0.40283  0.73842  1.0000
  C   C62       1.0  0.3845999999999999  0.40339  0.75487  1.0000
  C   C63       1.0  0.38443  0.45021999999999995  0.7669499999999998  1.0000
  C   C64       1.0  0.31172  0.43851  0.7155899999999997  1.0000
  C   C65       1.0  0.34301999999999994  0.3948  0.7078899999999999  1.0000
  C   C66       1.0  0.35086  0.35538  0.7235699999999999  1.0000
  C   C67       1.0  0.41675  0.44122  0.69953  1.0000
  C   C68       1.0  0.4223599999999999  0.39038  0.68747  1.0000
  C   C69       1.0  0.35474  0.33282  0.68415  1.0000
  C   C70       1.0  0.30008  0.34306  0.6933699999999998  1.0000
  C   C71       1.0  0.48154999999999987  0.39358  0.68004  1.0000
  C   C72       1.0  0.47327  0.33758  0.6695799999999998  1.0000
  C   C73       1.0  0.40581  0.2794  0.6666699999999999  1.0000
  C   C74       1.0  0.34626999999999997  0.27725  0.6738  1.0000
  C   C75       1.0  0.53605  0.34077  0.66132  1.0000
  C   C76       1.0  0.35654  0.54444  0.77546  1.0000
  C   C77       1.0  0.55431  0.68258  0.8396  1.0000
  C   C78       1.0  0.54515  0.62337  0.8488199999999998  1.0000
  C   C79       1.0  0.60127  0.62844  0.8582799999999999  1.0000
  C   C80       1.0  0.66711  0.69097  0.8579999999999998  1.0000
  C   C81       1.0  0.6765599999999998  0.74957  0.8487699999999999  1.0000
  C   C82       1.0  0.6195999999999999  0.74555  0.83981  1.0000
  C   C83       1.0  0.60475  0.5746  0.8696799999999999  1.0000
  C   C84       1.0  0.67176  0.62002  0.8806999999999999  1.0000
  C   C85       1.0  0.7192599999999998  0.68191  0.86865  1.0000
  C   C86       1.0  0.70576  0.57759  0.8876499999999998  1.0000
  C   C87       1.0  0.6762699999999999  0.55647  0.9054299999999997  1.0000
  C   C88       1.0  0.64493  0.59558  0.9108099999999999  1.0000
  C   C89       1.0  0.65091  0.64636  0.89704  1.0000
  C   C90       1.0  0.6795299999999997  0.50811  0.9162999999999999  1.0000
  C   C91       1.0  0.65266  0.49965  0.9329399999999998  1.0000
  C   C92       1.0  0.62121  0.5388  0.93835  1.0000
  C   C93       1.0  0.61671  0.58634  0.92725  1.0000
  C   C94       1.0  0.65973  0.4501899999999999  0.9446199999999999  1.0000
  C   C95       1.0  0.49503  0.67909  0.8295299999999999  1.0000
  C   C96       1.0  0.16931000000000002  0.47517000000000004  0.8396999999999998  1.0000
  C   C97       1.0  0.11473  0.48734999999999995  0.84483  1.0000
  C   C98       1.0  0.06163000000000004  0.43879  0.8552399999999999  1.0000
  C   C99       1.0  0.06140000000000004  0.37738  0.86062  1.0000
  C   C100      1.0  0.11480999999999998  0.36441  0.85534  1.0000
  C   C101      1.0  0.16902000000000003  0.41366  0.8448799999999999  1.0000
  C   C102      1.0  0.00021999999999997166  0.44178  0.8628699999999999  1.0000
  C   C103      1.0  0.9812999999999997  0.39261  0.8785199999999999  1.0000
  C   C104      1.0  0.99881  0.33557  0.8721999999999998  1.0000
  C   C105      1.0  0.90456  0.36346  0.88491  1.0000
  C   C106      1.0  0.9102599999999998  0.36867  0.9040399999999997  1.0000
  C   C107      1.0  0.9809199999999999  0.40519  0.9093199999999999  1.0000
  C   C108      1.0  0.029389999999999982  0.43196999999999997  0.89416  1.0000
  C   C109      1.0  0.85615  0.34594  0.9158999999999999  1.0000
  C   C110      1.0  0.8729199999999999  0.35801  0.93333  1.0000
  C   C111      1.0  0.94364  0.39146  0.93869  1.0000
  C   C112      1.0  0.9978399999999998  0.41561  0.92668  1.0000
  C   C113      1.0  0.8150999999999998  0.33899  0.94573  1.0000
  C   C114      1.0  0.22702999999999998  0.53033  0.82917  1.0000
  C   C115      1.0  0.50365  0.86349  0.4292899999999999  1.0000
  C   C116      1.0  0.50343  0.83946  0.41261  1.0000
  C   C117      1.0  0.55024  0.8862  0.4006499999999999  1.0000
  C   C118      1.0  0.59719  0.9567  0.40509  1.0000
  C   C119      1.0  0.59664  0.98121  0.42152  1.0000
  C   C120      1.0  0.5497800000000002  0.9343800000000001  0.43363  1.0000
  C   C121      1.0  0.5614699999999999  0.8726400000000001  0.38234  1.0000
  C   C122      1.0  0.6050700000000001  0.9475500000000001  0.37459  1.0000
  C   C123      1.0  0.64458  0.9950400000000001  0.39022  1.0000
  C   C124      1.0  0.5584700000000001  0.97467  0.3662399999999999  1.0000
  C   C125      1.0  0.6092499999999998  0.03128  0.35421  1.0000
  C   C126      1.0  0.66674  0.02114  0.35083999999999993  1.0000
  C   C127      1.0  0.65672  0.95631  0.3600499999999999  1.0000
  C   C128      1.0  0.6063399999999999  0.08776  0.34695999999999994  1.0000
  C   C129      1.0  0.6627499999999998  0.13612  0.3367  1.0000
  C   C130      1.0  0.7206799999999999  0.12655  0.33369  1.0000
  C   C131      1.0  0.72235  0.06846  0.34054  1.0000
  C   C132      1.0  0.6602699999999999  0.19653  0.3286699999999999  1.0000
  C   C133      1.0  0.45544  0.81227  0.44216  1.0000
  C   C134      1.0  0.3173100000000001  0.8717700000000002  0.50627  1.0000
  C   C135      1.0  0.37649000000000005  0.9217700000000001  0.5155  1.0000
  C   C136      1.0  0.37145  0.9728300000000001  0.52497  1.0000
  C   C137      1.0  0.30894  0.9762  0.52469  1.0000
  C   C138      1.0  0.25036  0.9271  0.5154599999999998  1.0000
  C   C139      1.0  0.25434999999999997  0.87414  0.50649  1.0000
  C   C140      1.0  0.42533  0.03017  0.53635  1.0000
  C   C141      1.0  0.37995  0.05179  0.54738  1.0000
  C   C142      1.0  0.31807  0.03745  0.5353499999999999  1.0000
  C   C143      1.0  0.42236999999999997  0.12822  0.55433  1.0000
  C   C144      1.0  0.44351999999999997  0.11987999999999999  0.5720999999999999  1.0000
  C   C145      1.0  0.40440999999999994  0.04942  0.57748  1.0000
  C   C146      1.0  0.35362  0.00461  0.56372  1.0000
  C   C147      1.0  0.49189999999999995  0.17153  0.58297  1.0000
  C   C148      1.0  0.50037  0.15305  0.59959  1.0000
  C   C149      1.0  0.4612299999999999  0.08247  0.605  1.0000
  C   C150      1.0  0.41364999999999996  0.030419999999999996  0.5939199999999998  1.0000
  C   C151      1.0  0.54989  0.20952  0.61128  1.0000
  C   C152      1.0  0.32077999999999995  0.81595  0.4962  1.0000
  C   C153      1.0  0.52494  0.69412  0.50639  1.0000
  C   C154      1.0  0.51279  0.62735  0.51153  1.0000
  C   C155      1.0  0.56141  0.6228  0.52192  1.0000
  C   C156      1.0  0.62282  0.68398  0.5272999999999999  1.0000
  C   C157      1.0  0.6357299999999999  0.75039  0.52203  1.0000
  C   C158      1.0  0.58645  0.75532  0.51157  1.0000
  C   C159      1.0  0.55849  0.55842  0.52954  1.0000
  C   C160      1.0  0.6075799999999999  0.58866  0.5451899999999998  1.0000
  C   C161      1.0  0.6646299999999999  0.66318  0.5388699999999998  1.0000
  C   C162      1.0  0.63668  0.54106  0.5515999999999999  1.0000
  C   C163      1.0  0.63136  0.54156  0.57073  1.0000
  C   C164      1.0  0.59491  0.5758  0.576  1.0000
  C   C165      1.0  0.56819  0.59745  0.56083  1.0000
  C   C166      1.0  0.6541099999999999  0.51023  0.58259  1.0000
  C   C167      1.0  0.6420999999999999  0.51505  0.60001  1.0000
  C   C168      1.0  0.6086  0.55226  0.60536  1.0000
  C   C169      1.0  0.58446  0.58235  0.59336  1.0000
  C   C170      1.0  0.66103  0.47621  0.6124199999999997  1.0000
  C   C171      1.0  0.4697899999999999  0.69675  0.49584  1.0000
  C   C172      1.0  0.8638099999999999  0.36042  0.59628  1.0000
  C   C173      1.0  0.83954  0.33659  0.5796299999999999  1.0000
  C   C174      1.0  0.88632  0.33677  0.56763  1.0000
  C   C175      1.0  0.9568199999999998  0.36029  0.5720699999999999  1.0000
  C   C176      1.0  0.98135  0.3849  0.58852  1.0000
  C   C177      1.0  0.93458  0.38487  0.60063  1.0000
  C   C178      1.0  0.8729199999999999  0.3126  0.54928  1.0000
  C   C179      1.0  0.94785  0.3441  0.54155  1.0000
  C   C180      1.0  0.99536  0.35188  0.55716  1.0000
  C   C181      1.0  0.9751  0.4179  0.53323  1.0000
  C   C182      1.0  0.03137000000000001  0.42347  0.52111  1.0000
  C   C183      1.0  0.0211  0.35578  0.51775  1.0000
  C   C184      1.0  0.95633  0.30114  0.52699  1.0000
  C   C185      1.0  0.08767999999999995  0.48275  0.51379  1.0000
  C   C186      1.0  0.1356799999999999  0.4744499999999999  0.5034499999999998  1.0000
  C   C187      1.0  0.12586999999999995  0.40686  0.50041  1.0000
  C   C188      1.0  0.06803999999999999  0.34723  0.50736  1.0000
  C   C189      1.0  0.19612999999999994  0.53713  0.4954  1.0000
  C   C190      1.0  0.8133  0.35843  0.6091899999999998  1.0000
  C   C191      1.0  0.8712699999999998  0.55505  0.6732199999999998  1.0000
  C   C192      1.0  0.9215499999999999  0.54608  0.6823699999999998  1.0000
  C   C193      1.0  0.9729599999999999  0.60242  0.69168  1.0000
  C   C194      1.0  0.97632  0.66829  0.69134  1.0000
  C   C195      1.0  0.92686  0.67755  0.6821999999999999  1.0000
  C   C196      1.0  0.8735599999999998  0.62035  0.67338  1.0000
  C   C197      1.0  0.030810000000000014  0.60622  0.7029199999999998  1.0000
  C   C198      1.0  0.05249000000000001  0.67334  0.7139  1.0000
  C   C199      1.0  0.037910000000000006  0.72067  0.7018499999999998  1.0000
  C   C200      1.0  0.12889999999999993  0.70753  0.72084  1.0000
  C   C201      1.0  0.12058999999999999  0.67761  0.7385499999999999  1.0000
  C   C202      1.0  0.05016999999999999  0.64629  0.74396  1.0000
  C   C203      1.0  0.005350000000000024  0.65247  0.7302299999999998  1.0000
  C   C204      1.0  0.1722  0.68061  0.74938  1.0000
  C   C205      1.0  0.15371  0.65354  0.7659999999999999  1.0000
  C   C206      1.0  0.08315000000000003  0.62204  0.7714199999999998  1.0000
  C   C207      1.0  0.031130000000000026  0.61778  0.76036  1.0000
  C   C208      1.0  0.21018  0.6603  0.77765  1.0000
  C   C209      1.0  0.8155799999999999  0.49548  0.6632299999999999  1.0000
  C   C210      1.0  0.69384  0.16981  0.67295  1.0000
  C   C211      1.0  0.62717  0.11526000000000002  0.6781299999999999  1.0000
  C   C212      1.0  0.62276  0.06207  0.6885  1.0000
  C   C213      1.0  0.68397  0.06173  0.6937999999999999  1.0000
  C   C214      1.0  0.7502799999999998  0.11504  0.68842  1.0000
  C   C215      1.0  0.75508  0.16928  0.678  1.0000
  C   C216      1.0  0.55843  0.00062  0.69612  1.0000
  C   C217      1.0  0.5886699999999999  0.9814299999999999  0.71172  1.0000
  C   C218      1.0  0.66321  0.99905  0.70536  1.0000
  C   C219      1.0  0.54096  0.9045200000000001  0.718  1.0000
  C   C220      1.0  0.5410599999999999  0.90972  0.73714  1.0000
  C   C221      1.0  0.57519  0.98026  0.74252  1.0000
  C   C222      1.0  0.59725  0.02913  0.72744  1.0000
  C   C223      1.0  0.5095599999999998  0.8553  0.74893  1.0000
  C   C224      1.0  0.5140700000000001  0.8716400000000001  0.76639  1.0000
  C   C225      1.0  0.5510499999999999  0.94227  0.7718299999999999  1.0000
  C   C226      1.0  0.5813399999999999  0.99677  0.7599  1.0000
  C   C227      1.0  0.47542999999999996  0.81343  0.77874  1.0000
  C   C228      1.0  0.6965900000000002  0.22776000000000002  0.66247  1.0000
  C   C229      1.0  0.6396099999999999  0.50337  0.26296  1.0000
  C   C230      1.0  0.66334  0.5029  0.2463  1.0000
  C   C231      1.0  0.66306  0.54943  0.2343  1.0000
  C   C232      1.0  0.63955  0.59643  0.23873999999999998  1.0000
  C   C233      1.0  0.6149899999999999  0.59636  0.2551899999999999  1.0000
  C   C234      1.0  0.6151  0.54967  0.26731  1.0000
  C   C235      1.0  0.6871799999999999  0.56015  0.21593999999999997  1.0000
  C   C236      1.0  0.6557599999999999  0.60365  0.20820999999999998  1.0000
  C   C237      1.0  0.64791  0.64335  0.22381999999999996  1.0000
  C   C238      1.0  0.58196  0.55714  0.19989  1.0000
  C   C239      1.0  0.57647  0.6079  0.18778  1.0000
  C   C240      1.0  0.64415  0.66519  0.18438  1.0000
  C   C241      1.0  0.6987299999999997  0.65502  0.19364  1.0000
  C   C242      1.0  0.51723  0.60505  0.18047  1.0000
  C   C243      1.0  0.52558  0.66134  0.17012  1.0000
  C   C244      1.0  0.59317  0.71913  0.16709999999999997  1.0000
  C   C245      1.0  0.65276  0.72076  0.17401999999999995  1.0000
  C   C246      1.0  0.46291999999999994  0.65907  0.16205  1.0000
  C   C247      1.0  0.6418799999999999  0.45497999999999994  0.27588  1.0000
  C   C248      1.0  0.44508  0.31625  0.33986  1.0000
  C   C249      1.0  0.45404999999999995  0.37551  0.3490199999999999  1.0000
  C   C250      1.0  0.3977  0.37059  0.35832999999999987  1.0000
  C   C251      1.0  0.33183999999999997  0.3081  0.35798  1.0000
  C   C252      1.0  0.32257  0.24938000000000002  0.34884  1.0000
  C   C253      1.0  0.37977999999999995  0.25326  0.34002  1.0000
  C   C254      1.0  0.39389999999999986  0.42463999999999996  0.36957  1.0000
  C   C255      1.0  0.32679  0.37921  0.38055  1.0000
  C   C256      1.0  0.27947  0.31732  0.3684899999999999  1.0000
  C   C257      1.0  0.29260999999999987  0.42144  0.38748999999999995  1.0000
  C   C258      1.0  0.32246  0.443  0.40522  1.0000
  C   C259      1.0  0.35374  0.40385  0.41061999999999993  1.0000
  C   C260      1.0  0.34762  0.3529  0.39689  1.0000
  C   C261      1.0  0.31942999999999994  0.4915900000000001  0.41605  1.0000
  C   C262      1.0  0.34648  0.50015  0.43266999999999994  1.0000
  C   C263      1.0  0.37794999999999995  0.46107  0.43809  1.0000
  C   C264      1.0  0.38218  0.41328  0.42703  1.0000
  C   C265      1.0  0.33969999999999995  0.54986  0.44431999999999994  1.0000
  C   C266      1.0  0.5046799999999999  0.32008  0.32986999999999994  1.0000
  C   C267      1.0  0.83028  0.52465  0.33962  1.0000
  C   C268      1.0  0.88473  0.51229  0.34476  1.0000
  C   C269      1.0  0.9379199999999999  0.56091  0.35514  1.0000
  C   C270      1.0  0.9383699999999999  0.62247  0.36048  1.0000
  C   C271      1.0  0.8851499999999999  0.63565  0.35514  1.0000
  C   C272      1.0  0.83086  0.58637  0.34470999999999996  1.0000
  C   C273      1.0  0.99931  0.55786  0.36274999999999996  1.0000
  C   C274      1.0  0.018549999999999987  0.60717  0.37837  1.0000
  C   C275      1.0  0.0010599999999999887  0.66423  0.37205  1.0000
  C   C276      1.0  0.09541999999999998  0.63627  0.38465999999999995  1.0000
  C   C277      1.0  0.09022  0.63125  0.40379999999999994  1.0000
  C   C278      1.0  0.01969  0.59487  0.40917999999999993  1.0000
  C   C279      1.0  0.97084  0.56799  0.39409  1.0000
  C   C280      1.0  0.14465000000000003  0.65421  0.41558  1.0000
  C   C281      1.0  0.12834  0.64238  0.43305  1.0000
  C   C282      1.0  0.05772999999999995  0.60875  0.43848999999999994  1.0000
  C   C283      1.0  0.0032100000000000305  0.58456  0.42657  1.0000
  C   C284      1.0  0.18653999999999996  0.66198  0.44539999999999996  1.0000
  C   C285      1.0  0.77232  0.46952  0.32914999999999994  1.0000
  C   C286      1.0  0.49658  0.13626  0.92964  1.0000
  C   C287      1.0  0.49702999999999997  0.16048  0.91298  1.0000
  C   C288      1.0  0.4505199999999999  0.11368  0.90098  1.0000
  C   C289      1.0  0.4035599999999999  0.04316  0.9054099999999999  1.0000
  C   C290      1.0  0.40366  0.01864  0.92186  1.0000
  C   C291      1.0  0.45032  0.06544  0.93398  1.0000
  C   C292      1.0  0.43986  0.12715  0.88263  1.0000
  C   C293      1.0  0.39636  0.05223  0.87489  1.0000
  C   C294      1.0  0.35663999999999996  0.00464  0.89049  1.0000
  C   C295      1.0  0.44288999999999995  0.02497  0.8665599999999999  1.0000
  C   C296      1.0  0.39221  0.96874  0.8544299999999999  1.0000
  C   C297      1.0  0.3348  0.9790200000000001  0.85107  1.0000
  C   C298      1.0  0.34497  0.04381  0.8603299999999999  1.0000
  C   C299      1.0  0.39513  0.91236  0.8471299999999999  1.0000
  C   C300      1.0  0.33882000000000007  0.8643200000000001  0.8367899999999999  1.0000
  C   C301      1.0  0.28107  0.87417  0.83375  1.0000
  C   C302      1.0  0.2793  0.9320400000000001  0.8406999999999999  1.0000
  C   C303      1.0  0.34101  0.80388  0.8287199999999999  1.0000
  C   C304      1.0  0.54497  0.1869  0.9425599999999998  1.0000
  C   C305      1.0  0.68376  0.12867  0.00653  1.0000
  C   C306      1.0  0.6245299999999999  0.07838  0.01569  1.0000
  C   C307      1.0  0.62947  0.02696  0.025009999999999994  1.0000
  C   C308      1.0  0.69197  0.02359  0.024669999999999997  1.0000
  C   C309      1.0  0.75066  0.07301  0.01552  1.0000
  C   C310      1.0  0.74673  0.12631  0.00669  1.0000
  C   C311      1.0  0.5754  0.96914  0.03625  1.0000
  C   C312      1.0  0.62079  0.94745  0.04723999999999999  1.0000
  C   C313      1.0  0.68267  0.9619700000000001  0.03519  1.0000
  C   C314      1.0  0.5785400000000002  0.8710500000000001  0.05417999999999999  1.0000
  C   C315      1.0  0.55704  0.87938  0.0719  1.0000
  C   C316      1.0  0.59618  0.9498100000000002  0.07731  1.0000
  C   C317      1.0  0.64708  0.9946300000000001  0.06356999999999997  1.0000
  C   C318      1.0  0.50843  0.82778  0.08273  1.0000
  C   C319      1.0  0.49986  0.84629  0.09934999999999997  1.0000
  C   C320      1.0  0.5389399999999999  0.9168399999999999  0.10476999999999999  1.0000
  C   C321      1.0  0.58676  0.9688600000000002  0.09372  1.0000
  C   C322      1.0  0.45013999999999993  0.78981  0.11098999999999999  1.0000
  C   C323      1.0  0.68002  0.1845  0.99655  1.0000
  C   C324      1.0  0.47599  0.30633  0.00627  1.0000
  C   C325      1.0  0.48821  0.37301  0.01147  1.0000
  C   C326      1.0  0.43941  0.37738  0.021839999999999995  1.0000
  C   C327      1.0  0.37788  0.31613  0.02711999999999999  1.0000
  C   C328      1.0  0.3648599999999999  0.24981  0.02175  1.0000
  C   C329      1.0  0.4143  0.24506  0.01132  1.0000
  C   C330      1.0  0.44218999999999997  0.44168  0.029459999999999997  1.0000
  C   C331      1.0  0.39275999999999994  0.41136  0.04505  1.0000
  C   C332      1.0  0.3359  0.33683  0.038669999999999996  1.0000
  C   C333      1.0  0.36345  0.45896000000000003  0.05135  1.0000
  C   C334      1.0  0.3685999999999999  0.45885  0.07049  1.0000
  C   C335      1.0  0.40506  0.4247600000000001  0.07585999999999998  1.0000
  C   C336      1.0  0.43189  0.40274  0.06076  1.0000
  C   C337      1.0  0.34573  0.49039  0.08227  1.0000
  C   C338      1.0  0.35763  0.48593  0.09972999999999999  1.0000
  C   C339      1.0  0.39128  0.44894999999999996  0.10515999999999999  1.0000
  C   C340      1.0  0.41546999999999995  0.41865  0.09323  1.0000
  C   C341      1.0  0.33804  0.52457  0.11207  1.0000
  C   C342      1.0  0.5312  0.30372  0.99579  1.0000
  C   C343      1.0  0.6397499999999999  0.13619  0.57073  1.0000
  C   C344      1.0  0.66372  0.1603  0.5873999999999999  1.0000
  C   C345      1.0  0.66394  0.11358  0.59936  1.0000
  C   C346      1.0  0.64045  0.04309  0.5949099999999999  1.0000
  C   C347      1.0  0.61542  0.01855  0.5784799999999999  1.0000
  C   C348      1.0  0.61526  0.06536  0.56639  1.0000
  C   C349      1.0  0.6887299999999998  0.12713  0.61767  1.0000
  C   C350      1.0  0.6576  0.05221  0.62541  1.0000
  C   C351      1.0  0.64957  0.00473  0.60976  1.0000
  C   C352      1.0  0.58394  0.02516  0.6337599999999999  1.0000
  C   C353      1.0  0.5782599999999999  0.96888  0.64587  1.0000
  C   C354      1.0  0.6457999999999999  0.97877  0.64919  1.0000
  C   C355      1.0  0.70058  0.04348  0.63992  1.0000
  C   C356      1.0  0.51887  0.9129400000000001  0.65324  1.0000
  C   C357      1.0  0.52682  0.8648100000000001  0.6636099999999999  1.0000
  C   C358      1.0  0.59421  0.87402  0.6665799999999998  1.0000
  C   C359      1.0  0.6539999999999998  0.93157  0.6595699999999999  1.0000
  C   C360      1.0  0.46379  0.80494  0.6717199999999999  1.0000
  C   C361      1.0  0.64233  0.18715  0.55783  1.0000
  C   C362      1.0  0.44542999999999994  0.12819  0.49372999999999995  1.0000
  C   C363      1.0  0.45451  0.07813  0.4844899999999999  1.0000
  C   C364      1.0  0.39842  0.02707  0.47501999999999994  1.0000
  C   C365      1.0  0.33254  0.02368  0.4752899999999999  1.0000
  C   C366      1.0  0.3231  0.07285  0.48452  1.0000
  C   C367      1.0  0.38007  0.12581  0.4934799999999999  1.0000
  C   C368      1.0  0.39499  0.96972  0.4636399999999999  1.0000
  C   C369      1.0  0.32804  0.94812  0.45259  1.0000
  C   C370      1.0  0.28045  0.96244  0.46462999999999993  1.0000
  C   C371      1.0  0.2941  0.8717  0.44564  1.0000
  C   C372      1.0  0.32365  0.88005  0.42788  1.0000
  C   C373      1.0  0.35498999999999997  0.9505000000000001  0.42249  1.0000
  C   C374      1.0  0.34895  0.99531  0.43625999999999987  1.0000
  C   C375      1.0  0.32038  0.82838  0.4170199999999999  1.0000
  C   C376      1.0  0.34725000000000006  0.8468200000000001  0.40037999999999996  1.0000
  C   C377      1.0  0.37872  0.9174  0.39497  1.0000
  C   C378      1.0  0.38324  0.9694699999999999  0.4060499999999999  1.0000
  C   C379      1.0  0.34011999999999987  0.7903  0.38869999999999993  1.0000
  C   C380      1.0  0.5048099999999998  0.184  0.50381  1.0000
  C   C381      1.0  0.8307499999999999  0.30575  0.49357999999999996  1.0000
  C   C382      1.0  0.88542  0.37252  0.48847999999999997  1.0000
  C   C383      1.0  0.93865  0.3771  0.47809999999999997  1.0000
  C   C384      1.0  0.9388299999999999  0.3159  0.47271  1.0000
  C   C385      1.0  0.88534  0.2495  0.47796999999999995  1.0000
  C   C386      1.0  0.83109  0.24452  0.48842  1.0000
  C   C387      1.0  0.0001299999999999814  0.44151  0.4704999999999999  1.0000
  C   C388      1.0  0.019019999999999995  0.41132  0.45483999999999997  1.0000
  C   C389      1.0  0.001510000000000001  0.33676  0.46113999999999994  1.0000
  C   C390      1.0  0.09568000000000004  0.4589500000000001  0.44841999999999993  1.0000
  C   C391      1.0  0.08982999999999995  0.45841999999999994  0.42929999999999996  1.0000
  C   C392      1.0  0.01913000000000004  0.42418000000000006  0.42403  1.0000
  C   C393      1.0  0.9708299999999999  0.40259  0.4392199999999999  1.0000
  C   C394      1.0  0.14390999999999995  0.48981  0.41743  1.0000
  C   C395      1.0  0.12709  0.48507  0.40001  1.0000
  C   C396      1.0  0.056360000000000014  0.44777999999999996  0.39467  1.0000
  C   C397      1.0  0.0021500000000000013  0.41759  0.40668  1.0000
  C   C398      1.0  0.18493  0.52373  0.38758999999999993  1.0000
  C   C399      1.0  0.77297  0.30308  0.50414  1.0000
  C   C400      1.0  0.49628999999999995  0.35955  0.9040799999999999  1.0000
  C   C401      1.0  0.49650999999999995  0.33592  0.92078  1.0000
  C   C402      1.0  0.4497699999999999  0.33611  0.93274  1.0000
  C   C403      1.0  0.40286  0.35966  0.92824  1.0000
  C   C404      1.0  0.40342999999999996  0.38455  0.9117899999999999  1.0000
  C   C405      1.0  0.4502499999999999  0.38436  0.8997099999999999  1.0000
  C   C406      1.0  0.43850999999999996  0.31156  0.9510699999999997  1.0000
  C   C407      1.0  0.39481999999999995  0.34288  0.95877  1.0000
  C   C408      1.0  0.35542  0.35074  0.94309  1.0000
  C   C409      1.0  0.44125  0.41663  0.9671299999999999  1.0000
  C   C410      1.0  0.39039  0.42228  0.9791899999999999  1.0000
  C   C411      1.0  0.33292  0.3546  0.98251  1.0000
  C   C412      1.0  0.34308000000000005  0.2999  0.9732699999999999  1.0000
  C   C413      1.0  0.39338999999999996  0.48153  0.9865499999999998  1.0000
  C   C414      1.0  0.3372599999999999  0.47330999999999995  0.9969699999999998  1.0000
  C   C415      1.0  0.27924  0.40576  0.9998699999999999  1.0000
  C   C416      1.0  0.27734  0.34615  0.9928399999999997  1.0000
  C   C417      1.0  0.34044  0.53602  0.005309999999999998  1.0000
  C   C418      1.0  0.54444  0.35647  0.8912  1.0000
  C   C419      1.0  0.68256  0.55427  0.8270699999999999  1.0000
  C   C420      1.0  0.62337  0.54512  0.81784  1.0000
  C   C421      1.0  0.6284399999999999  0.60125  0.8083799999999999  1.0000
  C   C422      1.0  0.6909599999999999  0.6671  0.8086699999999999  1.0000
  C   C423      1.0  0.7495599999999998  0.67655  0.8179  1.0000
  C   C424      1.0  0.74554  0.61958  0.82685  1.0000
  C   C425      1.0  0.5746  0.60473  0.79699  1.0000
  C   C426      1.0  0.62002  0.67175  0.78596  1.0000
  C   C427      1.0  0.6819  0.71924  0.7980099999999998  1.0000
  C   C428      1.0  0.57761  0.70576  0.7790099999999998  1.0000
  C   C429      1.0  0.55648  0.67627  0.7612399999999999  1.0000
  C   C430      1.0  0.59559  0.64493  0.75585  1.0000
  C   C431      1.0  0.64636  0.6509  0.76963  1.0000
  C   C432      1.0  0.50813  0.67954  0.75037  1.0000
  C   C433      1.0  0.49966999999999995  0.65266  0.7337299999999999  1.0000
  C   C434      1.0  0.53881  0.62121  0.7283199999999997  1.0000
  C   C435      1.0  0.5863499999999999  0.61671  0.73942  1.0000
  C   C436      1.0  0.4502  0.65972  0.72205  1.0000
  C   C437      1.0  0.6790399999999999  0.49497  0.83713  1.0000
  C   C438      1.0  0.4752499999999999  0.16931  0.82695  1.0000
  C   C439      1.0  0.48735  0.11468000000000002  0.82183  1.0000
  C   C440      1.0  0.43877  0.06154  0.8114299999999998  1.0000
  C   C441      1.0  0.3774  0.06134  0.8060399999999999  1.0000
  C   C442      1.0  0.36446999999999996  0.11479  0.8113199999999998  1.0000
  C   C443      1.0  0.41369  0.16898  0.82179  1.0000
  C   C444      1.0  0.44171  0.00010000000000000002  0.8038  1.0000
  C   C445      1.0  0.39256  0.98119  0.78815  1.0000
  C   C446      1.0  0.33554  0.9987  0.79447  1.0000
  C   C447      1.0  0.36341  0.90445  0.78175  1.0000
  C   C448      1.0  0.36863999999999997  0.9102000000000001  0.7626199999999999  1.0000
  C   C449      1.0  0.40515999999999996  0.98088  0.7573399999999999  1.0000
  C   C450      1.0  0.43192  0.02932  0.77251  1.0000
  C   C451      1.0  0.3459399999999999  0.8561099999999999  0.75075  1.0000
  C   C452      1.0  0.35801  0.87293  0.73333  1.0000
  C   C453      1.0  0.39148  0.94366  0.7279799999999998  1.0000
  C   C454      1.0  0.41559999999999997  0.99784  0.7399899999999998  1.0000
  C   C455      1.0  0.33898999999999996  0.8151  0.7209299999999997  1.0000
  C   C456      1.0  0.53052  0.22709  0.83746  1.0000
  C   C457      1.0  0.86336  0.50366  0.23738  1.0000
  C   C458      1.0  0.8393799999999999  0.50343  0.25406  1.0000
  C   C459      1.0  0.8861799999999997  0.55021  0.26602  1.0000
  C   C460      1.0  0.95667  0.59713  0.2615699999999999  1.0000
  C   C461      1.0  0.98113  0.59655  0.24513  1.0000
  C   C462      1.0  0.9342399999999998  0.54973  0.23302999999999996  1.0000
  C   C463      1.0  0.87265  0.56145  0.28433  1.0000
  C   C464      1.0  0.9475499999999999  0.60501  0.29206999999999994  1.0000
  C   C465      1.0  0.9950499999999998  0.64451  0.27643  1.0000
  C   C466      1.0  0.97465  0.55837  0.3004099999999999  1.0000
  C   C467      1.0  0.03124000000000003  0.60916  0.31244999999999995  1.0000
  C   C468      1.0  0.02110999999999999  0.66665  0.31583  1.0000
  C   C469      1.0  0.9563199999999998  0.65666  0.3065999999999999  1.0000
  C   C470      1.0  0.08769999999999999  0.60623  0.31968999999999986  1.0000
  C   C471      1.0  0.13605  0.66262  0.32995  1.0000
  C   C472      1.0  0.12649999999999997  0.72057  0.33296  1.0000
  C   C473      1.0  0.06840999999999998  0.72226  0.3261299999999999  1.0000
  C   C474      1.0  0.1964  0.66009  0.338  1.0000
  C   C475      1.0  0.8121299999999999  0.4555100000000001  0.22450999999999993  1.0000
  C   C476      1.0  0.87174  0.31738  0.16039  1.0000
  C   C477      1.0  0.92176  0.37656  0.15116  1.0000
  C   C478      1.0  0.97283  0.37153  0.1417  1.0000
  C   C479      1.0  0.9761899999999999  0.30901  0.14198  1.0000
  C   C480      1.0  0.92708  0.2504  0.15122  1.0000
  C   C481      1.0  0.8741199999999999  0.25441  0.16018  1.0000
  C   C482      1.0  0.030180000000000023  0.42542  0.13030999999999998  1.0000
  C   C483      1.0  0.051770000000000004  0.38  0.11929  1.0000
  C   C484      1.0  0.03739999999999999  0.31812  0.13133  1.0000
  C   C485      1.0  0.12817999999999996  0.42239  0.11233999999999998  1.0000
  C   C486      1.0  0.11981999999999993  0.44351999999999997  0.09456999999999999  1.0000
  C   C487      1.0  0.04936999999999997  0.40442  0.08918  1.0000
  C   C488      1.0  0.00459000000000001  0.35364  0.10296  1.0000
  C   C489      1.0  0.17145  0.49187  0.08368999999999997  1.0000
  C   C490      1.0  0.15297999999999995  0.50033  0.06706  1.0000
  C   C491      1.0  0.0824  0.46121000000000006  0.06165999999999999  1.0000
  C   C492      1.0  0.03037000000000003  0.41365  0.07274999999999998  1.0000
  C   C493      1.0  0.20947999999999997  0.54983  0.05539  1.0000
  C   C494      1.0  0.81596  0.32087  0.17046999999999995  1.0000
  C   C495      1.0  0.6941099999999998  0.5249  0.1603  1.0000
  C   C496      1.0  0.6273599999999999  0.51273  0.15516  1.0000
  C   C497      1.0  0.62283  0.56131  0.14475  1.0000
  C   C498      1.0  0.6840099999999999  0.62271  0.13937999999999998  1.0000
  C   C499      1.0  0.7503899999999998  0.63566  0.14466  1.0000
  C   C500      1.0  0.75534  0.58639  0.15511999999999998  1.0000
  C   C501      1.0  0.55847  0.55837  0.13711999999999994  1.0000
  C   C502      1.0  0.58871  0.60749  0.12146999999999997  1.0000
  C   C503      1.0  0.66324  0.66452  0.12778999999999996  1.0000
  C   C504      1.0  0.54112  0.63664  0.11506999999999998  1.0000
  C   C505      1.0  0.54162  0.63139  0.09594  1.0000
  C   C506      1.0  0.57582  0.59489  0.09067  1.0000
  C   C507      1.0  0.59746  0.56812  0.10583  1.0000
  C   C508      1.0  0.51021  0.65404  0.08406999999999999  1.0000
  C   C509      1.0  0.51493  0.64192  0.06665  1.0000
  C   C510      1.0  0.5522299999999999  0.60848  0.06131  1.0000
  C   C511      1.0  0.5823499999999999  0.5844  0.07331999999999998  1.0000
  C   C512      1.0  0.47606  0.66089  0.05425  1.0000
  C   C513      1.0  0.6966499999999999  0.4697200000000001  0.17083  1.0000
  C   C514      1.0  0.36035999999999985  0.8637799999999999  0.07038  1.0000
  C   C515      1.0  0.33654  0.83952  0.08703  1.0000
  C   C516      1.0  0.33677  0.88631  0.09902999999999998  1.0000
  C   C517      1.0  0.3603199999999999  0.9568299999999998  0.0946  1.0000
  C   C518      1.0  0.3849399999999999  0.9813699999999999  0.07815  1.0000
  C   C519      1.0  0.38486000000000004  0.9345800000000001  0.06603  1.0000
  C   C520      1.0  0.3125799999999998  0.8728699999999999  0.11737999999999998  1.0000
  C   C521      1.0  0.3440800000000001  0.9478000000000001  0.12511999999999998  1.0000
  C   C522      1.0  0.3518899999999999  0.99535  0.10950999999999998  1.0000
  C   C523      1.0  0.4178699999999999  0.97502  0.13344  1.0000
  C   C524      1.0  0.42344999999999994  0.0313  0.14556  1.0000
  C   C525      1.0  0.35577999999999993  0.02104  0.14893  1.0000
  C   C526      1.0  0.3011299999999999  0.95628  0.13968  1.0000
  C   C527      1.0  0.48274  0.08766  0.15287  1.0000
  C   C528      1.0  0.47447  0.13571  0.1632  1.0000
  C   C529      1.0  0.40688  0.12589  0.16625  1.0000
  C   C530      1.0  0.34725  0.06801  0.15931  1.0000
  C   C531      1.0  0.53712  0.19611  0.17128  1.0000
  C   C532      1.0  0.35822  0.8132  0.05746  1.0000
  C   C533      1.0  0.55499  0.87122  0.9934499999999998  1.0000
  C   C534      1.0  0.54604  0.9215200000000001  0.98429  1.0000
  C   C535      1.0  0.6023899999999999  0.9729400000000001  0.9749899999999999  1.0000
  C   C536      1.0  0.6682499999999999  0.97628  0.9753299999999999  1.0000
  C   C537      1.0  0.6774899999999999  0.92682  0.98447  1.0000
  C   C538      1.0  0.6202799999999998  0.87352  0.9932899999999999  1.0000
  C   C539      1.0  0.6061999999999999  0.030789999999999998  0.9637399999999998  1.0000
  C   C540      1.0  0.6733099999999999  0.05244  0.95277  1.0000
  C   C541      1.0  0.72062  0.03787  0.9648099999999998  1.0000
  C   C542      1.0  0.70749  0.12886  0.9458299999999998  1.0000
  C   C543      1.0  0.67757  0.12055  0.9281099999999999  1.0000
  C   C544      1.0  0.64624  0.05011  0.9227099999999999  1.0000
  C   C545      1.0  0.6524299999999998  0.00529  0.93643  1.0000
  C   C546      1.0  0.68059  0.17217  0.9172799999999999  1.0000
  C   C547      1.0  0.6535499999999999  0.15369  0.90066  1.0000
  C   C548      1.0  0.6220399999999999  0.08313  0.89524  1.0000
  C   C549      1.0  0.61772  0.03108  0.9062999999999999  1.0000
  C   C550      1.0  0.66028  0.21016  0.88901  1.0000
  C   C551      1.0  0.4954299999999999  0.81551  0.00344  1.0000
  C   C552      1.0  0.16972999999999996  0.69393  0.9937099999999999  1.0000
  C   C553      1.0  0.11520999999999998  0.62722  0.9885299999999999  1.0000
  C   C554      1.0  0.06204  0.62279  0.9781699999999998  1.0000
  C   C555      1.0  0.06169  0.684  0.97286  1.0000
  C   C556      1.0  0.11498000000000008  0.75033  0.97823  1.0000
  C   C557      1.0  0.16921999999999998  0.75517  0.98866  1.0000
  C   C558      1.0  0.000609999999999997  0.55844  0.9705399999999998  1.0000
  C   C559      1.0  0.98141  0.58866  0.9549499999999999  1.0000
  C   C560      1.0  0.99902  0.66321  0.9612999999999999  1.0000
  C   C561      1.0  0.90451  0.54094  0.94867  1.0000
  C   C562      1.0  0.9097099999999999  0.54104  0.92953  1.0000
  C   C563      1.0  0.9802499999999998  0.57516  0.92414  1.0000
  C   C564      1.0  0.029110000000000004  0.59723  0.93923  1.0000
  C   C565      1.0  0.8553  0.50955  0.91774  1.0000
  C   C566      1.0  0.8716399999999999  0.51406  0.9002799999999999  1.0000
  C   C567      1.0  0.9422599999999998  0.55104  0.89484  1.0000
  C   C568      1.0  0.9967499999999998  0.58131  0.9067699999999999  1.0000
  C   C569      1.0  0.8134399999999999  0.47542  0.88793  1.0000
  C   C570      1.0  0.22762000000000002  0.6966  0.00418  1.0000
  C   C571      1.0  0.50333  0.63962  0.40369999999999995  1.0000
  C   C572      1.0  0.50291  0.66339  0.42037  1.0000
  C   C573      1.0  0.54946  0.66311  0.4323699999999999  1.0000
  C   C574      1.0  0.5964299999999999  0.63958  0.42792  1.0000
  C   C575      1.0  0.59634  0.61502  0.41147  1.0000
  C   C576      1.0  0.54965  0.61515  0.39934999999999987  1.0000
  C   C577      1.0  0.56019  0.68721  0.45072999999999996  1.0000
  C   C578      1.0  0.6036599999999999  0.65575  0.45846  1.0000
  C   C579      1.0  0.64334  0.6479  0.44283999999999996  1.0000
  C   C580      1.0  0.55717  0.58195  0.46676999999999996  1.0000
  C   C581      1.0  0.60793  0.57645  0.47888  1.0000
  C   C582      1.0  0.66521  0.64415  0.48229  1.0000
  C   C583      1.0  0.65504  0.69873  0.47302  1.0000
  C   C584      1.0  0.60507  0.51721  0.4862  1.0000
  C   C585      1.0  0.66136  0.52554  0.4965499999999999  1.0000
  C   C586      1.0  0.71915  0.59314  0.49956999999999996  1.0000
  C   C587      1.0  0.72077  0.65275  0.49264999999999987  1.0000
  C   C588      1.0  0.65906  0.46287  0.50462  1.0000
  C   C589      1.0  0.45489999999999997  0.64182  0.39077999999999996  1.0000
  C   C590      1.0  0.31625  0.44512  0.32680999999999993  1.0000
  C   C591      1.0  0.37548  0.4540600000000001  0.31765  1.0000
  C   C592      1.0  0.37057999999999996  0.39772  0.30834  1.0000
  C   C593      1.0  0.30809  0.33185  0.30867  1.0000
  C   C594      1.0  0.24938  0.32259  0.31781  1.0000
  C   C595      1.0  0.25326  0.37979  0.32664  1.0000
  C   C596      1.0  0.42463  0.39391  0.29709  1.0000
  C   C597      1.0  0.3792  0.32679  0.28611  1.0000
  C   C598      1.0  0.31733  0.27947  0.2981599999999999  1.0000
  C   C599      1.0  0.42141999999999996  0.29259  0.27917  1.0000
  C   C600      1.0  0.4429699999999999  0.32242  0.26143999999999995  1.0000
  C   C601      1.0  0.40382999999999997  0.35371  0.2560399999999999  1.0000
  C   C602      1.0  0.3529  0.34762  0.26976999999999995  1.0000
  C   C603      1.0  0.49156999999999995  0.31941  0.25061  1.0000
  C   C604      1.0  0.50014  0.34645  0.23399  1.0000
  C   C605      1.0  0.46106  0.37794  0.22857  1.0000
  C   C606      1.0  0.41326999999999997  0.38217  0.23963  1.0000
  C   C607      1.0  0.54985  0.33966  0.22234  1.0000
  C   C608      1.0  0.32014  0.50479  0.3368  1.0000
  C   C609      1.0  0.5247  0.83034  0.32703999999999994  1.0000
  C   C610      1.0  0.51237  0.88479  0.3219  1.0000
  C   C611      1.0  0.5609999999999999  0.93798  0.31152  1.0000
  C   C612      1.0  0.62254  0.9384  0.30618  1.0000
  C   C613      1.0  0.6357  0.88515  0.31152  1.0000
  C   C614      1.0  0.58641  0.83086  0.32195  1.0000
  C   C615      1.0  0.5579399999999999  0.99936  0.30391  1.0000
  C   C616      1.0  0.60722  0.01857  0.28829  1.0000
  C   C617      1.0  0.66428  0.00109  0.29461  1.0000
  C   C618      1.0  0.6363199999999999  0.09545  0.282  1.0000
  C   C619      1.0  0.63128  0.09022  0.26286  1.0000
  C   C620      1.0  0.59492  0.01967  0.25748  1.0000
  C   C621      1.0  0.5680499999999999  0.97084  0.27258  1.0000
  C   C622      1.0  0.65421  0.14464  0.25107  1.0000
  C   C623      1.0  0.64239  0.12831  0.23360999999999998  1.0000
  C   C624      1.0  0.6087599999999999  0.05769  0.22818  1.0000
  C   C625      1.0  0.5846  0.00317  0.24009999999999998  1.0000
  C   C626      1.0  0.66198  0.18652  0.22125999999999998  1.0000
  C   C627      1.0  0.46958999999999995  0.77245  0.33751  1.0000
  C   C628      1.0  0.13627999999999996  0.4965899999999999  0.7370199999999999  1.0000
  C   C629      1.0  0.16048000000000007  0.49704000000000004  0.75368  1.0000
  C   C630      1.0  0.11367999999999993  0.45053  0.76569  1.0000
  C   C631      1.0  0.04317000000000004  0.40357  0.76125  1.0000
  C   C632      1.0  0.01867  0.40368  0.7448  1.0000
  C   C633      1.0  0.06546999999999996  0.45034  0.7326799999999998  1.0000
  C   C634      1.0  0.12715000000000007  0.43988  0.7840399999999998  1.0000
  C   C635      1.0  0.05225  0.39638  0.7917799999999999  1.0000
  C   C636      1.0  0.004649999999999996  0.35666  0.77617  1.0000
  C   C637      1.0  0.024970000000000006  0.4429  0.8001  1.0000
  C   C638      1.0  0.96871  0.39217  0.8122099999999998  1.0000
  C   C639      1.0  0.9790499999999999  0.33481  0.8156  1.0000
  C   C640      1.0  0.04381999999999999  0.34498  0.80634  1.0000
  C   C641      1.0  0.9123299999999999  0.39508  0.8195199999999999  1.0000
  C   C642      1.0  0.8643599999999998  0.33879  0.82988  1.0000
  C   C643      1.0  0.8741599999999999  0.28099  0.8328999999999999  1.0000
  C   C644      1.0  0.93207  0.27927  0.82597  1.0000
  C   C645      1.0  0.80395  0.34101  0.83796  1.0000
  C   C646      1.0  0.18692999999999999  0.54498  0.7241099999999998  1.0000
  C   C647      1.0  0.12868  0.68378  0.66013  1.0000
  C   C648      1.0  0.07838999999999999  0.62454  0.65098  1.0000
  C   C649      1.0  0.02696999999999993  0.62947  0.64166  1.0000
  C   C650      1.0  0.02358999999999997  0.69197  0.642  1.0000
  C   C651      1.0  0.07300999999999994  0.75067  0.65115  1.0000
  C   C652      1.0  0.12631  0.74676  0.6599699999999998  1.0000
  C   C653      1.0  0.96915  0.57539  0.63042  1.0000
  C   C654      1.0  0.94746  0.62078  0.61943  1.0000
  C   C655      1.0  0.96197  0.68266  0.6314799999999999  1.0000
  C   C656      1.0  0.8710699999999999  0.57853  0.61249  1.0000
  C   C657      1.0  0.8793999999999998  0.55703  0.5947599999999998  1.0000
  C   C658      1.0  0.9498199999999999  0.59618  0.5893599999999999  1.0000
  C   C659      1.0  0.9946299999999999  0.64708  0.6030999999999999  1.0000
  C   C660      1.0  0.8278  0.50844  0.5839299999999998  1.0000
  C   C661      1.0  0.8463  0.49986  0.56731  1.0000
  C   C662      1.0  0.91685  0.53894  0.56189  1.0000
  C   C663      1.0  0.96886  0.58677  0.57295  1.0000
  C   C664      1.0  0.7898099999999999  0.45013000000000003  0.5556699999999998  1.0000
  C   C665      1.0  0.18452  0.68004  0.67011  1.0000
  C   C666      1.0  0.30629  0.47597999999999996  0.66039  1.0000
  C   C667      1.0  0.3729799999999999  0.48822  0.6552  1.0000
  C   C668      1.0  0.37737  0.43944000000000005  0.64483  1.0000
  C   C669      1.0  0.31614  0.37789  0.63954  1.0000
  C   C670      1.0  0.24981999999999996  0.36484  0.64492  1.0000
  C   C671      1.0  0.24505  0.41427  0.6553499999999999  1.0000
  C   C672      1.0  0.44166999999999995  0.4422400000000001  0.6372  1.0000
  C   C673      1.0  0.41136  0.3928  0.62161  1.0000
  C   C674      1.0  0.3368499999999999  0.33592  0.6279899999999999  1.0000
  C   C675      1.0  0.45898  0.3635  0.61532  1.0000
  C   C676      1.0  0.45883  0.36859  0.5961799999999999  1.0000
  C   C677      1.0  0.42475  0.40506  0.59081  1.0000
  C   C678      1.0  0.4027500000000001  0.4319200000000001  0.6058999999999999  1.0000
  C   C679      1.0  0.49034999999999995  0.34569  0.5843999999999999  1.0000
  C   C680      1.0  0.4859  0.35759  0.56694  1.0000
  C   C681      1.0  0.44893999999999995  0.39126  0.56151  1.0000
  C   C682      1.0  0.41865  0.41547  0.5734299999999999  1.0000
  C   C683      1.0  0.52459  0.33805  0.5546  1.0000
  C   C684      1.0  0.30362  0.53118  0.67087  1.0000
  O   O1        1.0  0.31704  0.646  0.13777  1.0000
  O   O2        1.0  0.16560999999999998  0.62069  0.12398999999999999  1.0000
  O   O3        1.0  0.25154  0.66877  0.1038  1.0000
  O   O4        1.0  0.80578  0.40578  0.99562  1.0000
  O   O5        1.0  0.7573199999999998  0.47268000000000004  0.9877199999999999  1.0000
  O   O6        1.0  0.17612  0.5582  0.16013  1.0000
  O   O7        1.0  0.23530000000000006  0.49731000000000003  0.15752999999999995  1.0000
  O   O8        1.0  0.72759  0.31222  0.27181  1.0000
  O   O9        1.0  0.80633  0.36084  0.29346  1.0000
  O   O10       1.0  0.24363  0.72531  0.15662  1.0000
  O   O11       1.0  0.3627399999999999  0.77633  0.16032  1.0000
  O   O12       1.0  0.56158  0.24668000000000004  0.2727399999999999  1.0000
  O   O13       1.0  0.51842  0.16999  0.29504  1.0000
  O   O14       1.0  0.35403999999999997  0.67092  0.80444  1.0000
  O   O15       1.0  0.37856999999999996  0.5446  0.7906199999999998  1.0000
  O   O16       1.0  0.33052999999999993  0.58253  0.77045  1.0000
  O   O17       1.0  0.5944799999999998  0.39906  0.6623  1.0000
  O   O18       1.0  0.52668  0.28481  0.65367  1.0000
  O   O19       1.0  0.44174  0.61785  0.8268  1.0000
  O   O20       1.0  0.5025799999999999  0.73794  0.8241899999999999  1.0000
  O   O21       1.0  0.6876799999999997  0.41538  0.9384699999999999  1.0000
  O   O22       1.0  0.6389900000000001  0.4454600000000001  0.9601199999999999  1.0000
  O   O23       1.0  0.27473  0.51841  0.8232899999999999  1.0000
  O   O24       1.0  0.22354999999999994  0.5864  0.82694  1.0000
  O   O25       1.0  0.75321  0.31482  0.9394  1.0000
  O   O26       1.0  0.8300699999999999  0.34851  0.96167  1.0000
  O   O27       1.0  0.32899  0.68303  0.4711099999999999  1.0000
  O   O28       1.0  0.4552399999999999  0.83414  0.4573199999999999  1.0000
  O   O29       1.0  0.41744  0.74818  0.43714  1.0000
  O   O30       1.0  0.6011699999999998  0.19524  0.32897  1.0000
  O   O31       1.0  0.71756  0.24495999999999998  0.3219  1.0000
  O   O32       1.0  0.38201  0.82386  0.49347  1.0000
  O   O33       1.0  0.26194  0.76467  0.49085999999999996  1.0000
  O   O34       1.0  0.5846499999999999  0.2723  0.60514  1.0000
  O   O35       1.0  0.55476  0.19344  0.62676  1.0000
  O   O36       1.0  0.48165  0.75635  0.48995999999999995  1.0000
  O   O37       1.0  0.4137199999999999  0.63723  0.49362  1.0000
  O   O38       1.0  0.68502  0.43839  0.60607  1.0000
  O   O39       1.0  0.65166  0.48168999999999995  0.62838  1.0000
  O   O40       1.0  0.68444  0.35464  0.63808  1.0000
  O   O41       1.0  0.83596  0.38128  0.62428  1.0000
  O   O42       1.0  0.74918  0.33261  0.60424  1.0000
  O   O43       1.0  0.19606999999999997  0.59556  0.49606999999999996  1.0000
  O   O44       1.0  0.2435  0.52761  0.48825  1.0000
  O   O45       1.0  0.82413  0.44243000000000005  0.66057  1.0000
  O   O46       1.0  0.7640099999999999  0.50247  0.6579  1.0000
  O   O47       1.0  0.27278  0.68809  0.77141  1.0000
  O   O48       1.0  0.19418000000000002  0.63941  0.7931299999999998  1.0000
  O   O49       1.0  0.7560599999999997  0.27433  0.65627  1.0000
  O   O50       1.0  0.63748  0.22565  0.66068  1.0000
  O   O51       1.0  0.43927  0.75141  0.77234  1.0000
  O   O52       1.0  0.47930999999999996  0.82808  0.79468  1.0000
  O   O53       1.0  0.6455199999999999  0.32949  0.3047399999999999  1.0000
  O   O54       1.0  0.6188899999999999  0.4545100000000001  0.29096  1.0000
  O   O55       1.0  0.66818  0.41703  0.27093  1.0000
  O   O56       1.0  0.4043999999999999  0.6007  0.16273999999999994  1.0000
  O   O57       1.0  0.47253  0.71592  0.15485  1.0000
  O   O58       1.0  0.55774  0.38159  0.32719  1.0000
  O   O59       1.0  0.49761999999999995  0.26142  0.32457  1.0000
  O   O60       1.0  0.31194  0.5847  0.4380799999999999  1.0000
  O   O61       1.0  0.36051999999999995  0.55473  0.4598  1.0000
  O   O62       1.0  0.7255999999999998  0.48229  0.32296  1.0000
  O   O63       1.0  0.7744699999999999  0.4126  0.32732  1.0000
  O   O64       1.0  0.24854999999999997  0.68774  0.439  1.0000
  O   O65       1.0  0.17189  0.65134  0.4613399999999999  1.0000
  O   O66       1.0  0.6705  0.31584  0.9714199999999997  1.0000
  O   O67       1.0  0.5455  0.1643  0.95763  1.0000
  O   O68       1.0  0.5828199999999999  0.25116  0.9376199999999998  1.0000
  O   O69       1.0  0.39939  0.80373  0.82941  1.0000
  O   O70       1.0  0.2841600000000001  0.75665  0.82153  1.0000
  O   O71       1.0  0.61848  0.17606  0.9938799999999999  1.0000
  O   O72       1.0  0.7386399999999999  0.23609000000000002  0.9912399999999999  1.0000
  O   O73       1.0  0.41527  0.72722  0.10474999999999998  1.0000
  O   O74       1.0  0.4452999999999999  0.80583  0.12646999999999997  1.0000
  O   O75       1.0  0.51835  0.24424  0.9895899999999999  1.0000
  O   O76       1.0  0.58808  0.36287  0.994  1.0000
  O   O77       1.0  0.31218  0.56071  0.10566999999999997  1.0000
  O   O78       1.0  0.34876999999999997  0.52068  0.12801  1.0000
  O   O79       1.0  0.64602  0.3171  0.5289099999999998  1.0000
  O   O80       1.0  0.62014  0.16525  0.54267  1.0000
  O   O81       1.0  0.6683  0.25122  0.56285  1.0000
  O   O82       1.0  0.40579  0.80578  0.67105  1.0000
  O   O83       1.0  0.47268  0.7573  0.67895  1.0000
  O   O84       1.0  0.55817  0.17618  0.50656  1.0000
  O   O85       1.0  0.4972399999999999  0.23531  0.50913  1.0000
  O   O86       1.0  0.31217  0.72757  0.3948599999999999  1.0000
  O   O87       1.0  0.36082  0.80632  0.3731999999999999  1.0000
  O   O88       1.0  0.7253000000000001  0.24341  0.51002  1.0000
  O   O89       1.0  0.77631  0.36258  0.50636  1.0000
  O   O90       1.0  0.24685  0.56128  0.3939  1.0000
  O   O91       1.0  0.17  0.51837  0.3716399999999999  1.0000
  O   O92       1.0  0.67088  0.35402  0.8622299999999999  1.0000
  O   O93       1.0  0.54455  0.37847  0.87604  1.0000
  O   O94       1.0  0.5825699999999999  0.33053  0.89622  1.0000
  O   O95       1.0  0.39868999999999993  0.59447  0.00433  1.0000
  O   O96       1.0  0.28474  0.52669  0.01307  1.0000
  O   O97       1.0  0.6178200000000001  0.44169  0.8398799999999998  1.0000
  O   O98       1.0  0.7378899999999999  0.50253  0.84247  1.0000
  O   O99       1.0  0.41539  0.68767  0.7282  1.0000
  O   O100      1.0  0.44544999999999996  0.63895  0.70655  1.0000
  O   O101      1.0  0.51845  0.27465  0.84337  1.0000
  O   O102      1.0  0.58676  0.22386000000000003  0.83962  1.0000
  O   O103      1.0  0.31480999999999987  0.75321  0.7272599999999999  1.0000
  O   O104      1.0  0.34852  0.83006  0.70499  1.0000
  O   O105      1.0  0.6831  0.32902  0.19556  1.0000
  O   O106      1.0  0.83399  0.4553499999999999  0.20934  1.0000
  O   O107      1.0  0.7480599999999997  0.41748  0.22952999999999998  1.0000
  O   O108      1.0  0.195  0.60093  0.33770999999999995  1.0000
  O   O109      1.0  0.24486999999999998  0.71741  0.34476  1.0000
  O   O110      1.0  0.82385  0.38209  0.17321999999999996  1.0000
  O   O111      1.0  0.7646999999999999  0.262  0.17580999999999997  1.0000
  O   O112      1.0  0.27225000000000005  0.58462  0.06153  1.0000
  O   O113      1.0  0.19338  0.55466  0.03991  1.0000
  O   O114      1.0  0.7562899999999999  0.48163999999999996  0.17669  1.0000
  O   O115      1.0  0.63713  0.41366  0.17307  1.0000
  O   O116      1.0  0.43836  0.68504  0.0606  1.0000
  O   O117      1.0  0.48145999999999994  0.65142  0.038299999999999994  1.0000
  O   O118      1.0  0.35462999999999995  0.68445  0.02859  1.0000
  O   O119      1.0  0.38125  0.83588  0.04238999999999999  1.0000
  O   O120      1.0  0.33207  0.749  0.0624  1.0000
  O   O121      1.0  0.59559  0.19615  0.17059999999999997  1.0000
  O   O122      1.0  0.52755  0.24339  0.17847  1.0000
  O   O123      1.0  0.44239999999999996  0.82407  0.006109999999999999  1.0000
  O   O124      1.0  0.5024  0.76391  0.00877  1.0000
  O   O125      1.0  0.68811  0.27277  0.89525  1.0000
  O   O126      1.0  0.63936  0.19417  0.8735399999999999  1.0000
  O   O127      1.0  0.27429  0.75602  0.010389999999999996  1.0000
  O   O128      1.0  0.22524999999999992  0.63734  0.00598  1.0000
  O   O129      1.0  0.7514299999999999  0.43926000000000004  0.89433  1.0000
  O   O130      1.0  0.82808  0.47928999999999994  0.8719899999999999  1.0000
  O   O131      1.0  0.32935  0.64558  0.36193  1.0000
  O   O132      1.0  0.45451  0.61904  0.37569  1.0000
  O   O133      1.0  0.41679999999999995  0.66788  0.39575999999999995  1.0000
  O   O134      1.0  0.60071  0.40434  0.50393  1.0000
  O   O135      1.0  0.71591  0.47248999999999997  0.51182  1.0000
  O   O136      1.0  0.38159999999999994  0.5579  0.33949  1.0000
  O   O137      1.0  0.26141999999999993  0.49765  0.34209  1.0000
  O   O138      1.0  0.58469  0.31192  0.22859  1.0000
  O   O139      1.0  0.55472  0.36049  0.20686  1.0000
  O   O140      1.0  0.48245999999999994  0.72579  0.3437  1.0000
  O   O141      1.0  0.4126499999999999  0.77452  0.3393499999999999  1.0000
  O   O142      1.0  0.6877200000000001  0.24852000000000002  0.22765999999999997  1.0000
  O   O143      1.0  0.65136  0.17187  0.20532  1.0000
  O   O144      1.0  0.31584  0.67048  0.6952499999999999  1.0000
  O   O145      1.0  0.16433  0.54552  0.7090399999999998  1.0000
  O   O146      1.0  0.25119  0.58279  0.72904  1.0000
  O   O147      1.0  0.8036999999999999  0.39934  0.8372399999999999  1.0000
  O   O148      1.0  0.75682  0.2842  0.84518  1.0000
  O   O149      1.0  0.17608  0.61849  0.67278  1.0000
  O   O150      1.0  0.2361  0.73866  0.6754199999999999  1.0000
  O   O151      1.0  0.72723  0.41524  0.56192  1.0000
  O   O152      1.0  0.8058  0.4452999999999999  0.54019  1.0000
  O   O153      1.0  0.24413999999999997  0.51828  0.67708  1.0000
  O   O154      1.0  0.36271  0.58813  0.67266  1.0000
  O   O155      1.0  0.5607599999999999  0.31224  0.56101  1.0000
  O   O156      1.0  0.5207  0.34876  0.53865  1.0000
