data_image0
_chemical_formula_structural       Cd18H144C336O96
_chemical_formula_sum              "Cd18 H144 C336 O96"
_cell_length_a       26.83698
_cell_length_b       26.83541
_cell_length_c       27.63477
_cell_angle_alpha    60.97053
_cell_angle_beta     60.96231000000001
_cell_angle_gamma    60.03242000000001

_space_group_name_H-M_alt    "P 1"
_space_group_IT_number       1

loop_
  _space_group_symop_operation_xyz
  'x, y, z'

loop_
  _atom_site_type_symbol
  _atom_site_label
  _atom_site_symmetry_multiplicity
  _atom_site_fract_x
  _atom_site_fract_y
  _atom_site_fract_z
  _atom_site_occupancy
  Cd  Cd1       1.0  0.93907  0.4721  0.16035  1.0000
  Cd  Cd2       1.0  0.4720099999999999  0.42876  0.16036  1.0000
  Cd  Cd3       1.0  0.42874000000000007  0.93903  0.16025  1.0000
  Cd  Cd4       1.0  0.07137  0.02804000000000002  0.33962999999999993  1.0000
  Cd  Cd5       1.0  0.5610099999999999  0.07122  0.33962  1.0000
  Cd  Cd6       1.0  0.0281000000000001  0.56082  0.33961  1.0000
  Cd  Cd7       1.0  0.06089000000000006  0.52789  0.83972  1.0000
  Cd  Cd8       1.0  0.5279899999999998  0.57128  0.83968  1.0000
  Cd  Cd9       1.0  0.5712699999999998  0.061000000000000075  0.8396699999999998  1.0000
  Cd  Cd10      1.0  0.9286800000000001  0.9719199999999998  0.6604299999999999  1.0000
  Cd  Cd11      1.0  0.43895  0.92879  0.66036  1.0000
  Cd  Cd12      1.0  0.9719500000000001  0.4392400000000001  0.6603699999999999  1.0000
  Cd  Cd13      1.0  3.0000000000029095e-05  0.49988999999999995  4.999999999999999e-05  1.0000
  Cd  Cd14      1.0  0.49996000000000007  0.4999999999999999  4e-05  1.0000
  Cd  Cd15      1.0  0.49997  2e-05  1e-05  1.0000
  Cd  Cd16      1.0  0.9999599999999998  2.999999999999021e-05  0.50002  1.0000
  Cd  Cd17      1.0  0.49997  4.000000000002515e-05  0.4999899999999999  1.0000
  Cd  Cd18      1.0  0.9999800000000001  0.50004  0.49997  1.0000
  H   H1        1.0  0.91251  0.33610999999999996  0.3543299999999999  1.0000
  H   H2        1.0  0.9642899999999999  0.47912999999999994  0.32263  1.0000
  H   H3        1.0  0.9579600000000001  0.44178000000000006  0.4252999999999999  1.0000
  H   H4        1.0  0.9405800000000003  0.419  0.50817  1.0000
  H   H5        1.0  0.9214900000000001  0.16740999999999998  0.60083  1.0000
  H   H6        1.0  0.9133600000000001  0.21999000000000002  0.63621  1.0000
  H   H7        1.0  0.9282600000000001  0.2775399999999999  0.67295  1.0000
  H   H8        1.0  0.88773  0.16114  0.46849999999999997  1.0000
  H   H9        1.0  0.88884  0.2652  0.40871999999999997  1.0000
  H   H10       1.0  0.16587  0.42941999999999997  0.09501  1.0000
  H   H11       1.0  0.23209000000000005  0.22338999999999998  0.08848  1.0000
  H   H12       1.0  0.13222  0.29751  0.08126  1.0000
  H   H13       1.0  0.3361000000000001  0.3971499999999999  0.35423  1.0000
  H   H14       1.0  0.47880000000000006  0.23413999999999993  0.32238  1.0000
  H   H15       1.0  0.44185  0.17513999999999996  0.42516  1.0000
  H   H16       1.0  0.41904  0.1324  0.50792  1.0000
  H   H17       1.0  0.16751000000000008  0.31038999999999994  0.6008499999999999  1.0000
  H   H18       1.0  0.22019999999999998  0.23050000000000004  0.63616  1.0000
  H   H19       1.0  0.27751000000000003  0.12147  0.6728099999999999  1.0000
  H   H20       1.0  0.16090000000000004  0.48251999999999995  0.4683399999999999  1.0000
  H   H21       1.0  0.2650100000000001  0.4372899999999999  0.4086  1.0000
  H   H22       1.0  0.42953999999999976  0.30978  0.09476999999999998  1.0000
  H   H23       1.0  0.22321000000000005  0.45599999999999996  0.08882  1.0000
  H   H24       1.0  0.29753000000000007  0.4888599999999999  0.08163  1.0000
  H   H25       1.0  0.39702000000000004  0.9125  0.35413  1.0000
  H   H26       1.0  0.23384000000000016  0.9644999999999998  0.32247999999999993  1.0000
  H   H27       1.0  0.17493000000000022  0.9578399999999998  0.4252699999999999  1.0000
  H   H28       1.0  0.1321800000000002  0.9407399999999999  0.5080399999999999  1.0000
  H   H29       1.0  0.31037000000000003  0.92082  0.601  1.0000
  H   H30       1.0  0.23054999999999995  0.9130099999999998  0.63621  1.0000
  H   H31       1.0  0.12146000000000005  0.92803  0.67291  1.0000
  H   H32       1.0  0.4825800000000001  0.88819  0.46825999999999995  1.0000
  H   H33       1.0  0.43721000000000004  0.88906  0.40848999999999996  1.0000
  H   H34       1.0  0.30983999999999995  0.16602999999999998  0.09447  1.0000
  H   H35       1.0  0.45573  0.23221999999999998  0.08901  1.0000
  H   H36       1.0  0.48882  0.13238  0.08154999999999998  1.0000
  H   H37       1.0  0.10281  0.1639  0.14573  1.0000
  H   H38       1.0  0.26585  0.021330000000000002  0.17757999999999996  1.0000
  H   H39       1.0  0.32493  0.058170000000000006  0.07479  1.0000
  H   H40       1.0  0.36761000000000005  0.08089000000000002  0.99203  1.0000
  H   H41       1.0  0.18953999999999996  0.3324  0.89924  1.0000
  H   H42       1.0  0.2695100000000001  0.27981000000000006  0.8638999999999998  1.0000
  H   H43       1.0  0.3785700000000001  0.22239000000000003  0.8271799999999998  1.0000
  H   H44       1.0  0.01745  0.33897  0.03178  1.0000
  H   H45       1.0  0.06271000000000003  0.23481999999999997  0.09154999999999999  1.0000
  H   H46       1.0  0.19024999999999997  0.07054  0.40517  1.0000
  H   H47       1.0  0.04398000000000004  0.27679000000000004  0.4111999999999999  1.0000
  H   H48       1.0  0.011139999999999976  0.20243000000000003  0.41848  1.0000
  H   H49       1.0  0.58772  0.10303  0.14565  1.0000
  H   H50       1.0  0.5356799999999999  0.26606  0.17742999999999998  1.0000
  H   H51       1.0  0.5421000000000002  0.3250999999999999  0.07473  1.0000
  H   H52       1.0  0.5592699999999999  0.3678  0.99197  1.0000
  H   H53       1.0  0.5791900000000001  0.18961  0.89895  1.0000
  H   H54       1.0  0.58693  0.26949  0.86379  1.0000
  H   H55       1.0  0.5719699999999999  0.37847  0.82713  1.0000
  H   H56       1.0  0.61185  0.01748  0.03162  1.0000
  H   H57       1.0  0.6109600000000001  0.06283  0.09143999999999998  1.0000
  H   H58       1.0  0.33399  0.19023999999999996  0.40544  1.0000
  H   H59       1.0  0.2678200000000001  0.044250000000000005  0.41102  1.0000
  H   H60       1.0  0.36769  0.011259999999999994  0.41833  1.0000
  H   H61       1.0  0.16398000000000001  0.58756  0.14561  1.0000
  H   H62       1.0  0.02091999999999998  0.53574  0.17736  1.0000
  H   H63       1.0  0.058210000000000005  0.54206  0.07469  1.0000
  H   H64       1.0  0.08102000000000002  0.5593400000000001  0.9918999999999999  1.0000
  H   H65       1.0  0.33267000000000013  0.57866  0.89908  1.0000
  H   H66       1.0  0.2801199999999999  0.58658  0.86375  1.0000
  H   H67       1.0  0.22251000000000018  0.5716999999999998  0.8270599999999999  1.0000
  H   H68       1.0  0.33893000000000006  0.6121899999999999  0.0316  1.0000
  H   H69       1.0  0.23480000000000004  0.61105  0.09136999999999998  1.0000
  H   H70       1.0  0.07054000000000005  0.33433  0.40478  1.0000
  H   H71       1.0  0.27662  0.26793  0.41154  1.0000
  H   H72       1.0  0.20249  0.36785  0.41873  1.0000
  H   H73       1.0  0.08772999999999997  0.6637799999999999  0.64563  1.0000
  H   H74       1.0  0.03571000000000006  0.5209099999999999  0.67733  1.0000
  H   H75       1.0  0.04202000000000016  0.5583099999999998  0.57466  1.0000
  H   H76       1.0  0.05938000000000001  0.5810499999999998  0.49185  1.0000
  H   H77       1.0  0.0785000000000001  0.8325999999999998  0.3992299999999999  1.0000
  H   H78       1.0  0.08664000000000002  0.7800299999999999  0.36373  1.0000
  H   H79       1.0  0.07169000000000007  0.72251  0.32703  1.0000
  H   H80       1.0  0.11221000000000021  0.8389099999999995  0.53154  1.0000
  H   H81       1.0  0.11117000000000005  0.73482  0.5912599999999999  1.0000
  H   H82       1.0  0.8343400000000001  0.5705399999999999  0.90479  1.0000
  H   H83       1.0  0.7679999999999999  0.7765299999999998  0.91152  1.0000
  H   H84       1.0  0.8678799999999999  0.7024  0.9187699999999999  1.0000
  H   H85       1.0  0.6638600000000004  0.60284  0.64581  1.0000
  H   H86       1.0  0.5212699999999997  0.76586  0.67766  1.0000
  H   H87       1.0  0.5581  0.82489  0.57489  1.0000
  H   H88       1.0  0.5809700000000001  0.86764  0.49205  1.0000
  H   H89       1.0  0.8324799999999997  0.6895799999999999  0.39916999999999997  1.0000
  H   H90       1.0  0.77979  0.76953  0.36389999999999995  1.0000
  H   H91       1.0  0.7224800000000002  0.87854  0.32724  1.0000
  H   H92       1.0  0.83905  0.5174500000000001  0.53175  1.0000
  H   H93       1.0  0.7348800000000002  0.5627199999999998  0.59145  1.0000
  H   H94       1.0  0.5705  0.6901599999999999  0.90523  1.0000
  H   H95       1.0  0.77684  0.5439600000000001  0.91121  1.0000
  H   H96       1.0  0.7024500000000002  0.5111199999999998  0.91848  1.0000
  H   H97       1.0  0.60296  0.08747000000000002  0.64584  1.0000
  H   H98       1.0  0.76614  0.035540000000000016  0.6775  1.0000
  H   H99       1.0  0.82509  0.042109999999999995  0.57473  1.0000
  H   H100      1.0  0.86779  0.05925999999999999  0.49195999999999995  1.0000
  H   H101      1.0  0.68952  0.07923  0.39896999999999994  1.0000
  H   H102      1.0  0.76948  0.08698  0.36375  1.0000
  H   H103      1.0  0.87855  0.07197  0.32709  1.0000
  H   H104      1.0  0.5173900000000002  0.11184  0.53174  1.0000
  H   H105      1.0  0.5627799999999998  0.11095999999999998  0.59148  1.0000
  H   H106      1.0  0.6902499999999997  0.8339099999999999  0.90545  1.0000
  H   H107      1.0  0.5442600000000002  0.7677399999999998  0.91101  1.0000
  H   H108      1.0  0.51116  0.8676  0.91849  1.0000
  H   H109      1.0  0.89721  0.8360599999999999  0.85427  1.0000
  H   H110      1.0  0.7341699999999999  0.9787000000000001  0.8223999999999998  1.0000
  H   H111      1.0  0.6750700000000003  0.94184  0.9252299999999999  1.0000
  H   H112      1.0  0.63241  0.9191  0.00794  1.0000
  H   H113      1.0  0.8103400000000003  0.6676099999999998  0.10080999999999998  1.0000
  H   H114      1.0  0.7304800000000001  0.72023  0.13612999999999997  1.0000
  H   H115      1.0  0.62143  0.77762  0.17280999999999996  1.0000
  H   H116      1.0  0.9825500000000001  0.66096  0.9683  1.0000
  H   H117      1.0  0.9372700000000003  0.76509  0.9085199999999998  1.0000
  H   H118      1.0  0.8097600000000001  0.9295  0.5948  1.0000
  H   H119      1.0  0.956  0.72322  0.58879  1.0000
  H   H120      1.0  0.98888  0.7975300000000001  0.5815399999999998  1.0000
  H   H121      1.0  0.4123899999999998  0.89697  0.85429  1.0000
  H   H122      1.0  0.4644300000000003  0.7338699999999998  0.82251  1.0000
  H   H123      1.0  0.45786000000000016  0.6749200000000001  0.9252499999999998  1.0000
  H   H124      1.0  0.44076  0.63221  0.00799  1.0000
  H   H125      1.0  0.4207900000000001  0.8104099999999999  0.10105  1.0000
  H   H126      1.0  0.41306000000000004  0.73051  0.1362  1.0000
  H   H127      1.0  0.42804000000000003  0.6214599999999999  0.17286  1.0000
  H   H128      1.0  0.38821  0.98246  0.96836  1.0000
  H   H129      1.0  0.38905000000000023  0.9371399999999999  0.9085399999999998  1.0000
  H   H130      1.0  0.6659200000000002  0.8098699999999998  0.59452  1.0000
  H   H131      1.0  0.7321100000000001  0.9557499999999997  0.58909  1.0000
  H   H132      1.0  0.6322300000000002  0.9888399999999998  0.58172  1.0000
  H   H133      1.0  0.8359499999999999  0.4128100000000002  0.8542399999999999  1.0000
  H   H134      1.0  0.9789700000000001  0.46450999999999987  0.82254  1.0000
  H   H135      1.0  0.9419099999999999  0.45785  0.9253  1.0000
  H   H136      1.0  0.9190200000000003  0.4406199999999999  0.00819  1.0000
  H   H137      1.0  0.6674300000000001  0.42140999999999995  0.10085  1.0000
  H   H138      1.0  0.7199  0.41341  0.13617  1.0000
  H   H139      1.0  0.7774699999999999  0.42826  0.17294  1.0000
  H   H140      1.0  0.66117  0.38767  0.96845  1.0000
  H   H141      1.0  0.7652300000000001  0.38894  0.9086099999999999  1.0000
  H   H142      1.0  0.9294100000000001  0.66587  0.59494  1.0000
  H   H143      1.0  0.7231900000000002  0.7322399999999999  0.58853  1.0000
  H   H144      1.0  0.7973300000000001  0.63236  0.58125  1.0000
  C   C1        1.0  0.9402999999999999  0.43189  0.27145  1.0000
  C   C2        1.0  0.9187799999999999  0.33441  0.43092  1.0000
  C   C3        1.0  0.9213600000000001  0.35809  0.37209999999999993  1.0000
  C   C4        1.0  0.9509800000000002  0.4394599999999998  0.35317  1.0000
  C   C5        1.0  0.94743  0.4177899999999999  0.41118999999999994  1.0000
  C   C6        1.0  0.9374500000000002  0.40948  0.33348999999999995  1.0000
  C   C7        1.0  0.9081300000000001  0.27721999999999997  0.4694199999999999  1.0000
  C   C8        1.0  0.9145400000000001  0.25042  0.52603  1.0000
  C   C9        1.0  0.9298700000000001  0.34196  0.5115899999999999  1.0000
  C   C10       1.0  0.9366199999999999  0.37438  0.53465  1.0000
  C   C11       1.0  0.9315200000000001  0.3654499999999999  0.45122  1.0000
  C   C12       1.0  0.9221099999999999  0.2845  0.54852  1.0000
  C   C13       1.0  0.9138799999999999  0.19073  0.55879  1.0000
  C   C14       1.0  0.9371899999999999  0.3509999999999999  0.59165  1.0000
  C   C15       1.0  0.9209999999999998  0.26260999999999995  0.6069  1.0000
  C   C16       1.0  0.9288199999999998  0.29462  0.62813  1.0000
  C   C17       1.0  0.90542  0.15851999999999997  0.53797  1.0000
  C   C18       1.0  0.89494  0.18657999999999997  0.4839899999999999  1.0000
  C   C19       1.0  0.89591  0.24496000000000007  0.45076999999999995  1.0000
  C   C20       1.0  0.08243000000000007  0.4133099999999999  0.08309  1.0000
  C   C21       1.0  0.90941  0.09385999999999997  0.57207  1.0000
  C   C22       1.0  0.9472299999999998  0.38377  0.61533  1.0000
  C   C23       1.0  0.14336000000000002  0.3680099999999999  0.08822  1.0000
  C   C24       1.0  0.24173000000000003  0.34431999999999996  0.09272  1.0000
  C   C25       1.0  0.2603800000000001  0.28432  0.09210999999999998  1.0000
  C   C26       1.0  0.18227  0.38432  0.09267  1.0000
  C   C27       1.0  0.21918000000000004  0.26839  0.08929  1.0000
  C   C28       1.0  0.16234000000000007  0.30961999999999995  0.08592  1.0000
  C   C29       1.0  0.4318400000000001  0.35645  0.27133  1.0000
  C   C30       1.0  0.33444  0.31603  0.43082999999999994  1.0000
  C   C31       1.0  0.35802000000000006  0.34857  0.37198  1.0000
  C   C32       1.0  0.43925000000000003  0.25653000000000004  0.3529899999999999  1.0000
  C   C33       1.0  0.41775999999999996  0.22374  0.41102  1.0000
  C   C34       1.0  0.40929  0.3197199999999999  0.33333  1.0000
  C   C35       1.0  0.27726  0.34535  0.46935999999999994  1.0000
  C   C36       1.0  0.25045000000000023  0.30916999999999994  0.5259599999999999  1.0000
  C   C37       1.0  0.3420299999999997  0.21674  0.51144  1.0000
  C   C38       1.0  0.37447  0.15449999999999997  0.5344499999999999  1.0000
  C   C39       1.0  0.36552000000000007  0.2519299999999999  0.4511  1.0000
  C   C40       1.0  0.28459000000000007  0.24502999999999991  0.54839  1.0000
  C   C41       1.0  0.19078999999999996  0.3367  0.5587799999999999  1.0000
  C   C42       1.0  0.35100999999999993  0.12032000000000001  0.59149  1.0000
  C   C43       1.0  0.26276  0.20965000000000003  0.60677  1.0000
  C   C44       1.0  0.29468  0.14860000000000007  0.6279499999999999  1.0000
  C   C45       1.0  0.15841000000000008  0.3981499999999999  0.53801  1.0000
  C   C46       1.0  0.18643  0.43446  0.48391999999999996  1.0000
  C   C47       1.0  0.24485000000000004  0.40842  0.45069  1.0000
  C   C48       1.0  0.41334  0.4212  0.083  1.0000
  C   C49       1.0  0.09380000000000004  0.4247399999999999  0.57227  1.0000
  C   C50       1.0  0.38371000000000005  0.05391  0.61523  1.0000
  C   C51       1.0  0.36803  0.4003  0.08829  1.0000
  C   C52       1.0  0.34422  0.32128  0.09272  1.0000
  C   C53       1.0  0.28414  0.36325  0.09221  1.0000
  C   C54       1.0  0.38437  0.3407399999999999  0.0926  1.0000
  C   C55       1.0  0.26823  0.42314999999999997  0.08950999999999998  1.0000
  C   C56       1.0  0.30959000000000003  0.44203999999999993  0.08609  1.0000
  C   C57       1.0  0.35617  0.94047  0.27123  1.0000
  C   C58       1.0  0.3158700000000001  0.9187999999999998  0.43074  1.0000
  C   C59       1.0  0.3483800000000002  0.9215399999999998  0.3718699999999999  1.0000
  C   C60       1.0  0.25628000000000006  0.9512599999999998  0.35297999999999996  1.0000
  C   C61       1.0  0.22354000000000027  0.9475299999999999  0.41104  1.0000
  C   C62       1.0  0.3194699999999999  0.9377  0.33326  1.0000
  C   C63       1.0  0.3452599999999999  0.90807  0.46927  1.0000
  C   C64       1.0  0.30910000000000004  0.9142599999999999  0.5259899999999998  1.0000
  C   C65       1.0  0.21663000000000016  0.9297199999999999  0.51149  1.0000
  C   C66       1.0  0.15436999999999998  0.93659  0.53452  1.0000
  C   C67       1.0  0.2517900000000001  0.9314799999999998  0.45107  1.0000
  C   C68       1.0  0.24496000000000012  0.9218399999999998  0.54845  1.0000
  C   C69       1.0  0.3367000000000001  0.9135299999999998  0.5588  1.0000
  C   C70       1.0  0.12025000000000007  0.9370899999999999  0.59159  1.0000
  C   C71       1.0  0.20963  0.9207  0.60686  1.0000
  C   C72       1.0  0.14858000000000002  0.92857  0.62808  1.0000
  C   C73       1.0  0.39810000000000006  0.9054399999999999  0.5379  1.0000
  C   C74       1.0  0.43445000000000017  0.8952499999999998  0.4837499999999999  1.0000
  C   C75       1.0  0.40835000000000005  0.89609  0.45057  1.0000
  C   C76       1.0  0.4212400000000001  0.08266999999999997  0.08288  1.0000
  C   C77       1.0  0.42467  0.9095  0.57202  1.0000
  C   C78       1.0  0.05378999999999998  0.9472  0.61527  1.0000
  C   C79       1.0  0.40031  0.14363000000000004  0.08808  1.0000
  C   C80       1.0  0.32116  0.24193  0.09259  1.0000
  C   C81       1.0  0.36307  0.26054  0.09222  1.0000
  C   C82       1.0  0.3406900000000001  0.18249999999999997  0.09241999999999999  1.0000
  C   C83       1.0  0.423  0.2193  0.08955  1.0000
  C   C84       1.0  0.44200000000000006  0.16256  0.08599  1.0000
  C   C85       1.0  0.14357  0.06814000000000002  0.22866999999999998  1.0000
  C   C86       1.0  0.18396  0.16548999999999997  0.06922999999999999  1.0000
  C   C87       1.0  0.1514  0.14197000000000004  0.12808  1.0000
  C   C88       1.0  0.24348000000000003  0.06082000000000001  0.14696999999999996  1.0000
  C   C89       1.0  0.27632000000000007  0.08226  0.08894  1.0000
  C   C90       1.0  0.18026999999999999  0.09074  0.16668  1.0000
  C   C91       1.0  0.15459  0.22265  0.03074  1.0000
  C   C92       1.0  0.1907600000000001  0.24947000000000003  0.9741499999999998  1.0000
  C   C93       1.0  0.28324999999999995  0.15794  0.98856  1.0000
  C   C94       1.0  0.34552000000000005  0.12549  0.96554  1.0000
  C   C95       1.0  0.24808000000000002  0.13445999999999997  0.0489  1.0000
  C   C96       1.0  0.25493999999999994  0.21537  0.95165  1.0000
  C   C97       1.0  0.16326000000000007  0.3091299999999999  0.94135  1.0000
  C   C98       1.0  0.3797100000000001  0.1489  0.9084999999999999  1.0000
  C   C99       1.0  0.29035  0.23723  0.8932899999999999  1.0000
  C   C100      1.0  0.35141000000000006  0.20526  0.87206  1.0000
  C   C101      1.0  0.10182000000000002  0.34149  0.96207  1.0000
  C   C102      1.0  0.06551000000000004  0.31345999999999996  0.01618  1.0000
  C   C103      1.0  0.09152  0.25505  0.04942  1.0000
  C   C104      1.0  0.07879000000000005  0.08670999999999998  0.41701999999999995  1.0000
  C   C105      1.0  0.07517000000000001  0.40609999999999996  0.92788  1.0000
  C   C106      1.0  0.44615  0.11613999999999997  0.8848  1.0000
  C   C107      1.0  0.09969000000000007  0.13200999999999996  0.41170999999999996  1.0000
  C   C108      1.0  0.17875999999999997  0.15583000000000002  0.40719999999999995  1.0000
  C   C109      1.0  0.13683000000000006  0.21589999999999995  0.40768  1.0000
  C   C110      1.0  0.15927  0.11568999999999996  0.4074  1.0000
  C   C111      1.0  0.07687999999999996  0.23179  0.41046  1.0000
  C   C112      1.0  0.05795000000000002  0.19043999999999997  0.41395  1.0000
  C   C113      1.0  0.5597100000000002  0.14376  0.22868999999999998  1.0000
  C   C114      1.0  0.58126  0.18418999999999996  0.06915999999999999  1.0000
  C   C115      1.0  0.5787100000000002  0.15163  0.12794999999999998  1.0000
  C   C116      1.0  0.54901  0.24362  0.14692  1.0000
  C   C117      1.0  0.55252  0.27649  0.08889999999999999  1.0000
  C   C118      1.0  0.56256  0.18046999999999996  0.16664  1.0000
  C   C119      1.0  0.59196  0.15473  0.030679999999999995  1.0000
  C   C120      1.0  0.5857400000000001  0.19086000000000003  0.9739899999999999  1.0000
  C   C121      1.0  0.5702599999999999  0.2833699999999999  0.98848  1.0000
  C   C122      1.0  0.5634000000000001  0.34563  0.9654699999999999  1.0000
  C   C123      1.0  0.56849  0.24825  0.04886  1.0000
  C   C124      1.0  0.57817  0.25498  0.9515399999999998  1.0000
  C   C125      1.0  0.5863899999999997  0.16330999999999998  0.94116  1.0000
  C   C126      1.0  0.56287  0.37976999999999994  0.9084399999999999  1.0000
  C   C127      1.0  0.5792400000000002  0.29037  0.89317  1.0000
  C   C128      1.0  0.57138  0.3513899999999999  0.87198  1.0000
  C   C129      1.0  0.59452  0.10192999999999999  0.96199  1.0000
  C   C130      1.0  0.60481  0.06558  0.0161  1.0000
  C   C131      1.0  0.60392  0.09167  0.04936  1.0000
  C   C132      1.0  0.41739999999999994  0.07872  0.41708  1.0000
  C   C133      1.0  0.59044  0.07538999999999998  0.92786  1.0000
  C   C134      1.0  0.55273  0.44623  0.8848  1.0000
  C   C135      1.0  0.35645000000000004  0.09969000000000001  0.41187  1.0000
  C   C136      1.0  0.2581200000000002  0.17886999999999992  0.40738  1.0000
  C   C137      1.0  0.23951000000000006  0.13698  0.4077199999999999  1.0000
  C   C138      1.0  0.3175400000000002  0.1593  0.40762  1.0000
  C   C139      1.0  0.28072  0.07707000000000003  0.41039999999999993  1.0000
  C   C140      1.0  0.33748  0.05807  0.41393  1.0000
  C   C141      1.0  0.06816999999999997  0.55975  0.22856999999999997  1.0000
  C   C142      1.0  0.16555000000000006  0.5812499999999999  0.06911  1.0000
  C   C143      1.0  0.14194000000000007  0.57863  0.12796  1.0000
  C   C144      1.0  0.060560000000000044  0.54907  0.14685  1.0000
  C   C145      1.0  0.08222999999999998  0.55254  0.08882999999999999  1.0000
  C   C146      1.0  0.09056000000000004  0.5625799999999999  0.16656  1.0000
  C   C147      1.0  0.2227500000000001  0.5919099999999999  0.030599999999999995  1.0000
  C   C148      1.0  0.24964000000000006  0.5854799999999999  0.9739699999999999  1.0000
  C   C149      1.0  0.1581000000000002  0.5700899999999999  0.9884099999999999  1.0000
  C   C150      1.0  0.12562000000000004  0.56334  0.96539  1.0000
  C   C151      1.0  0.1345300000000001  0.5684499999999999  0.048799999999999996  1.0000
  C   C152      1.0  0.21555000000000007  0.57787  0.9514799999999999  1.0000
  C   C153      1.0  0.3093099999999999  0.58616  0.9411899999999999  1.0000
  C   C154      1.0  0.14904000000000012  0.5627699999999998  0.9083399999999999  1.0000
  C   C155      1.0  0.23748  0.5789499999999997  0.89309  1.0000
  C   C156      1.0  0.2054300000000001  0.5711099999999999  0.87191  1.0000
  C   C157      1.0  0.3415499999999999  0.59462  0.96201  1.0000
  C   C158      1.0  0.31348  0.605  0.01609  1.0000
  C   C159      1.0  0.25509  0.60405  0.049269999999999994  1.0000
  C   C160      1.0  0.08671999999999999  0.4176300000000001  0.41675999999999996  1.0000
  C   C161      1.0  0.40618000000000004  0.5907399999999998  0.92784  1.0000
  C   C162      1.0  0.11626999999999996  0.55279  0.88461  1.0000
  C   C163      1.0  0.13197  0.35667  0.41167  1.0000
  C   C164      1.0  0.15572000000000014  0.2583  0.40718999999999994  1.0000
  C   C165      1.0  0.21574999999999997  0.23969000000000004  0.4077899999999999  1.0000
  C   C166      1.0  0.1156  0.31776  0.40732  1.0000
  C   C167      1.0  0.23163000000000009  0.2809  0.41071999999999986  1.0000
  C   C168      1.0  0.19035000000000005  0.3377399999999999  0.41405  1.0000
  C   C169      1.0  0.05974999999999992  0.56817  0.7285  1.0000
  C   C170      1.0  0.08131000000000004  0.66559  0.5690499999999998  1.0000
  C   C171      1.0  0.07877000000000006  0.64189  0.62786  1.0000
  C   C172      1.0  0.04904999999999988  0.5605700000000001  0.6468  1.0000
  C   C173      1.0  0.05256999999999999  0.58227  0.58878  1.0000
  C   C174      1.0  0.06263999999999999  0.59052  0.66646  1.0000
  C   C175      1.0  0.09194999999999998  0.72279  0.53055  1.0000
  C   C176      1.0  0.08548  0.7496  0.47397  1.0000
  C   C177      1.0  0.07012999999999996  0.65809  0.4884  1.0000
  C   C178      1.0  0.06338000000000006  0.62565  0.46534999999999993  1.0000
  C   C179      1.0  0.06849000000000013  0.6345899999999998  0.54876  1.0000
  C   C180      1.0  0.07787999999999994  0.71555  0.45146  1.0000
  C   C181      1.0  0.08612000000000007  0.80928  0.4412499999999999  1.0000
  C   C182      1.0  0.06281000000000014  0.6490599999999999  0.4083099999999999  1.0000
  C   C183      1.0  0.07899000000000006  0.7374299999999998  0.39308  1.0000
  C   C184      1.0  0.07117000000000007  0.70542  0.3718599999999999  1.0000
  C   C185      1.0  0.09453999999999999  0.84155  0.46203  1.0000
  C   C186      1.0  0.10501000000000005  0.81349  0.51603  1.0000
  C   C187      1.0  0.10413000000000001  0.7550599999999998  0.5492  1.0000
  C   C188      1.0  0.91762  0.58676  0.9167299999999998  1.0000
  C   C189      1.0  0.09059000000000007  0.9061999999999999  0.42788  1.0000
  C   C190      1.0  0.05281000000000006  0.61633  0.38456999999999997  1.0000
  C   C191      1.0  0.8566599999999998  0.6319900000000002  0.9116999999999998  1.0000
  C   C192      1.0  0.7583200000000001  0.6556399999999998  0.90722  1.0000
  C   C193      1.0  0.7397000000000001  0.7156600000000001  0.9077899999999998  1.0000
  C   C194      1.0  0.8177700000000001  0.61563  0.90729  1.0000
  C   C195      1.0  0.78088  0.7315399999999999  0.9107199999999998  1.0000
  C   C196      1.0  0.83772  0.6903100000000001  0.9141299999999998  1.0000
  C   C197      1.0  0.5681100000000002  0.6436199999999999  0.7287099999999997  1.0000
  C   C198      1.0  0.6655000000000004  0.68398  0.56918  1.0000
  C   C199      1.0  0.6419300000000004  0.65144  0.62805  1.0000
  C   C200      1.0  0.5607799999999998  0.74351  0.6470199999999999  1.0000
  C   C201      1.0  0.5822000000000003  0.7762899999999999  0.5889799999999998  1.0000
  C   C202      1.0  0.59073  0.68029  0.6667  1.0000
  C   C203      1.0  0.72268  0.65468  0.53065  1.0000
  C   C204      1.0  0.7494700000000001  0.6908599999999999  0.47404  1.0000
  C   C205      1.0  0.6579399999999999  0.7832900000000003  0.4885599999999999  1.0000
  C   C206      1.0  0.6255199999999999  0.84553  0.46554  1.0000
  C   C207      1.0  0.6344199999999999  0.74811  0.5489  1.0000
  C   C208      1.0  0.71536  0.7550399999999999  0.4516099999999999  1.0000
  C   C209      1.0  0.8091399999999997  0.66333  0.4412599999999999  1.0000
  C   C210      1.0  0.64896  0.8797199999999998  0.40852999999999995  1.0000
  C   C211      1.0  0.7372300000000002  0.7903899999999999  0.39327  1.0000
  C   C212      1.0  0.7052799999999997  0.8514499999999999  0.37206999999999996  1.0000
  C   C213      1.0  0.8414700000000005  0.6018499999999998  0.46208  1.0000
  C   C214      1.0  0.8134700000000001  0.56551  0.5161599999999998  1.0000
  C   C215      1.0  0.75508  0.5915900000000001  0.54937  1.0000
  C   C216      1.0  0.58673  0.57871  0.9170599999999998  1.0000
  C   C217      1.0  0.90611  0.5752199999999998  0.42788999999999994  1.0000
  C   C218      1.0  0.6162500000000001  0.9461199999999997  0.38478  1.0000
  C   C219      1.0  0.6319900000000002  0.5996399999999997  0.91177  1.0000
  C   C220      1.0  0.6558300000000004  0.6787099999999999  0.9072099999999998  1.0000
  C   C221      1.0  0.7159099999999997  0.63674  0.90772  1.0000
  C   C222      1.0  0.6156799999999999  0.6592200000000001  0.9073999999999999  1.0000
  C   C223      1.0  0.7318200000000001  0.5768099999999999  0.91049  1.0000
  C   C224      1.0  0.6904300000000001  0.55793  0.9139899999999999  1.0000
  C   C225      1.0  0.6438099999999999  0.0596  0.7287  1.0000
  C   C226      1.0  0.6841300000000001  0.08120999999999995  0.56921  1.0000
  C   C227      1.0  0.65158  0.07851  0.62808  1.0000
  C   C228      1.0  0.74368  0.048809999999999985  0.64699  1.0000
  C   C229      1.0  0.77649  0.05244999999999998  0.58893  1.0000
  C   C230      1.0  0.6805100000000001  0.06237000000000003  0.66667  1.0000
  C   C231      1.0  0.6547200000000001  0.09192999999999997  0.5307  1.0000
  C   C232      1.0  0.6908700000000001  0.08576  0.47397  1.0000
  C   C233      1.0  0.7833600000000001  0.0703  0.48846999999999996  1.0000
  C   C234      1.0  0.84562  0.06342000000000003  0.46544999999999986  1.0000
  C   C235      1.0  0.7482  0.06851999999999998  0.54889  1.0000
  C   C236      1.0  0.7550100000000001  0.07817000000000003  0.45150999999999997  1.0000
  C   C237      1.0  0.6632500000000001  0.08650000000000002  0.44116999999999995  1.0000
  C   C238      1.0  0.8797800000000001  0.06294  0.40837  1.0000
  C   C239      1.0  0.7903900000000001  0.07931000000000002  0.39310999999999996  1.0000
  C   C240      1.0  0.8514  0.07146000000000002  0.3719199999999999  1.0000
  C   C241      1.0  0.6018500000000001  0.09457999999999998  0.4621  1.0000
  C   C242      1.0  0.56549  0.10479999999999999  0.51624  1.0000
  C   C243      1.0  0.59164  0.10392000000000001  0.54942  1.0000
  C   C244      1.0  0.5787699999999999  0.9172700000000001  0.9171299999999999  1.0000
  C   C245      1.0  0.5752900000000001  0.09048  0.42801  1.0000
  C   C246      1.0  0.94625  0.052839999999999984  0.3847  1.0000
  C   C247      1.0  0.5997  0.8563300000000001  0.9119099999999999  1.0000
  C   C248      1.0  0.67889  0.7580500000000001  0.9073599999999998  1.0000
  C   C249      1.0  0.6369700000000001  0.73943  0.90774  1.0000
  C   C250      1.0  0.65933  0.81744  0.9076299999999999  1.0000
  C   C251      1.0  0.5769999999999998  0.78066  0.91047  1.0000
  C   C252      1.0  0.5580099999999999  0.8374199999999995  0.91398  1.0000
  C   C253      1.0  0.8564900000000001  0.93179  0.77133  1.0000
  C   C254      1.0  0.81603  0.83447  0.9307999999999998  1.0000
  C   C255      1.0  0.84861  0.85798  0.87193  1.0000
  C   C256      1.0  0.7565400000000001  0.9391999999999999  0.8530299999999997  1.0000
  C   C257      1.0  0.7236699999999998  0.91774  0.91105  1.0000
  C   C258      1.0  0.8197600000000004  0.9092399999999998  0.83332  1.0000
  C   C259      1.0  0.8453900000000001  0.7772999999999999  0.9693099999999999  1.0000
  C   C260      1.0  0.8092200000000003  0.75048  0.02591  1.0000
  C   C261      1.0  0.71675  0.8420399999999999  0.01146  1.0000
  C   C262      1.0  0.65449  0.8744999999999998  0.03445  1.0000
  C   C263      1.0  0.7519099999999999  0.86552  0.9511099999999999  1.0000
  C   C264      1.0  0.7450500000000002  0.7846099999999998  0.048379999999999986  1.0000
  C   C265      1.0  0.8367  0.69082  0.058709999999999984  1.0000
  C   C266      1.0  0.6202800000000002  0.8510999999999997  0.09148  1.0000
  C   C267      1.0  0.70963  0.76278  0.10673  1.0000
  C   C268      1.0  0.64856  0.7947599999999999  0.12794  1.0000
  C   C269      1.0  0.8981399999999998  0.65844  0.03797  1.0000
  C   C270      1.0  0.9344800000000002  0.6864599999999998  0.98389  1.0000
  C   C271      1.0  0.9084500000000001  0.7448700000000001  0.9506499999999999  1.0000
  C   C272      1.0  0.92123  0.91333  0.58296  1.0000
  C   C273      1.0  0.9247100000000001  0.5938199999999999  0.07218  1.0000
  C   C274      1.0  0.55385  0.88385  0.11515999999999997  1.0000
  C   C275      1.0  0.90035  0.8680199999999999  0.58828  1.0000
  C   C276      1.0  0.8212500000000004  0.8442099999999999  0.59279  1.0000
  C   C277      1.0  0.86319  0.78416  0.59224  1.0000
  C   C278      1.0  0.8407599999999996  0.8843400000000001  0.5925999999999999  1.0000
  C   C279      1.0  0.9231099999999999  0.76823  0.58953  1.0000
  C   C280      1.0  0.94205  0.8095499999999998  0.58612  1.0000
  C   C281      1.0  0.44030000000000014  0.8562499999999998  0.77129  1.0000
  C   C282      1.0  0.41878000000000004  0.8158  0.9307999999999998  1.0000
  C   C283      1.0  0.42141000000000006  0.84835  0.87198  1.0000
  C   C284      1.0  0.45109999999999983  0.75634  0.85302  1.0000
  C   C285      1.0  0.4475200000000001  0.7235299999999998  0.9110599999999999  1.0000
  C   C286      1.0  0.43753  0.81952  0.8333099999999999  1.0000
  C   C287      1.0  0.40805000000000013  0.84523  0.9693099999999999  1.0000
  C   C288      1.0  0.4142500000000002  0.8091199999999997  0.025999999999999995  1.0000
  C   C289      1.0  0.4297400000000001  0.71661  0.011519999999999999  1.0000
  C   C290      1.0  0.4366  0.65435  0.03453  1.0000
  C   C291      1.0  0.43152  0.75173  0.9511299999999999  1.0000
  C   C292      1.0  0.4218299999999999  0.74499  0.04847  1.0000
  C   C293      1.0  0.41356999999999994  0.83668  0.05883999999999999  1.0000
  C   C294      1.0  0.43715  0.62021  0.09154  1.0000
  C   C295      1.0  0.4207300000000001  0.7096099999999997  0.10683999999999999  1.0000
  C   C296      1.0  0.42863  0.64857  0.12802  1.0000
  C   C297      1.0  0.4054600000000001  0.8980599999999999  0.038  1.0000
  C   C298      1.0  0.3952100000000003  0.9343599999999997  0.9838799999999999  1.0000
  C   C299      1.0  0.39608000000000015  0.90831  0.95062  1.0000
  C   C300      1.0  0.58258  0.9212899999999999  0.58294  1.0000
  C   C301      1.0  0.40953000000000006  0.9245999999999999  0.07214  1.0000
  C   C302      1.0  0.4472600000000001  0.55377  0.1152  1.0000
  C   C303      1.0  0.6435200000000001  0.9003399999999998  0.58817  1.0000
  C   C304      1.0  0.74185  0.8211999999999999  0.59261  1.0000
  C   C305      1.0  0.76046  0.86307  0.5922999999999999  1.0000
  C   C306      1.0  0.6824200000000002  0.8407499999999998  0.5923899999999999  1.0000
  C   C307      1.0  0.7192200000000001  0.9229799999999999  0.58961  1.0000
  C   C308      1.0  0.6624600000000002  0.94201  0.58607  1.0000
  C   C309      1.0  0.93179  0.44062999999999997  0.77129  1.0000
  C   C310      1.0  0.8344400000000001  0.41890999999999995  0.93083  1.0000
  C   C311      1.0  0.8579699999999999  0.42168999999999995  0.87194  1.0000
  C   C312      1.0  0.9393500000000001  0.45116999999999996  0.85309  1.0000
  C   C313      1.0  0.9177800000000003  0.44753  0.91115  1.0000
  C   C314      1.0  0.90931  0.43781000000000003  0.83332  1.0000
  C   C315      1.0  0.7772800000000002  0.4081599999999999  0.9693299999999998  1.0000
  C   C316      1.0  0.75044  0.41456  0.02599  1.0000
  C   C317      1.0  0.8419800000000001  0.42987999999999993  0.011579999999999997  1.0000
  C   C318      1.0  0.87441  0.43662  0.034629999999999994  1.0000
  C   C319      1.0  0.8654899999999999  0.43161  0.95116  1.0000
  C   C320      1.0  0.7845200000000001  0.42210999999999993  0.04849  1.0000
  C   C321      1.0  0.69074  0.41389  0.05876  1.0000
  C   C322      1.0  0.85097  0.43718999999999997  0.09167  1.0000
  C   C323      1.0  0.7625600000000001  0.42100999999999994  0.10689  1.0000
  C   C324      1.0  0.79457  0.4288499999999999  0.12809999999999996  1.0000
  C   C325      1.0  0.65853  0.40539  0.03797  1.0000
  C   C326      1.0  0.6866100000000003  0.3949500000000001  0.9839199999999999  1.0000
  C   C327      1.0  0.7449700000000002  0.39596  0.9506899999999998  1.0000
  C   C328      1.0  0.9132699999999999  0.58256  0.58297  1.0000
  C   C329      1.0  0.5938500000000001  0.40936  0.07207  1.0000
  C   C330      1.0  0.88374  0.4471899999999999  0.11537  1.0000
  C   C331      1.0  0.8679400000000002  0.64347  0.58816  1.0000
  C   C332      1.0  0.84424  0.7417799999999999  0.59273  1.0000
  C   C333      1.0  0.7841900000000004  0.7604199999999998  0.5921499999999998  1.0000
  C   C334      1.0  0.8843100000000002  0.6823399999999997  0.59258  1.0000
  C   C335      1.0  0.7682399999999995  0.71926  0.58926  1.0000
  C   C336      1.0  0.80952  0.66245  0.58587  1.0000
  O   O1        1.0  0.9411700000000001  0.48541999999999996  0.23946999999999996  1.0000
  O   O2        1.0  0.94088  0.3970099999999999  0.25192  1.0000
  O   O3        1.0  0.04468999999999997  0.43232  0.12590999999999997  1.0000
  O   O4        1.0  0.07657000000000004  0.42795999999999995  0.03432  1.0000
  O   O5        1.0  0.94798  0.43844999999999984  0.58524  1.0000
  O   O6        1.0  0.91066  0.06264  0.54788  1.0000
  O   O7        1.0  0.91167  0.07316999999999999  0.62353  1.0000
  O   O8        1.0  0.9541100000000002  0.3572699999999999  0.6650999999999999  1.0000
  O   O9        1.0  0.48543  0.334  0.23949999999999994  1.0000
  O   O10       1.0  0.3971  0.41029  0.25168  1.0000
  O   O11       1.0  0.43245000000000017  0.3974499999999999  0.12568  1.0000
  O   O12       1.0  0.42788999999999994  0.46106  0.03407  1.0000
  O   O13       1.0  0.4383099999999998  0.02859000000000001  0.58508  1.0000
  O   O14       1.0  0.06257  0.4788799999999999  0.54814  1.0000
  O   O15       1.0  0.07317999999999995  0.39176  0.6238  1.0000
  O   O16       1.0  0.35725  0.023829999999999997  0.66509  1.0000
  O   O17       1.0  0.33361000000000013  0.9417499999999998  0.23913  1.0000
  O   O18       1.0  0.4102099999999999  0.94048  0.25185  1.0000
  O   O19       1.0  0.39762  0.04461  0.12576  1.0000
  O   O20       1.0  0.46103  0.077  0.034  1.0000
  O   O21       1.0  0.02840000000000003  0.9480799999999999  0.5851299999999999  1.0000
  O   O22       1.0  0.4788200000000002  0.9107299999999998  0.54787  1.0000
  O   O23       1.0  0.3916299999999999  0.91184  0.62346  1.0000
  O   O24       1.0  0.02368000000000004  0.95401  0.6650699999999999  1.0000
  O   O25       1.0  0.1661  0.014500000000000006  0.26037  1.0000
  O   O26       1.0  0.08977000000000004  0.10286999999999996  0.24840999999999994  1.0000
  O   O27       1.0  0.10255999999999997  0.06754999999999999  0.37434  1.0000
  O   O28       1.0  0.03895000000000004  0.07213000000000001  0.4659599999999999  1.0000
  O   O29       1.0  0.47156000000000003  0.061519999999999984  0.91491  1.0000
  O   O30       1.0  0.021069999999999957  0.43714000000000003  0.95224  1.0000
  O   O31       1.0  0.10800000000000015  0.42688999999999994  0.8763099999999998  1.0000
  O   O32       1.0  0.47623  0.14260000000000012  0.8349499999999997  1.0000
  O   O33       1.0  0.55868  0.16629  0.26066  1.0000
  O   O34       1.0  0.55937  0.0898  0.24821  1.0000
  O   O35       1.0  0.4554700000000001  0.10240000000000002  0.37426999999999994  1.0000
  O   O36       1.0  0.42297000000000007  0.03894999999999999  0.46599  1.0000
  O   O37       1.0  0.55177  0.4716600000000001  0.91493  1.0000
  O   O38       1.0  0.58919  0.021240000000000023  0.9520999999999998  1.0000
  O   O39       1.0  0.58812  0.10838999999999999  0.87641  1.0000
  O   O40       1.0  0.5459700000000001  0.4762799999999999  0.8349699999999998  1.0000
  O   O41       1.0  0.014610000000000003  0.55895  0.2605  1.0000
  O   O42       1.0  0.10307000000000004  0.55909  0.24814  1.0000
  O   O43       1.0  0.06747000000000003  0.45530999999999994  0.37408  1.0000
  O   O44       1.0  0.07244999999999997  0.42364000000000007  0.46534999999999993  1.0000
  O   O45       1.0  0.06163000000000001  0.5519100000000001  0.9147499999999997  1.0000
  O   O46       1.0  0.4374500000000001  0.5891999999999998  0.95213  1.0000
  O   O47       1.0  0.4267999999999999  0.5888600000000002  0.87623  1.0000
  O   O48       1.0  0.14270000000000005  0.54605  0.8347899999999999  1.0000
  O   O49       1.0  0.058880000000000036  0.5146199999999999  0.76052  1.0000
  O   O50       1.0  0.05911000000000008  0.60303  0.74807  1.0000
  O   O51       1.0  0.95522  0.5674400000000002  0.8740599999999997  1.0000
  O   O52       1.0  0.9237100000000001  0.5724799999999999  0.9652799999999999  1.0000
  O   O53       1.0  0.05204000000000012  0.5616599999999999  0.41473  1.0000
  O   O54       1.0  0.08928000000000007  0.93746  0.45204999999999995  1.0000
  O   O55       1.0  0.08842000000000014  0.9268399999999999  0.37638999999999995  1.0000
  O   O56       1.0  0.045970000000000046  0.64274  0.33479  1.0000
  O   O57       1.0  0.5145300000000002  0.6661000000000001  0.7605699999999997  1.0000
  O   O58       1.0  0.6028000000000002  0.5897499999999999  0.74836  1.0000
  O   O59       1.0  0.5676000000000001  0.6024699999999998  0.87439  1.0000
  O   O60       1.0  0.5722300000000001  0.53877  0.96597  1.0000
  O   O61       1.0  0.56163  0.97149  0.41487999999999997  1.0000
  O   O62       1.0  0.9372700000000003  0.52108  0.45206999999999997  1.0000
  O   O63       1.0  0.9268100000000001  0.6081599999999999  0.37637999999999994  1.0000
  O   O64       1.0  0.64272  0.9761499999999999  0.33488  1.0000
  O   O65       1.0  0.6663200000000001  0.058529999999999985  0.76071  1.0000
  O   O66       1.0  0.5898300000000001  0.059340000000000045  0.7481899999999999  1.0000
  O   O67       1.0  0.6024199999999997  0.9553200000000001  0.8742699999999998  1.0000
  O   O68       1.0  0.5390000000000001  0.92291  0.96602  1.0000
  O   O69       1.0  0.9715799999999999  0.05196000000000003  0.41487999999999997  1.0000
  O   O70       1.0  0.52113  0.08928000000000001  0.4521399999999999  1.0000
  O   O71       1.0  0.60836  0.08811000000000002  0.3766  1.0000
  O   O72       1.0  0.97638  0.04601  0.33491  1.0000
  O   O73       1.0  0.8339499999999997  0.98541  0.7396  1.0000
  O   O74       1.0  0.91033  0.89706  0.75162  1.0000
  O   O75       1.0  0.8974499999999999  0.93242  0.62569  1.0000
  O   O76       1.0  0.9610500000000001  0.92795  0.53401  1.0000
  O   O77       1.0  0.5284900000000002  0.93845  0.08503  1.0000
  O   O78       1.0  0.9788599999999998  0.56277  0.04791999999999998  1.0000
  O   O79       1.0  0.89174  0.5730799999999999  0.12369  1.0000
  O   O80       1.0  0.5237599999999998  0.85736  0.16501  1.0000
  O   O81       1.0  0.4413700000000002  0.83366  0.73933  1.0000
  O   O82       1.0  0.44050999999999996  0.91023  0.7518  1.0000
  O   O83       1.0  0.54447  0.89768  0.62574  1.0000
  O   O84       1.0  0.57706  0.96106  0.534  1.0000
  O   O85       1.0  0.4481600000000001  0.52834  0.0851  1.0000
  O   O86       1.0  0.41079999999999994  0.97874  0.04787999999999999  1.0000
  O   O87       1.0  0.4118200000000002  0.8916099999999998  0.12361  1.0000
  O   O88       1.0  0.4540199999999999  0.52374  0.16503  1.0000
  O   O89       1.0  0.9852  0.44186000000000003  0.7392899999999998  1.0000
  O   O90       1.0  0.8971500000000002  0.44071000000000005  0.75183  1.0000
  O   O91       1.0  0.9322  0.54474  0.6257999999999999  1.0000
  O   O92       1.0  0.92798  0.5768199999999998  0.5341199999999999  1.0000
  O   O93       1.0  0.93841  0.44801999999999986  0.08527999999999998  1.0000
  O   O94       1.0  0.56273  0.41068999999999994  0.04776  1.0000
  O   O95       1.0  0.5730800000000004  0.41155  0.12358999999999998  1.0000
  O   O96       1.0  0.85728  0.45401  0.16517  1.0000
