data_image0
_chemical_formula_structural       Mn24H456C408N64O72
_chemical_formula_sum              "Mn24 H456 C408 N64 O72"
_cell_length_a       17.2634
_cell_length_b       29.908209999999997
_cell_length_c       29.918700000000005
_cell_angle_alpha    85.20213000000001
_cell_angle_beta     73.22378999999998
_cell_angle_gamma    73.19448000000001

_space_group_name_H-M_alt    "P 1"
_space_group_IT_number       1

loop_
  _space_group_symop_operation_xyz
  'x, y, z'

loop_
  _atom_site_type_symbol
  _atom_site_label
  _atom_site_symmetry_multiplicity
  _atom_site_fract_x
  _atom_site_fract_y
  _atom_site_fract_z
  _atom_site_occupancy
  Mn  Mn1       1.0  0.21650999999999995  0.03777  0.3835700000000001  1.0000
  Mn  Mn2       1.0  0.29059999999999997  0.91962  0.4974500000000001  1.0000
  Mn  Mn3       1.0  0.93888  0.14391  0.41623  1.0000
  Mn  Mn4       1.0  0.63843  0.46145  0.11571000000000002  1.0000
  Mn  Mn5       1.0  0.70727  0.58042  0.0030600000000000002  1.0000
  Mn  Mn6       1.0  0.49863999999999997  0.35584999999999994  0.08381  1.0000
  Mn  Mn7       1.0  0.7551  0.38434  0.4614300000000001  1.0000
  Mn  Mn8       1.0  0.7103499999999994  0.49728  0.58044  1.0000
  Mn  Mn9       1.0  0.5826199999999997  0.41631  0.3561  1.0000
  Mn  Mn10      1.0  0.59963  0.11591  0.03852  1.0000
  Mn  Mn11      1.0  0.7878199999999999  0.0031800000000000005  0.9195700000000001  1.0000
  Mn  Mn12      1.0  0.35452999999999996  0.08343999999999999  0.14402  1.0000
  Mn  Mn13      1.0  0.7835  0.96223  0.6164300000000003  1.0000
  Mn  Mn14      1.0  0.7094100000000001  0.08038  0.50255  1.0000
  Mn  Mn15      1.0  0.06113000000000002  0.8560899999999999  0.5837700000000002  1.0000
  Mn  Mn16      1.0  0.36158  0.53855  0.88429  1.0000
  Mn  Mn17      1.0  0.29274  0.41958  0.9969300000000002  1.0000
  Mn  Mn18      1.0  0.5013700000000001  0.64415  0.91619  1.0000
  Mn  Mn19      1.0  0.24490999999999996  0.61566  0.53857  1.0000
  Mn  Mn20      1.0  0.28966  0.50272  0.41956000000000004  1.0000
  Mn  Mn21      1.0  0.41739000000000004  0.5836899999999999  0.6439  1.0000
  Mn  Mn22      1.0  0.40037999999999985  0.88409  0.9614700000000003  1.0000
  Mn  Mn23      1.0  0.21219  0.9968199999999999  0.08043  1.0000
  Mn  Mn24      1.0  0.6454799999999999  0.91656  0.85598  1.0000
  H   H1        1.0  0.31478  0.15454  0.3993  1.0000
  H   H2        1.0  0.40753999999999996  0.16034  0.44753  1.0000
  H   H3        1.0  0.46653999999999995  0.09128  0.49253000000000013  1.0000
  H   H4        1.0  0.42629999999999996  0.01764  0.49091  1.0000
  H   H5        1.0  0.17654000000000009  0.8902499999999999  0.44776  1.0000
  H   H6        1.0  0.09381000000000003  0.92499  0.42575  1.0000
  H   H7        1.0  0.15806999999999993  0.85185  0.38156000000000007  1.0000
  H   H8        1.0  0.17702999999999985  0.89858  0.3442100000000001  1.0000
  H   H9        1.0  0.32274999999999987  0.8806  0.3562900000000001  1.0000
  H   H10       1.0  0.30384999999999984  0.83283  0.39118000000000014  1.0000
  H   H11       1.0  0.30194  0.8451  0.2883400000000001  1.0000
  H   H12       1.0  0.28476  0.79686  0.32305  1.0000
  H   H13       1.0  0.4318  0.7777500000000002  0.3332  1.0000
  H   H14       1.0  0.4350699999999999  0.77878  0.27326000000000006  1.0000
  H   H15       1.0  0.4492799999999999  0.82651  0.2982000000000001  1.0000
  H   H16       1.0  0.5014099999999997  0.80526  0.42342  1.0000
  H   H17       1.0  0.5154199999999999  0.72012  0.42178  1.0000
  H   H18       1.0  0.39473  0.68883  0.4672900000000001  1.0000
  H   H19       1.0  0.26344  0.74356  0.51218  1.0000
  H   H20       1.0  0.04172000000000003  0.01117  0.58025  1.0000
  H   H21       1.0  0.013949999999999895  0.96185  0.6098400000000003  1.0000
  H   H22       1.0  0.039859999999999875  0.01882  0.6597700000000002  1.0000
  H   H23       1.0  0.14674  0.00263  0.62765  1.0000
  H   H24       1.0  0.15095000000000008  0.91739  0.65332  1.0000
  H   H25       1.0  0.04781999999999988  0.93839  0.6888700000000002  1.0000
  H   H26       1.0  0.09643999999999989  0.98908  0.7322400000000002  1.0000
  H   H27       1.0  0.19944999999999988  0.96836  0.69609  1.0000
  H   H28       1.0  0.19995  0.88525  0.7251500000000001  1.0000
  H   H29       1.0  0.18628999999999987  0.92342  0.77084  1.0000
  H   H30       1.0  0.09871999999999993  0.90792  0.76354  1.0000
  H   H31       1.0  0.3724299999999998  0.84175  0.5628800000000003  1.0000
  H   H32       1.0  0.39997  0.83548  0.64076  1.0000
  H   H33       1.0  0.32045999999999997  0.98571  0.56259  1.0000
  H   H34       1.0  0.3446600000000001  0.98576  0.64119  1.0000
  H   H35       1.0  0.3808199999999999  0.8787999999999999  0.71428  1.0000
  H   H36       1.0  0.35906999999999967  0.94043  0.7133500000000003  1.0000
  H   H37       1.0  0.8877099999999997  0.20319  0.28668  1.0000
  H   H38       1.0  0.98239  0.1957  0.20537  1.0000
  H   H39       1.0  0.12668000000000001  0.13878  0.18791  1.0000
  H   H40       1.0  0.17432999999999993  0.09295  0.25192  1.0000
  H   H41       1.0  0.13102000000000003  0.03655  0.49283  1.0000
  H   H42       1.0  0.03384  0.06585  0.53176  1.0000
  H   H43       1.0  0.18234999999999998  0.1073  0.48855  1.0000
  H   H44       1.0  0.08380000000000001  0.13881  0.52395  1.0000
  H   H45       1.0  0.10263  0.08289  0.59  1.0000
  H   H46       1.0  0.19819000000000003  0.04946  0.55454  1.0000
  H   H47       1.0  0.16226999999999986  0.15184  0.5820500000000002  1.0000
  H   H48       1.0  0.25845999999999997  0.11822  0.5469  1.0000
  H   H49       1.0  0.2770199999999999  0.06238  0.61326  1.0000
  H   H50       1.0  0.17763999999999988  0.09336  0.6488500000000003  1.0000
  H   H51       1.0  0.26109000000000004  0.12002  0.63141  1.0000
  H   H52       1.0  0.47282999999999964  0.9145400000000001  0.8401700000000002  1.0000
  H   H53       1.0  0.40856999999999993  0.9101  0.77741  1.0000
  H   H54       1.0  0.7056799999999996  0.9060700000000002  0.74548  1.0000
  H   H55       1.0  0.6514599999999998  0.90093  0.6784200000000002  1.0000
  H   H56       1.0  0.5262300000000001  0.87155  0.66157  1.0000
  H   H57       1.0  0.50533  0.93184  0.65665  1.0000
  H   H58       1.0  0.8690100000000001  0.34478999999999993  0.09907  1.0000
  H   H59       1.0  0.01633  0.3393  0.051690000000000014  1.0000
  H   H60       1.0  0.051680000000000004  0.40894  0.00817  1.0000
  H   H61       1.0  0.9361399999999999  0.48257  0.009750000000000002  1.0000
  H   H62       1.0  0.5150799999999998  0.6094  0.05265  1.0000
  H   H63       1.0  0.4447999999999998  0.57484  0.07457000000000003  1.0000
  H   H64       1.0  0.39171  0.64794  0.11852000000000003  1.0000
  H   H65       1.0  0.4198399999999999  0.6014699999999998  0.15618  1.0000
  H   H66       1.0  0.55973  0.61953  0.14391000000000007  1.0000
  H   H67       1.0  0.5276800000000001  0.66717  0.10892000000000003  1.0000
  H   H68       1.0  0.4350399999999998  0.6551700000000001  0.21179000000000006  1.0000
  H   H69       1.0  0.40456  0.70338  0.17696  1.0000
  H   H70       1.0  0.5426499999999995  0.72233  0.16693  1.0000
  H   H71       1.0  0.48712000000000005  0.72122  0.22687  1.0000
  H   H72       1.0  0.5739499999999998  0.67344  0.20180000000000006  1.0000
  H   H73       1.0  0.72971  0.6949  0.07682000000000003  1.0000
  H   H74       1.0  0.65722  0.78009  0.07809  1.0000
  H   H75       1.0  0.55093  0.81128  0.03242  1.0000
  H   H76       1.0  0.5198799999999998  0.7565299999999999  0.9873300000000003  1.0000
  H   H77       1.0  0.6336399999999999  0.48875  0.9200600000000001  1.0000
  H   H78       1.0  0.5856699999999998  0.53787  0.8904400000000002  1.0000
  H   H79       1.0  0.7192199999999999  0.48114  0.8404800000000002  1.0000
  H   H80       1.0  0.7772500000000001  0.49761  0.8727400000000002  1.0000
  H   H81       1.0  0.72189  0.58265  0.84693  1.0000
  H   H82       1.0  0.6751599999999996  0.5616600000000002  0.8114400000000003  1.0000
  H   H83       1.0  0.8177799999999998  0.51084  0.76805  1.0000
  H   H84       1.0  0.86415  0.53163  0.8040100000000002  1.0000
  H   H85       1.0  0.8105  0.61465  0.77476  1.0000
  H   H86       1.0  0.8804099999999997  0.57638  0.72907  1.0000
  H   H87       1.0  0.7699099999999997  0.5919100000000002  0.73665  1.0000
  H   H88       1.0  0.7764399999999999  0.6583999999999999  0.93775  1.0000
  H   H89       1.0  0.8756299999999996  0.66468  0.8598600000000002  1.0000
  H   H90       1.0  0.8681399999999999  0.51441  0.9379700000000001  1.0000
  H   H91       1.0  0.9708999999999998  0.51438  0.85932  1.0000
  H   H92       1.0  0.97352  0.62127  0.7863200000000002  1.0000
  H   H93       1.0  0.012339999999999946  0.55964  0.7873200000000001  1.0000
  H   H94       1.0  0.37631000000000003  0.2969  0.21328000000000005  1.0000
  H   H95       1.0  0.38301999999999997  0.30386  0.2945  1.0000
  H   H96       1.0  0.45389  0.36036  0.3118800000000001  1.0000
  H   H97       1.0  0.5202799999999997  0.40591  0.24779000000000007  1.0000
  H   H98       1.0  0.6591699999999999  0.46323  0.006980000000000001  1.0000
  H   H99       1.0  0.6302800000000001  0.43375  0.96817  1.0000
  H   H100      1.0  0.7770299999999999  0.39237  0.011450000000000004  1.0000
  H   H101      1.0  0.7458599999999999  0.36105  0.9756800000000002  1.0000
  H   H102      1.0  0.7749399999999996  0.41731000000000007  0.9100000000000001  1.0000
  H   H103      1.0  0.8010799999999995  0.45057  0.9458300000000002  1.0000
  H   H104      1.0  0.89559  0.34828000000000003  0.91815  1.0000
  H   H105      1.0  0.9226599999999998  0.38196  0.9534100000000002  1.0000
  H   H106      1.0  0.9516299999999995  0.43786  0.8871200000000001  1.0000
  H   H107      1.0  0.9190299999999997  0.4069  0.85144  1.0000
  H   H108      1.0  0.011789999999999912  0.3803  0.8688200000000003  1.0000
  H   H109      1.0  0.22678000000000004  0.58562  0.66031  1.0000
  H   H110      1.0  0.09549999999999997  0.58994  0.72318  1.0000
  H   H111      1.0  0.3569899999999999  0.5936800000000001  0.75487  1.0000
  H   H112      1.0  0.23067999999999983  0.59871  0.82206  1.0000
  H   H113      1.0  0.059029999999999944  0.62845  0.83899  1.0000
  H   H114      1.0  0.09331999999999996  0.56816  0.84402  1.0000
  H   H115      1.0  0.96881  0.40162  0.34504  1.0000
  H   H116      1.0  0.06837999999999989  0.44915  0.3398700000000001  1.0000
  H   H117      1.0  0.059609999999999976  0.49274  0.40960000000000013  1.0000
  H   H118      1.0  0.94599  0.49048  0.48321  1.0000
  H   H119      1.0  0.56783  0.44759  0.60912  1.0000
  H   H120      1.0  0.5197799999999998  0.42569  0.5744100000000002  1.0000
  H   H121      1.0  0.5104900000000001  0.38155  0.64748  1.0000
  H   H122      1.0  0.5765399999999998  0.34401  0.6010000000000002  1.0000
  H   H123      1.0  0.7039099999999999  0.35616000000000003  0.61935  1.0000
  H   H124      1.0  0.6367699999999996  0.39124999999999993  0.66686  1.0000
  H   H125      1.0  0.6469100000000001  0.28833999999999993  0.6549800000000002  1.0000
  H   H126      1.0  0.5815  0.32327  0.70306  1.0000
  H   H127      1.0  0.7094699999999998  0.33325  0.7221800000000003  1.0000
  H   H128      1.0  0.7136399999999998  0.27331  0.7212300000000003  1.0000
  H   H129      1.0  0.7757299999999998  0.29818  0.6734800000000002  1.0000
  H   H130      1.0  0.8065199999999999  0.42363  0.69493  1.0000
  H   H131      1.0  0.7350399999999996  0.42188  0.7799900000000002  1.0000
  H   H132      1.0  0.58288  0.46716  0.8111600000000002  1.0000
  H   H133      1.0  0.50651  0.51217  0.75643  1.0000
  H   H134      1.0  0.55357  0.58014  0.48867  1.0000
  H   H135      1.0  0.4759499999999999  0.6097  0.5378  1.0000
  H   H136      1.0  0.5593800000000004  0.65966  0.48119  1.0000
  H   H137      1.0  0.6497  0.62745  0.4976800000000001  1.0000
  H   H138      1.0  0.56841  0.65314  0.5826900000000002  1.0000
  H   H139      1.0  0.48627999999999993  0.68867  0.56164  1.0000
  H   H140      1.0  0.5855399999999998  0.73212  0.51097  1.0000
  H   H141      1.0  0.6678699999999997  0.69599  0.5317200000000001  1.0000
  H   H142      1.0  0.5856499999999997  0.72521  0.61466  1.0000
  H   H143      1.0  0.6092800000000002  0.771  0.57636  1.0000
  H   H144      1.0  0.5064599999999999  0.76328  0.59219  1.0000
  H   H145      1.0  0.71428  0.5623  0.6583300000000002  1.0000
  H   H146      1.0  0.73553  0.64023  0.6646400000000001  1.0000
  H   H147      1.0  0.8065599999999999  0.56207  0.51445  1.0000
  H   H148      1.0  0.8307699999999999  0.64072  0.51445  1.0000
  H   H149      1.0  0.7599099999999994  0.71371  0.6213700000000002  1.0000
  H   H150      1.0  0.7996100000000002  0.71285  0.55977  1.0000
  H   H151      1.0  0.59008  0.28683  0.297  1.0000
  H   H152      1.0  0.6776399999999999  0.20552  0.30421000000000004  1.0000
  H   H153      1.0  0.76573  0.18805  0.36078  1.0000
  H   H154      1.0  0.76815  0.25214  0.40629  1.0000
  H   H155      1.0  0.6673499999999999  0.49294999999999994  0.4631300000000001  1.0000
  H   H156      1.0  0.59943  0.53199  0.43391  1.0000
  H   H157      1.0  0.78942  0.48882  0.39231000000000005  1.0000
  H   H158      1.0  0.72229  0.52462  0.36107  1.0000
  H   H159      1.0  0.6854499999999997  0.59023  0.41741  1.0000
  H   H160      1.0  0.7475799999999997  0.55439  0.4506300000000001  1.0000
  H   H161      1.0  0.8141399999999998  0.58215  0.3483500000000001  1.0000
  H   H162      1.0  0.8765899999999998  0.54695  0.3820400000000001  1.0000
  H   H163      1.0  0.8393299999999999  0.61336  0.4377800000000001  1.0000
  H   H164      1.0  0.77095  0.64898  0.4067900000000001  1.0000
  H   H165      1.0  0.8810799999999994  0.63151  0.38016  1.0000
  H   H166      1.0  0.8871100000000001  0.83975  0.58497  1.0000
  H   H167      1.0  0.81871  0.77681  0.5897  1.0000
  H   H168      1.0  0.11194  0.74524  0.5933400000000002  1.0000
  H   H169      1.0  0.05266000000000004  0.67805  0.5989  1.0000
  H   H170      1.0  0.89818  0.66104  0.62849  1.0000
  H   H171      1.0  0.9373399999999998  0.6560100000000001  0.5682500000000003  1.0000
  H   H172      1.0  0.71297  0.09859  0.15539  1.0000
  H   H173      1.0  0.85506  0.05147  0.16086  1.0000
  H   H174      1.0  0.96045  0.00821  0.09114  1.0000
  H   H175      1.0  0.9190699999999999  0.010350000000000002  0.0173  1.0000
  H   H176      1.0  0.6238299999999997  0.0527  0.8908600000000001  1.0000
  H   H177      1.0  0.51909  0.07487  0.9255600000000003  1.0000
  H   H178      1.0  0.53919  0.11873  0.8523800000000002  1.0000
  H   H179      1.0  0.52103  0.15639  0.89877  1.0000
  H   H180      1.0  0.6789999999999999  0.14404  0.8806300000000002  1.0000
  H   H181      1.0  0.69453  0.10899  0.8330800000000002  1.0000
  H   H182      1.0  0.5900799999999999  0.21194  0.8449600000000003  1.0000
  H   H183      1.0  0.6075199999999997  0.17706  0.7968700000000002  1.0000
  H   H184      1.0  0.7646799999999999  0.16675  0.7777900000000002  1.0000
  H   H185      1.0  0.7083599999999999  0.22678  0.77875  1.0000
  H   H186      1.0  0.7474  0.20174  0.8265  1.0000
  H   H187      1.0  0.9222599999999997  0.0785  0.8056600000000002  1.0000
  H   H188      1.0  0.93645  0.07936000000000001  0.72035  1.0000
  H   H189      1.0  0.8636200000000002  0.03269000000000001  0.68874  1.0000
  H   H190      1.0  0.7775200000000001  0.9876  0.74323  1.0000
  H   H191      1.0  0.62256  0.92029  0.010870000000000003  1.0000
  H   H192      1.0  0.6238999999999997  0.89055  0.9618100000000003  1.0000
  H   H193      1.0  0.7008199999999998  0.84072  0.01871  1.0000
  H   H194      1.0  0.7751399999999999  0.8730900000000001  0.00205  1.0000
  H   H195      1.0  0.8048299999999997  0.84719  0.9172  1.0000
  H   H196      1.0  0.7370399999999998  0.81175  0.9381900000000002  1.0000
  H   H197      1.0  0.8288799999999998  0.76835  0.98906  1.0000
  H   H198      1.0  0.89622  0.80419  0.96805  1.0000
  H   H199      1.0  0.92489  0.77477  0.88511  1.0000
  H   H200      1.0  0.95718  0.72931  0.9234700000000002  1.0000
  H   H201      1.0  0.8619899999999996  0.7365200000000001  0.90834  1.0000
  H   H202      1.0  0.9351999999999997  0.93817  0.8413400000000002  1.0000
  H   H203      1.0  0.04023999999999979  0.8600600000000002  0.8352000000000003  1.0000
  H   H204      1.0  0.8835299999999997  0.9388  0.9851800000000002  1.0000
  H   H205      1.0  0.9856999999999998  0.85994  0.9854200000000002  1.0000
  H   H206      1.0  0.09486999999999991  0.78662  0.87861  1.0000
  H   H207      1.0  0.07188000000000003  0.78757  0.9402200000000002  1.0000
  H   H208      1.0  0.17265  0.21296  0.20325000000000004  1.0000
  H   H209      1.0  0.18624999999999992  0.29424  0.1962  1.0000
  H   H210      1.0  0.3135999999999998  0.31173  0.13976000000000002  1.0000
  H   H211      1.0  0.42558000000000007  0.24767  0.09415  1.0000
  H   H212      1.0  0.62335  0.007180000000000001  0.03657000000000001  1.0000
  H   H213      1.0  0.5652299999999999  0.9680900000000001  0.06571000000000002  1.0000
  H   H214      1.0  0.66955  0.01147  0.10769000000000002  1.0000
  H   H215      1.0  0.6068099999999998  0.9757200000000001  0.13875  1.0000
  H   H216      1.0  0.6926000000000001  0.90999  0.08273  1.0000
  H   H217      1.0  0.7521699999999997  0.94579  0.0495  1.0000
  H   H218      1.0  0.7440499999999999  0.9181  0.15177000000000004  1.0000
  H   H219      1.0  0.8048499999999996  0.95337  0.11814000000000002  1.0000
  H   H220      1.0  0.8896899999999999  0.88709  0.06219  1.0000
  H   H221      1.0  0.82614  0.8514  0.09317  1.0000
  H   H222      1.0  0.89241  0.86874  0.11972000000000002  1.0000
  H   H223      1.0  0.3124700000000001  0.6605  0.9145400000000001  1.0000
  H   H224      1.0  0.1853999999999999  0.72345  0.9103500000000002  1.0000
  H   H225      1.0  0.45082999999999995  0.75505  0.9062900000000002  1.0000
  H   H226      1.0  0.32956  0.82228  0.9012400000000003  1.0000
  H   H227      1.0  0.18763000000000002  0.83921  0.8715100000000001  1.0000
  H   H228      1.0  0.16134999999999977  0.84434  0.9317500000000002  1.0000
  H   H229      1.0  0.68523  0.84546  0.6007000000000002  1.0000
  H   H230      1.0  0.5924699999999997  0.83966  0.5524700000000001  1.0000
  H   H231      1.0  0.53347  0.90872  0.50747  1.0000
  H   H232      1.0  0.57371  0.9823600000000001  0.50909  1.0000
  H   H233      1.0  0.82347  0.10975  0.5522400000000001  1.0000
  H   H234      1.0  0.9062  0.075  0.57425  1.0000
  H   H235      1.0  0.84194  0.14815  0.61844  1.0000
  H   H236      1.0  0.82298  0.10141  0.65579  1.0000
  H   H237      1.0  0.67726  0.1194  0.64371  1.0000
  H   H238      1.0  0.69616  0.16717  0.6088200000000001  1.0000
  H   H239      1.0  0.6980699999999997  0.15489  0.7116600000000002  1.0000
  H   H240      1.0  0.7152499999999999  0.20314  0.6769500000000003  1.0000
  H   H241      1.0  0.56821  0.22225  0.6668  1.0000
  H   H242      1.0  0.5649399999999997  0.22122000000000003  0.72674  1.0000
  H   H243      1.0  0.55073  0.17349  0.7018  1.0000
  H   H244      1.0  0.4986  0.19474  0.57658  1.0000
  H   H245      1.0  0.48459  0.27988  0.57822  1.0000
  H   H246      1.0  0.60528  0.31117  0.53271  1.0000
  H   H247      1.0  0.7365699999999998  0.25644  0.4878200000000001  1.0000
  H   H248      1.0  0.9582899999999999  0.98883  0.4197500000000001  1.0000
  H   H249      1.0  0.98606  0.03815000000000001  0.39016  1.0000
  H   H250      1.0  0.9601499999999996  0.9811800000000002  0.34023  1.0000
  H   H251      1.0  0.85327  0.99737  0.3723500000000001  1.0000
  H   H252      1.0  0.84906  0.0826  0.34668  1.0000
  H   H253      1.0  0.9521899999999999  0.06161  0.31113000000000013  1.0000
  H   H254      1.0  0.9035700000000001  0.01092  0.26775  1.0000
  H   H255      1.0  0.8005599999999997  0.03164  0.30391  1.0000
  H   H256      1.0  0.80006  0.11475  0.27485  1.0000
  H   H257      1.0  0.81372  0.07658  0.22916000000000006  1.0000
  H   H258      1.0  0.90129  0.09207  0.23646  1.0000
  H   H259      1.0  0.62758  0.15825  0.4371100000000001  1.0000
  H   H260      1.0  0.60004  0.16452  0.35923  1.0000
  H   H261      1.0  0.67955  0.01429  0.43741  1.0000
  H   H262      1.0  0.65535  0.01424  0.35881  1.0000
  H   H263      1.0  0.6191899999999999  0.1212  0.2857200000000001  1.0000
  H   H264      1.0  0.6409399999999997  0.05957  0.28665  1.0000
  H   H265      1.0  0.11229999999999998  0.79681  0.7133200000000002  1.0000
  H   H266      1.0  0.01761999999999999  0.8043  0.7946200000000001  1.0000
  H   H267      1.0  0.87333  0.86122  0.81209  1.0000
  H   H268      1.0  0.82568  0.90705  0.74808  1.0000
  H   H269      1.0  0.8689899999999999  0.96345  0.5071700000000001  1.0000
  H   H270      1.0  0.96617  0.93415  0.46823  1.0000
  H   H271      1.0  0.81766  0.8927  0.51145  1.0000
  H   H272      1.0  0.91621  0.86119  0.47605  1.0000
  H   H273      1.0  0.8973799999999998  0.91711  0.41  1.0000
  H   H274      1.0  0.80182  0.95054  0.44546  1.0000
  H   H275      1.0  0.8377399999999999  0.84816  0.4179400000000001  1.0000
  H   H276      1.0  0.7415500000000002  0.8817799999999999  0.4531000000000001  1.0000
  H   H277      1.0  0.72299  0.93762  0.38674  1.0000
  H   H278      1.0  0.82237  0.90664  0.3511400000000001  1.0000
  H   H279      1.0  0.7389199999999999  0.8799799999999999  0.3685900000000001  1.0000
  H   H280      1.0  0.52718  0.08546  0.15983  1.0000
  H   H281      1.0  0.5914399999999999  0.0899  0.22258000000000006  1.0000
  H   H282      1.0  0.29432999999999987  0.09393  0.25452  1.0000
  H   H283      1.0  0.3485500000000001  0.09907  0.32158  1.0000
  H   H284      1.0  0.47378  0.12844  0.33843  1.0000
  H   H285      1.0  0.49468  0.06816  0.3433500000000001  1.0000
  H   H286      1.0  0.13099999999999973  0.65521  0.9009300000000002  1.0000
  H   H287      1.0  0.9836800000000001  0.6607  0.9483  1.0000
  H   H288      1.0  0.9483299999999998  0.59106  0.9918300000000002  1.0000
  H   H289      1.0  0.06387  0.51743  0.99025  1.0000
  H   H290      1.0  0.48493000000000014  0.3906  0.94735  1.0000
  H   H291      1.0  0.5552099999999999  0.42516000000000004  0.9254300000000002  1.0000
  H   H292      1.0  0.6082999999999997  0.35206  0.8814800000000003  1.0000
  H   H293      1.0  0.5801699999999994  0.39853  0.8438200000000002  1.0000
  H   H294      1.0  0.44027999999999984  0.38047  0.8560800000000001  1.0000
  H   H295      1.0  0.4723299999999999  0.33283  0.89107  1.0000
  H   H296      1.0  0.56497  0.34483  0.7882100000000002  1.0000
  H   H297      1.0  0.59545  0.29662  0.82304  1.0000
  H   H298      1.0  0.45736000000000004  0.27767  0.83307  1.0000
  H   H299      1.0  0.5128899999999996  0.27878  0.7731300000000002  1.0000
  H   H300      1.0  0.4260599999999999  0.32656  0.7982  1.0000
  H   H301      1.0  0.2703  0.3051  0.92318  1.0000
  H   H302      1.0  0.34278999999999976  0.21990999999999997  0.9219100000000002  1.0000
  H   H303      1.0  0.44907999999999976  0.18872  0.9675800000000002  1.0000
  H   H304      1.0  0.48013  0.24347  0.012670000000000004  1.0000
  H   H305      1.0  0.3663699999999998  0.51125  0.07994000000000001  1.0000
  H   H306      1.0  0.41433999999999993  0.46212  0.10956000000000002  1.0000
  H   H307      1.0  0.28079  0.51886  0.15952000000000005  1.0000
  H   H308      1.0  0.22275999999999987  0.50239  0.12726  1.0000
  H   H309      1.0  0.27812  0.41735  0.15307  1.0000
  H   H310      1.0  0.32484999999999997  0.43834  0.18855000000000005  1.0000
  H   H311      1.0  0.18222999999999995  0.48916  0.23195000000000005  1.0000
  H   H312      1.0  0.13586  0.46837  0.19599  1.0000
  H   H313      1.0  0.18950999999999996  0.38535  0.22524000000000005  1.0000
  H   H314      1.0  0.11959999999999997  0.42362  0.27093000000000006  1.0000
  H   H315      1.0  0.2301  0.40809  0.26335  1.0000
  H   H316      1.0  0.22356999999999996  0.3416  0.06225000000000001  1.0000
  H   H317      1.0  0.12438000000000005  0.33532  0.14014  1.0000
  H   H318      1.0  0.13187  0.48559  0.062030000000000016  1.0000
  H   H319      1.0  0.029110000000000035  0.48562  0.14068  1.0000
  H   H320      1.0  0.026489999999999948  0.37873000000000007  0.21367000000000005  1.0000
  H   H321      1.0  0.98767  0.44036  0.21268000000000006  1.0000
  H   H322      1.0  0.6236999999999999  0.7031  0.7867100000000002  1.0000
  H   H323      1.0  0.6169899999999997  0.69614  0.7055000000000002  1.0000
  H   H324      1.0  0.5461200000000002  0.63964  0.68812  1.0000
  H   H325      1.0  0.4797300000000004  0.59409  0.7522000000000001  1.0000
  H   H326      1.0  0.34084  0.53677  0.99302  1.0000
  H   H327      1.0  0.36972999999999984  0.56625  0.03183  1.0000
  H   H328      1.0  0.22297999999999996  0.60763  0.98854  1.0000
  H   H329      1.0  0.25415000000000004  0.63894  0.02431  1.0000
  H   H330      1.0  0.22507000000000002  0.58269  0.09000000000000002  1.0000
  H   H331      1.0  0.19893000000000002  0.54943  0.05417  1.0000
  H   H332      1.0  0.10442000000000005  0.65172  0.08185000000000003  1.0000
  H   H333      1.0  0.07734999999999999  0.61804  0.04659  1.0000
  H   H334      1.0  0.04837999999999995  0.56214  0.11288000000000002  1.0000
  H   H335      1.0  0.08098000000000001  0.5931  0.14856  1.0000
  H   H336      1.0  0.9882199999999999  0.6197  0.13118  1.0000
  H   H337      1.0  0.77323  0.41438  0.33969  1.0000
  H   H338      1.0  0.9045099999999998  0.41006  0.27682  1.0000
  H   H339      1.0  0.6430199999999997  0.40632  0.24513000000000004  1.0000
  H   H340      1.0  0.7693299999999998  0.40129  0.17794  1.0000
  H   H341      1.0  0.94098  0.37155  0.16100000000000003  1.0000
  H   H342      1.0  0.9066899999999997  0.43184  0.15598000000000006  1.0000
  H   H343      1.0  0.031199999999999947  0.59838  0.65496  1.0000
  H   H344      1.0  0.9316299999999996  0.55085  0.6601300000000001  1.0000
  H   H345      1.0  0.9404100000000002  0.50726  0.5904  1.0000
  H   H346      1.0  0.05401999999999998  0.50952  0.51679  1.0000
  H   H347      1.0  0.43217999999999995  0.55241  0.39088  1.0000
  H   H348      1.0  0.48023  0.57431  0.42559000000000013  1.0000
  H   H349      1.0  0.48951999999999984  0.61845  0.3525200000000001  1.0000
  H   H350      1.0  0.42347  0.65599  0.39900000000000013  1.0000
  H   H351      1.0  0.2961  0.64384  0.38065  1.0000
  H   H352      1.0  0.36324000000000006  0.60875  0.33314  1.0000
  H   H353      1.0  0.35309999999999986  0.71165  0.3450200000000001  1.0000
  H   H354      1.0  0.41851000000000005  0.67673  0.29694  1.0000
  H   H355      1.0  0.2905399999999997  0.66675  0.27782  1.0000
  H   H356      1.0  0.28637  0.72669  0.27877  1.0000
  H   H357      1.0  0.22428  0.70182  0.32652  1.0000
  H   H358      1.0  0.19349000000000002  0.57637  0.30507000000000006  1.0000
  H   H359      1.0  0.2649699999999998  0.57812  0.22001000000000007  1.0000
  H   H360      1.0  0.41713  0.53284  0.18884  1.0000
  H   H361      1.0  0.4934999999999998  0.48783000000000004  0.24357  1.0000
  H   H362      1.0  0.44644000000000006  0.41986  0.51133  1.0000
  H   H363      1.0  0.52406  0.3903  0.4622000000000001  1.0000
  H   H364      1.0  0.4406299999999999  0.34034  0.5188100000000001  1.0000
  H   H365      1.0  0.35030999999999995  0.37255  0.5023100000000001  1.0000
  H   H366      1.0  0.4316  0.34686  0.4173  1.0000
  H   H367      1.0  0.51373  0.31133  0.43836  1.0000
  H   H368      1.0  0.41447  0.26788  0.48903000000000013  1.0000
  H   H369      1.0  0.33214  0.304  0.46828000000000003  1.0000
  H   H370      1.0  0.41436  0.27479  0.38534  1.0000
  H   H371      1.0  0.39072999999999986  0.229  0.42364000000000007  1.0000
  H   H372      1.0  0.4935500000000004  0.23672  0.40781  1.0000
  H   H373      1.0  0.28572999999999993  0.4377  0.34167  1.0000
  H   H374      1.0  0.2644799999999999  0.35977  0.3353600000000001  1.0000
  H   H375      1.0  0.19344999999999993  0.43793  0.4855500000000001  1.0000
  H   H376      1.0  0.16923999999999986  0.35927  0.4855500000000001  1.0000
  H   H377      1.0  0.24009999999999987  0.28628  0.3786200000000001  1.0000
  H   H378      1.0  0.20040000000000002  0.28715  0.44023  1.0000
  H   H379      1.0  0.4099299999999998  0.71317  0.703  1.0000
  H   H380      1.0  0.32237000000000005  0.79448  0.69579  1.0000
  H   H381      1.0  0.23427999999999982  0.81195  0.6392200000000002  1.0000
  H   H382      1.0  0.2318599999999999  0.74786  0.59371  1.0000
  H   H383      1.0  0.33266  0.50705  0.53687  1.0000
  H   H384      1.0  0.40058000000000005  0.46801  0.56609  1.0000
  H   H385      1.0  0.21059000000000003  0.51118  0.6076900000000002  1.0000
  H   H386      1.0  0.27772  0.47538  0.63893  1.0000
  H   H387      1.0  0.31455999999999995  0.4097700000000001  0.58259  1.0000
  H   H388      1.0  0.25243000000000004  0.44561  0.54937  1.0000
  H   H389      1.0  0.18586999999999995  0.41785  0.65165  1.0000
  H   H390      1.0  0.12341999999999981  0.45305  0.6179600000000002  1.0000
  H   H391      1.0  0.16067999999999996  0.38664  0.56222  1.0000
  H   H392      1.0  0.22905999999999993  0.35102  0.5932100000000001  1.0000
  H   H393      1.0  0.11892999999999991  0.36849  0.61984  1.0000
  H   H394      1.0  0.1129  0.16025  0.41503  1.0000
  H   H395      1.0  0.18129999999999993  0.22319000000000003  0.4103000000000001  1.0000
  H   H396      1.0  0.8880699999999994  0.25476  0.40666  1.0000
  H   H397      1.0  0.9473499999999999  0.32195  0.4011000000000001  1.0000
  H   H398      1.0  0.10182999999999998  0.33896  0.37151  1.0000
  H   H399      1.0  0.06267000000000002  0.34399  0.43175  1.0000
  H   H400      1.0  0.28703999999999996  0.90141  0.8446100000000001  1.0000
  H   H401      1.0  0.14494999999999994  0.94853  0.83914  1.0000
  H   H402      1.0  0.03956  0.99179  0.90886  1.0000
  H   H403      1.0  0.08093999999999998  0.98965  0.9827000000000002  1.0000
  H   H404      1.0  0.37618  0.9473  0.10914  1.0000
  H   H405      1.0  0.4809200000000001  0.92513  0.07444  1.0000
  H   H406      1.0  0.4608199999999998  0.88127  0.14762000000000003  1.0000
  H   H407      1.0  0.4789800000000001  0.84361  0.10123000000000003  1.0000
  H   H408      1.0  0.32101  0.85596  0.11937  1.0000
  H   H409      1.0  0.30548  0.89101  0.16692000000000007  1.0000
  H   H410      1.0  0.4099299999999999  0.78806  0.15504  1.0000
  H   H411      1.0  0.39249000000000006  0.82294  0.20313  1.0000
  H   H412      1.0  0.23533  0.83325  0.22221000000000005  1.0000
  H   H413      1.0  0.2916499999999999  0.7732200000000001  0.22125  1.0000
  H   H414      1.0  0.25262  0.7982600000000001  0.17350000000000004  1.0000
  H   H415      1.0  0.07775  0.9215  0.19434000000000007  1.0000
  H   H416      1.0  0.06356000000000016  0.92063  0.27964  1.0000
  H   H417      1.0  0.13638999999999996  0.96731  0.31126  1.0000
  H   H418      1.0  0.22249  0.0124  0.25677  1.0000
  H   H419      1.0  0.37744999999999984  0.07971  0.9891300000000002  1.0000
  H   H420      1.0  0.37611  0.10945  0.03818000000000001  1.0000
  H   H421      1.0  0.29919  0.15928  0.9812900000000002  1.0000
  H   H422      1.0  0.22487  0.12691  0.99795  1.0000
  H   H423      1.0  0.19518  0.15281000000000003  0.08279  1.0000
  H   H424      1.0  0.26296999999999987  0.18825  0.06181000000000001  1.0000
  H   H425      1.0  0.17112999999999998  0.23165  0.010940000000000004  1.0000
  H   H426      1.0  0.10378999999999995  0.19581  0.03195  1.0000
  H   H427      1.0  0.07512000000000003  0.22522999999999999  0.11488  1.0000
  H   H428      1.0  0.04282999999999996  0.27068  0.07652  1.0000
  H   H429      1.0  0.13801999999999984  0.26348  0.09166000000000002  1.0000
  H   H430      1.0  0.06481000000000002  0.061829999999999996  0.15866  1.0000
  H   H431      1.0  0.95977  0.13993  0.1648  1.0000
  H   H432      1.0  0.11647999999999999  0.06119999999999999  0.01482  1.0000
  H   H433      1.0  0.014309999999999995  0.14006  0.01458  1.0000
  H   H434      1.0  0.90514  0.21338  0.12138000000000003  1.0000
  H   H435      1.0  0.92813  0.21243  0.059780000000000014  1.0000
  H   H436      1.0  0.82736  0.78704  0.79675  1.0000
  H   H437      1.0  0.8137599999999999  0.70576  0.8038000000000002  1.0000
  H   H438      1.0  0.68641  0.68827  0.86024  1.0000
  H   H439      1.0  0.57443  0.75233  0.90585  1.0000
  H   H440      1.0  0.37665999999999983  0.99282  0.9634300000000002  1.0000
  H   H441      1.0  0.43477999999999994  0.03191  0.93428  1.0000
  H   H442      1.0  0.3304599999999999  0.98853  0.8923100000000003  1.0000
  H   H443      1.0  0.3932  0.02428  0.86125  1.0000
  H   H444      1.0  0.30740999999999985  0.09  0.9172700000000001  1.0000
  H   H445      1.0  0.2478399999999998  0.05421  0.9505000000000002  1.0000
  H   H446      1.0  0.25595999999999997  0.0819  0.8482300000000002  1.0000
  H   H447      1.0  0.19516000000000003  0.04663  0.88186  1.0000
  H   H448      1.0  0.11032000000000006  0.11291000000000001  0.93781  1.0000
  H   H449      1.0  0.17387000000000005  0.14859  0.90683  1.0000
  H   H450      1.0  0.10759999999999989  0.13126  0.8802800000000001  1.0000
  H   H451      1.0  0.6875399999999999  0.3395  0.08546  1.0000
  H   H452      1.0  0.81461  0.27655  0.08965  1.0000
  H   H453      1.0  0.54918  0.24495  0.09371  1.0000
  H   H454      1.0  0.6704499999999999  0.17772  0.09876000000000001  1.0000
  H   H455      1.0  0.81238  0.16079  0.12848000000000004  1.0000
  H   H456      1.0  0.83866  0.15565  0.06825000000000002  1.0000
  C   C1        1.0  0.31946999999999987  0.08281  0.4167000000000001  1.0000
  C   C2        1.0  0.34026  0.12473  0.41936  1.0000
  C   C3        1.0  0.39213000000000003  0.12772  0.44636  1.0000
  C   C4        1.0  0.4251400000000001  0.08907  0.4719200000000001  1.0000
  C   C5        1.0  0.40338999999999997  0.04805  0.47079  1.0000
  C   C6        1.0  0.35029000000000005  0.04415  0.44406  1.0000
  C   C7        1.0  0.32538999999999996  0.0008399999999999999  0.44812000000000013  1.0000
  C   C8        1.0  0.19974999999999987  0.95066  0.41013000000000005  1.0000
  C   C9        1.0  0.16264999999999977  0.91021  0.4171700000000001  1.0000
  C   C10       1.0  0.19325000000000003  0.8782099999999999  0.37416  1.0000
  C   C11       1.0  0.28805000000000003  0.85413  0.36154  1.0000
  C   C12       1.0  0.3187399999999999  0.82368  0.31768000000000013  1.0000
  C   C13       1.0  0.41386  0.80034  0.30482  1.0000
  C   C14       1.0  0.37561  0.82283  0.46898  1.0000
  C   C15       1.0  0.4500799999999998  0.79108  0.44285  1.0000
  C   C16       1.0  0.4571099999999999  0.74363  0.4421400000000001  1.0000
  C   C17       1.0  0.38999999999999996  0.7259  0.4671800000000001  1.0000
  C   C18       1.0  0.31615999999999983  0.75655  0.4926200000000001  1.0000
  C   C19       1.0  0.3073499999999999  0.80485  0.4945100000000001  1.0000
  C   C20       1.0  0.22928999999999994  0.83407  0.52448  1.0000
  C   C21       1.0  0.13760999999999984  0.9478000000000001  0.5631000000000003  1.0000
  C   C22       1.0  0.0650199999999998  0.9786  0.5980600000000003  1.0000
  C   C23       1.0  0.0906299999999999  0.9898  0.64033  1.0000
  C   C24       1.0  0.10664999999999995  0.94818  0.6732300000000002  1.0000
  C   C25       1.0  0.14085999999999976  0.95846  0.7120600000000002  1.0000
  C   C26       1.0  0.15738999999999972  0.9166200000000001  0.7447600000000002  1.0000
  C   C27       1.0  0.3673100000000001  0.87285  0.58132  1.0000
  C   C28       1.0  0.38205000000000006  0.86963  0.62495  1.0000
  C   C29       1.0  0.33814999999999984  0.95333  0.58139  1.0000
  C   C30       1.0  0.35136999999999996  0.95303  0.62506  1.0000
  C   C31       1.0  0.3736699999999999  0.9104  0.64782  1.0000
  C   C32       1.0  0.39589000000000013  0.90854  0.69299  1.0000
  C   C33       1.0  0.9772699999999999  0.15322  0.31564  1.0000
  C   C34       1.0  0.9507899999999999  0.17925  0.27838  1.0000
  C   C35       1.0  0.0038999999999999547  0.17448  0.23319000000000006  1.0000
  C   C36       1.0  0.08468999999999997  0.14288  0.22317000000000006  1.0000
  C   C37       1.0  0.11200999999999998  0.11751  0.25945  1.0000
  C   C38       1.0  0.06073000000000002  0.1225  0.30603  1.0000
  C   C39       1.0  0.09575999999999997  0.09680000000000001  0.34279  1.0000
  C   C40       1.0  0.04915999999999994  0.09094  0.4630400000000001  1.0000
  C   C41       1.0  0.08594  0.07092  0.50232  1.0000
  C   C42       1.0  0.12821000000000002  0.10374999999999998  0.51744  1.0000
  C   C43       1.0  0.1574  0.08546  0.56094  1.0000
  C   C44       1.0  0.20343000000000003  0.11593  0.57583  1.0000
  C   C45       1.0  0.2312899999999999  0.09707  0.6197  1.0000
  C   C46       1.0  0.51051  0.9118  0.80388  1.0000
  C   C47       1.0  0.47478000000000004  0.90904  0.7683700000000002  1.0000
  C   C48       1.0  0.6401799999999995  0.90682  0.75102  1.0000
  C   C49       1.0  0.6094  0.90374  0.7137  1.0000
  C   C50       1.0  0.5243200000000001  0.90544  0.72201  1.0000
  C   C51       1.0  0.49056  0.90402  0.68131  1.0000
  C   C52       1.0  0.81968  0.41668999999999995  0.08215  1.0000
  C   C53       1.0  0.8850199999999999  0.37473  0.07945000000000003  1.0000
  C   C54       1.0  0.96713  0.37197  0.053020000000000005  1.0000
  C   C55       1.0  0.9872299999999999  0.4109  0.028200000000000006  1.0000
  C   C56       1.0  0.9233199999999997  0.45199  0.029400000000000006  1.0000
  C   C57       1.0  0.8393600000000001  0.45568  0.05559  1.0000
  C   C58       1.0  0.7750699999999999  0.49909  0.051880000000000016  1.0000
  C   C59       1.0  0.5609199999999996  0.54892  0.09013  1.0000
  C   C60       1.0  0.49035999999999996  0.58948  0.08321  1.0000
  C   C61       1.0  0.4457899999999998  0.62165  0.12611000000000003  1.0000
  C   C62       1.0  0.5036799999999999  0.64591  0.13863  1.0000
  C   C63       1.0  0.45992  0.67649  0.18240000000000003  1.0000
  C   C64       1.0  0.5189599999999996  0.6997  0.19526000000000004  1.0000
  C   C65       1.0  0.6666499999999999  0.67718  0.03158  1.0000
  C   C66       1.0  0.6837200000000001  0.7090299999999999  0.05732000000000002  1.0000
  C   C67       1.0  0.6428199999999998  0.75652  0.057790000000000015  1.0000
  C   C68       1.0  0.5832099999999997  0.77421  0.032600000000000004  1.0000
  C   C69       1.0  0.5657199999999998  0.74355  0.0071  1.0000
  C   C70       1.0  0.60676  0.69521  0.0055400000000000015  1.0000
  C   C71       1.0  0.5880199999999999  0.66601  0.9755400000000001  1.0000
  C   C72       1.0  0.6485399999999999  0.55225  0.9371200000000002  1.0000
  C   C73       1.0  0.6418599999999999  0.52135  0.9021900000000003  1.0000
  C   C74       1.0  0.7210600000000001  0.51025  0.85996  1.0000
  C   C75       1.0  0.7282300000000002  0.55186  0.8270400000000002  1.0000
  C   C76       1.0  0.8114999999999996  0.54149  0.7881200000000003  1.0000
  C   C77       1.0  0.8187399999999999  0.58324  0.7552700000000001  1.0000
  C   C78       1.0  0.8209499999999995  0.6273  0.9193300000000002  1.0000
  C   C79       1.0  0.8760899999999995  0.63053  0.8756900000000002  1.0000
  C   C80       1.0  0.8722999999999996  0.5468  0.9192100000000002  1.0000
  C   C81       1.0  0.9288300000000003  0.54712  0.87552  1.0000
  C   C82       1.0  0.9313599999999997  0.58975  0.8528000000000001  1.0000
  C   C83       1.0  0.9969599999999997  0.5915400000000001  0.80765  1.0000
  C   C84       1.0  0.44563  0.34652  0.18434000000000006  1.0000
  C   C85       1.0  0.40739000000000003  0.32068  0.22159000000000006  1.0000
  C   C86       1.0  0.4108999999999999  0.3252  0.26674  1.0000
  C   C87       1.0  0.45068  0.35648  0.27671  1.0000
  C   C88       1.0  0.4891500000000001  0.38177  0.24044  1.0000
  C   C89       1.0  0.48918  0.37699  0.1939  1.0000
  C   C90       1.0  0.53589  0.40244  0.15712000000000004  1.0000
  C   C91       1.0  0.60231  0.40877  0.03685  1.0000
  C   C92       1.0  0.6581499999999998  0.42881  0.9975500000000003  1.0000
  C   C93       1.0  0.7484899999999999  0.39607  0.9824500000000003  1.0000
  C   C94       1.0  0.8029700000000001  0.4146  0.9391800000000002  1.0000
  C   C95       1.0  0.89446  0.3842  0.9244000000000002  1.0000
  C   C96       1.0  0.9472399999999997  0.40317  0.8805900000000002  1.0000
  C   C97       1.0  0.22558999999999993  0.5882499999999999  0.6966000000000002  1.0000
  C   C98       1.0  0.15166999999999992  0.59093  0.7321800000000003  1.0000
  C   C99       1.0  0.29772999999999994  0.59298  0.7493600000000002  1.0000
  C   C100      1.0  0.22665000000000002  0.59597  0.78676  1.0000
  C   C101      1.0  0.15143  0.59441  0.77854  1.0000
  C   C102      1.0  0.07550999999999994  0.59596  0.8193  1.0000
  C   C103      1.0  0.90285  0.41803  0.41700000000000004  1.0000
  C   C104      1.0  0.9652999999999999  0.42104  0.3750900000000001  1.0000
  C   C105      1.0  0.020639999999999933  0.44764  0.3725000000000001  1.0000
  C   C106      1.0  0.015659999999999962  0.47241  0.41151000000000004  1.0000
  C   C107      1.0  0.9530399999999997  0.47095  0.4525200000000001  1.0000
  C   C108      1.0  0.8956  0.4446  0.45606000000000013  1.0000
  C   C109      1.0  0.82746  0.44824  0.49936  1.0000
  C   C110      1.0  0.65151  0.41001999999999994  0.54878  1.0000
  C   C111      1.0  0.57385  0.41700000000000004  0.5891900000000001  1.0000
  C   C112      1.0  0.5722099999999999  0.37405  0.6212800000000003  1.0000
  C   C113      1.0  0.6425100000000001  0.36151  0.64564  1.0000
  C   C114      1.0  0.64238  0.31776  0.6762700000000003  1.0000
  C   C115      1.0  0.7140999999999997  0.30485999999999996  0.69963  1.0000
  C   C116      1.0  0.6981599999999999  0.46893  0.67726  1.0000
  C   C117      1.0  0.7409200000000001  0.44297  0.7090500000000002  1.0000
  C   C118      1.0  0.7003099999999995  0.44222  0.75645  1.0000
  C   C119      1.0  0.6153799999999999  0.46718  0.7741300000000001  1.0000
  C   C120      1.0  0.5722799999999998  0.49264  0.7434700000000002  1.0000
  C   C121      1.0  0.61192  0.49449  0.6952  1.0000
  C   C122      1.0  0.5631600000000003  0.5243  0.66589  1.0000
  C   C123      1.0  0.5853799999999999  0.5629  0.5521800000000001  1.0000
  C   C124      1.0  0.54387  0.59791  0.5213  1.0000
  C   C125      1.0  0.58072  0.64018  0.5103  1.0000
  C   C126      1.0  0.5549299999999999  0.67307  0.5519000000000001  1.0000
  C   C127      1.0  0.5993500000000002  0.71195  0.54159  1.0000
  C   C128      1.0  0.5739699999999994  0.74473  0.5833400000000002  1.0000
  C   C129      1.0  0.7402999999999994  0.58078  0.6272600000000003  1.0000
  C   C130      1.0  0.7518099999999992  0.62441  0.6305100000000002  1.0000
  C   C131      1.0  0.79177  0.58089  0.5468  1.0000
  C   C132      1.0  0.8046699999999999  0.62456  0.5471500000000001  1.0000
  C   C133      1.0  0.7842699999999998  0.6472900000000001  0.58976  1.0000
  C   C134      1.0  0.8046399999999999  0.69245  0.5916200000000003  1.0000
  C   C135      1.0  0.6301199999999999  0.31582  0.34673  1.0000
  C   C136      1.0  0.6294499999999997  0.27854  0.32081  1.0000
  C   C137      1.0  0.678  0.23332000000000003  0.32541  1.0000
  C   C138      1.0  0.7275899999999998  0.22329  0.3567800000000001  1.0000
  C   C139      1.0  0.7299899999999998  0.2596  0.3819500000000001  1.0000
  C   C140      1.0  0.68359  0.30621000000000004  0.37706  1.0000
  C   C141      1.0  0.6937699999999999  0.34295  0.40246  1.0000
  C   C142      1.0  0.63979  0.46332000000000007  0.40876  1.0000
  C   C143      1.0  0.65664  0.50254  0.42879  1.0000
  C   C144      1.0  0.7317199999999998  0.51777  0.3960700000000001  1.0000
  C   C145      1.0  0.7427499999999999  0.56107  0.41468  1.0000
  C   C146      1.0  0.8193199999999999  0.57593  0.3842600000000001  1.0000
  C   C147      1.0  0.8283199999999998  0.6198  0.4031  1.0000
  C   C148      1.0  0.9222299999999998  0.80348  0.5877800000000001  1.0000
  C   C149      1.0  0.88388  0.76788  0.59068  1.0000
  C   C150      1.0  0.04713999999999994  0.7507600000000001  0.59271  1.0000
  C   C151      1.0  0.013399999999999988  0.71335  0.59596  1.0000
  C   C152      1.0  0.93  0.72152  0.5943800000000002  1.0000
  C   C153      1.0  0.89487  0.68075  0.59602  1.0000
  C   C154      1.0  0.73616  0.08217  0.08335  1.0000
  C   C155      1.0  0.75929  0.07929  0.12537  1.0000
  C   C156      1.0  0.8387  0.0529  0.12815  1.0000
  C   C157      1.0  0.89801  0.02833  0.08914  1.0000
  C   C158      1.0  0.87539  0.0297  0.04799  1.0000
  C   C159      1.0  0.7949599999999998  0.05573  0.04435  1.0000
  C   C160      1.0  0.77394  0.05198  0.00103  1.0000
  C   C161      1.0  0.60954  0.09021  0.95125  1.0000
  C   C162      1.0  0.5794199999999998  0.08335  0.9107700000000002  1.0000
  C   C163      1.0  0.5671  0.12628  0.8786000000000003  1.0000
  C   C164      1.0  0.6492999999999999  0.13874  0.8543000000000001  1.0000
  C   C165      1.0  0.63615  0.18249  0.82366  1.0000
  C   C166      1.0  0.7185199999999997  0.1952  0.8003300000000002  1.0000
  C   C167      1.0  0.8430399999999999  0.0324  0.8229600000000001  1.0000
  C   C168      1.0  0.8911799999999998  0.0587  0.7913400000000002  1.0000
  C   C169      1.0  0.8985299999999996  0.05896  0.7438000000000001  1.0000
  C   C170      1.0  0.8578100000000001  0.03325  0.72588  1.0000
  C   C171      1.0  0.80941  0.00777  0.75643  1.0000
  C   C172      1.0  0.80137  0.00638  0.8048100000000002  1.0000
  C   C173      1.0  0.7532899999999999  0.97639  0.8339700000000001  1.0000
  C   C174      1.0  0.7010000000000001  0.93728  0.94754  1.0000
  C   C175      1.0  0.6634499999999998  0.90233  0.97836  1.0000
  C   C176      1.0  0.7316199999999999  0.86019  0.9895300000000002  1.0000
  C   C177      1.0  0.7804  0.8272699999999998  0.94796  1.0000
  C   C178      1.0  0.8532999999999998  0.78833  0.9583200000000002  1.0000
  C   C179      1.0  0.9021199999999998  0.75536  0.9166700000000002  1.0000
  C   C180      1.0  0.94861  0.91975  0.8724400000000002  1.0000
  C   C181      1.0  0.006729999999999937  0.87599  0.8693000000000001  1.0000
  C   C182      1.0  0.9197899999999996  0.91984  0.9528800000000002  1.0000
  C   C183      1.0  0.9763599999999999  0.87605  0.9526600000000001  1.0000
  C   C184      1.0  0.021239999999999846  0.85316  0.9101000000000002  1.0000
  C   C185      1.0  0.08853000000000004  0.80792  0.9083500000000002  1.0000
  C   C186      1.0  0.29163  0.18398  0.15361000000000005  1.0000
  C   C187      1.0  0.2277199999999999  0.22123  0.1796  1.0000
  C   C188      1.0  0.23572999999999994  0.26643  0.17505  1.0000
  C   C189      1.0  0.30674000000000007  0.27647  0.14376  1.0000
  C   C190      1.0  0.37052999999999986  0.24020000000000002  0.11848  1.0000
  C   C191      1.0  0.36572999999999983  0.19363  0.12323  1.0000
  C   C192      1.0  0.43777  0.15696000000000002  0.09751000000000001  1.0000
  C   C193      1.0  0.51153  0.03673  0.09093  1.0000
  C   C194      1.0  0.5877199999999999  0.99757  0.07086  1.0000
  C   C195      1.0  0.6448199999999998  0.98247  0.10384000000000003  1.0000
  C   C196      1.0  0.7179099999999998  0.93917  0.08544  1.0000
  C   C197      1.0  0.7788999999999997  0.92437  0.11587000000000001  1.0000
  C   C198      1.0  0.85067  0.88054  0.0969  1.0000
  C   C199      1.0  0.3139300000000001  0.6968  0.91186  1.0000
  C   C200      1.0  0.24265  0.73241  0.90922  1.0000
  C   C201      1.0  0.3908599999999998  0.74956  0.9070000000000003  1.0000
  C   C202      1.0  0.32274  0.78698  0.90401  1.0000
  C   C203      1.0  0.24590999999999982  0.77879  0.90564  1.0000
  C   C204      1.0  0.1715199999999999  0.81955  0.90401  1.0000
  C   C205      1.0  0.68054  0.91719  0.58329  1.0000
  C   C206      1.0  0.65975  0.87527  0.5806400000000003  1.0000
  C   C207      1.0  0.6078799999999999  0.87228  0.55364  1.0000
  C   C208      1.0  0.5748700000000001  0.91092  0.52808  1.0000
  C   C209      1.0  0.59662  0.95195  0.52921  1.0000
  C   C210      1.0  0.64972  0.95585  0.55594  1.0000
  C   C211      1.0  0.6746200000000001  0.99916  0.55188  1.0000
  C   C212      1.0  0.8002599999999995  0.04934  0.5898700000000002  1.0000
  C   C213      1.0  0.8373600000000001  0.08979  0.58283  1.0000
  C   C214      1.0  0.80676  0.12179  0.6258400000000001  1.0000
  C   C215      1.0  0.7119599999999997  0.14587  0.63846  1.0000
  C   C216      1.0  0.68127  0.17632  0.68232  1.0000
  C   C217      1.0  0.5861499999999995  0.19966  0.69518  1.0000
  C   C218      1.0  0.6243999999999998  0.17717  0.53102  1.0000
  C   C219      1.0  0.5499299999999999  0.20892  0.5571500000000001  1.0000
  C   C220      1.0  0.5429  0.25637  0.55786  1.0000
  C   C221      1.0  0.6100100000000002  0.2741  0.53282  1.0000
  C   C222      1.0  0.68385  0.24344999999999997  0.50738  1.0000
  C   C223      1.0  0.6926599999999999  0.19515  0.50549  1.0000
  C   C224      1.0  0.7707199999999998  0.16593  0.4755200000000001  1.0000
  C   C225      1.0  0.8624000000000002  0.0522  0.4369  1.0000
  C   C226      1.0  0.9349899999999999  0.021400000000000002  0.40194  1.0000
  C   C227      1.0  0.9093799999999999  0.0102  0.35967  1.0000
  C   C228      1.0  0.89336  0.05181  0.3267700000000001  1.0000
  C   C229      1.0  0.8591499999999996  0.04154  0.28793  1.0000
  C   C230      1.0  0.8426200000000001  0.08337000000000001  0.25524  1.0000
  C   C231      1.0  0.6327  0.12715  0.41868  1.0000
  C   C232      1.0  0.61796  0.13036  0.37505  1.0000
  C   C233      1.0  0.6618599999999997  0.04667  0.41860000000000014  1.0000
  C   C234      1.0  0.64864  0.04697  0.3749400000000001  1.0000
  C   C235      1.0  0.6263399999999999  0.0896  0.3521800000000001  1.0000
  C   C236      1.0  0.60412  0.09145999999999999  0.30701  1.0000
  C   C237      1.0  0.02273999999999998  0.84678  0.6843600000000001  1.0000
  C   C238      1.0  0.04922000000000005  0.82075  0.72162  1.0000
  C   C239      1.0  0.9961099999999999  0.82552  0.7668100000000002  1.0000
  C   C240      1.0  0.9153199999999997  0.85712  0.7768300000000001  1.0000
  C   C241      1.0  0.8880000000000001  0.88249  0.7405500000000002  1.0000
  C   C242      1.0  0.9392799999999998  0.8774999999999998  0.6939700000000002  1.0000
  C   C243      1.0  0.9042499999999996  0.9032  0.65721  1.0000
  C   C244      1.0  0.95085  0.90906  0.53696  1.0000
  C   C245      1.0  0.9140699999999999  0.92908  0.4976800000000001  1.0000
  C   C246      1.0  0.8717999999999997  0.89625  0.4825600000000001  1.0000
  C   C247      1.0  0.8426099999999996  0.9145400000000001  0.43906  1.0000
  C   C248      1.0  0.7965799999999997  0.88407  0.42417  1.0000
  C   C249      1.0  0.76872  0.90293  0.3803  1.0000
  C   C250      1.0  0.48949999999999994  0.0882  0.19612  1.0000
  C   C251      1.0  0.52523  0.09096  0.23163  1.0000
  C   C252      1.0  0.35983  0.09318  0.24898000000000006  1.0000
  C   C253      1.0  0.3906099999999999  0.09626  0.2863000000000001  1.0000
  C   C254      1.0  0.47569  0.09456  0.27799  1.0000
  C   C255      1.0  0.5094499999999998  0.09598  0.3186900000000001  1.0000
  C   C256      1.0  0.18032999999999996  0.58331  0.91784  1.0000
  C   C257      1.0  0.11498999999999994  0.62527  0.9205500000000001  1.0000
  C   C258      1.0  0.032879999999999944  0.62803  0.94698  1.0000
  C   C259      1.0  0.012779999999999984  0.5891  0.9718000000000001  1.0000
  C   C260      1.0  0.07668999999999997  0.54801  0.9706  1.0000
  C   C261      1.0  0.16064999999999988  0.54432  0.9444  1.0000
  C   C262      1.0  0.22494000000000006  0.50091  0.94812  1.0000
  C   C263      1.0  0.4390899999999999  0.45108  0.90987  1.0000
  C   C264      1.0  0.5096499999999996  0.41052  0.9167800000000002  1.0000
  C   C265      1.0  0.55422  0.37835  0.87389  1.0000
  C   C266      1.0  0.49633  0.35409  0.8613700000000002  1.0000
  C   C267      1.0  0.5400899999999998  0.32351  0.8176000000000002  1.0000
  C   C268      1.0  0.4810499999999999  0.30029  0.80473  1.0000
  C   C269      1.0  0.3333699999999999  0.32282  0.9684100000000002  1.0000
  C   C270      1.0  0.3162900000000002  0.29097  0.94268  1.0000
  C   C271      1.0  0.35718999999999995  0.24347  0.9422100000000002  1.0000
  C   C272      1.0  0.41679999999999984  0.22579  0.9673900000000002  1.0000
  C   C273      1.0  0.4342899999999999  0.25645  0.9929  1.0000
  C   C274      1.0  0.39325000000000004  0.30479  0.99446  1.0000
  C   C275      1.0  0.4119899999999998  0.33399  0.024460000000000006  1.0000
  C   C276      1.0  0.35147  0.44775  0.06288  1.0000
  C   C277      1.0  0.3581500000000001  0.47865  0.0978  1.0000
  C   C278      1.0  0.2789499999999999  0.48975  0.14004  1.0000
  C   C279      1.0  0.27177999999999997  0.44814  0.17296  1.0000
  C   C280      1.0  0.18851000000000007  0.4585  0.21188  1.0000
  C   C281      1.0  0.18126999999999996  0.41676  0.24473000000000006  1.0000
  C   C282      1.0  0.1790599999999999  0.3727  0.08067  1.0000
  C   C283      1.0  0.12391999999999996  0.36947  0.12431000000000003  1.0000
  C   C284      1.0  0.12771000000000002  0.4532  0.08079  1.0000
  C   C285      1.0  0.07118  0.45288000000000006  0.12448  1.0000
  C   C286      1.0  0.06864999999999997  0.41025  0.14720000000000005  1.0000
  C   C287      1.0  0.0030500000000000145  0.40846  0.19235  1.0000
  C   C288      1.0  0.55438  0.65348  0.8156600000000002  1.0000
  C   C289      1.0  0.5926199999999998  0.67932  0.77841  1.0000
  C   C290      1.0  0.5891100000000001  0.67479  0.7332600000000002  1.0000
  C   C291      1.0  0.54933  0.64352  0.7232800000000001  1.0000
  C   C292      1.0  0.51086  0.61823  0.75955  1.0000
  C   C293      1.0  0.5108299999999998  0.62301  0.8061000000000003  1.0000
  C   C294      1.0  0.46412  0.5975599999999999  0.84288  1.0000
  C   C295      1.0  0.39769999999999983  0.59123  0.96314  1.0000
  C   C296      1.0  0.34186000000000005  0.57119  0.002450000000000001  1.0000
  C   C297      1.0  0.25151999999999997  0.60393  0.01755  1.0000
  C   C298      1.0  0.19704  0.5854  0.060820000000000006  1.0000
  C   C299      1.0  0.10554999999999994  0.6158000000000001  0.07559000000000003  1.0000
  C   C300      1.0  0.05276999999999996  0.59683  0.11941000000000003  1.0000
  C   C301      1.0  0.7744199999999999  0.41175  0.3034000000000001  1.0000
  C   C302      1.0  0.84834  0.40906  0.26782  1.0000
  C   C303      1.0  0.7022799999999999  0.40701000000000004  0.25064000000000003  1.0000
  C   C304      1.0  0.7733599999999999  0.40403  0.21324000000000007  1.0000
  C   C305      1.0  0.84858  0.40559  0.22146000000000005  1.0000
  C   C306      1.0  0.9245  0.40404  0.18070000000000006  1.0000
  C   C307      1.0  0.09715999999999997  0.58196  0.58299  1.0000
  C   C308      1.0  0.034709999999999935  0.57896  0.62491  1.0000
  C   C309      1.0  0.9793699999999997  0.55236  0.6275000000000002  1.0000
  C   C310      1.0  0.9843499999999996  0.52758  0.5884900000000002  1.0000
  C   C311      1.0  0.046969999999999984  0.52905  0.54748  1.0000
  C   C312      1.0  0.10440999999999999  0.5554  0.54394  1.0000
  C   C313      1.0  0.17254999999999998  0.55176  0.50064  1.0000
  C   C314      1.0  0.3484999999999999  0.58998  0.4512200000000001  1.0000
  C   C315      1.0  0.42616000000000004  0.583  0.4108100000000001  1.0000
  C   C316      1.0  0.42780000000000007  0.62595  0.37872  1.0000
  C   C317      1.0  0.3574999999999998  0.63849  0.3543600000000001  1.0000
  C   C318      1.0  0.35763  0.68224  0.32373  1.0000
  C   C319      1.0  0.28591  0.69514  0.30037  1.0000
  C   C320      1.0  0.30185  0.53107  0.32273  1.0000
  C   C321      1.0  0.25909000000000004  0.55703  0.29095  1.0000
  C   C322      1.0  0.29969999999999997  0.55778  0.24354  1.0000
  C   C323      1.0  0.38462999999999986  0.53282  0.22587000000000004  1.0000
  C   C324      1.0  0.42772999999999994  0.50736  0.25653  1.0000
  C   C325      1.0  0.3880899999999998  0.50551  0.3048  1.0000
  C   C326      1.0  0.43684999999999996  0.4757  0.33411  1.0000
  C   C327      1.0  0.41463  0.4371  0.44782  1.0000
  C   C328      1.0  0.45613999999999993  0.40208  0.47869  1.0000
  C   C329      1.0  0.41929  0.35982  0.4897  1.0000
  C   C330      1.0  0.44508  0.32693  0.4480900000000001  1.0000
  C   C331      1.0  0.40066  0.28805  0.4584100000000001  1.0000
  C   C332      1.0  0.42603999999999986  0.25527  0.41666  1.0000
  C   C333      1.0  0.25971  0.41922  0.37274  1.0000
  C   C334      1.0  0.2482  0.37559  0.36949  1.0000
  C   C335      1.0  0.20823999999999998  0.41911000000000004  0.4532  1.0000
  C   C336      1.0  0.19534  0.37544  0.45285  1.0000
  C   C337      1.0  0.21573999999999988  0.35271  0.4102400000000001  1.0000
  C   C338      1.0  0.19536999999999996  0.30755  0.40838  1.0000
  C   C339      1.0  0.3698899999999997  0.6841800000000001  0.6532700000000002  1.0000
  C   C340      1.0  0.37056  0.72146  0.67919  1.0000
  C   C341      1.0  0.3220099999999999  0.76667  0.6745800000000002  1.0000
  C   C342      1.0  0.2724199999999998  0.7766999999999998  0.64321  1.0000
  C   C343      1.0  0.27002000000000004  0.7403999999999998  0.6180500000000001  1.0000
  C   C344      1.0  0.3164199999999999  0.69379  0.6229300000000002  1.0000
  C   C345      1.0  0.3062399999999997  0.65705  0.59753  1.0000
  C   C346      1.0  0.36022  0.53667  0.59123  1.0000
  C   C347      1.0  0.3433699999999999  0.49746  0.57121  1.0000
  C   C348      1.0  0.2682899999999999  0.48223000000000005  0.60393  1.0000
  C   C349      1.0  0.25726  0.43893  0.58532  1.0000
  C   C350      1.0  0.18069000000000002  0.42407  0.61574  1.0000
  C   C351      1.0  0.17169  0.3802  0.5969  1.0000
  C   C352      1.0  0.07777999999999997  0.19652  0.4122200000000001  1.0000
  C   C353      1.0  0.11612999999999996  0.23212  0.40932000000000013  1.0000
  C   C354      1.0  0.9528699999999999  0.24924  0.40729  1.0000
  C   C355      1.0  0.9866099999999999  0.28665  0.40404  1.0000
  C   C356      1.0  0.07000999999999996  0.27848  0.40562000000000004  1.0000
  C   C357      1.0  0.10514000000000001  0.31925  0.40398000000000006  1.0000
  C   C358      1.0  0.26385000000000014  0.91782  0.91665  1.0000
  C   C359      1.0  0.24071999999999993  0.92071  0.87463  1.0000
  C   C360      1.0  0.16131  0.9471  0.8718500000000002  1.0000
  C   C361      1.0  0.10200000000000002  0.97167  0.9108600000000001  1.0000
  C   C362      1.0  0.12462000000000008  0.9703  0.95201  1.0000
  C   C363      1.0  0.20504999999999993  0.94427  0.9556500000000002  1.0000
  C   C364      1.0  0.22606999999999994  0.94802  0.99897  1.0000
  C   C365      1.0  0.39047  0.90979  0.048750000000000016  1.0000
  C   C366      1.0  0.42058999999999985  0.91665  0.08923000000000003  1.0000
  C   C367      1.0  0.4329099999999999  0.87372  0.12140000000000002  1.0000
  C   C368      1.0  0.35071  0.86126  0.1457  1.0000
  C   C369      1.0  0.36385999999999996  0.81751  0.17633  1.0000
  C   C370      1.0  0.28149  0.8048  0.19967  1.0000
  C   C371      1.0  0.15696999999999986  0.9676  0.17704000000000003  1.0000
  C   C372      1.0  0.10882999999999987  0.9413  0.20866  1.0000
  C   C373      1.0  0.10147999999999997  0.94104  0.25620000000000004  1.0000
  C   C374      1.0  0.14220000000000005  0.96675  0.27412  1.0000
  C   C375      1.0  0.1906  0.9922299999999998  0.24357  1.0000
  C   C376      1.0  0.19864000000000004  0.99362  0.19518  1.0000
  C   C377      1.0  0.24671999999999994  0.0236  0.16603000000000004  1.0000
  C   C378      1.0  0.29901  0.06272  0.05246  1.0000
  C   C379      1.0  0.3365599999999999  0.09767  0.02164  1.0000
  C   C380      1.0  0.2683899999999999  0.13981  0.01047  1.0000
  C   C381      1.0  0.21961000000000003  0.17273  0.052030000000000014  1.0000
  C   C382      1.0  0.14671  0.21167  0.04168000000000001  1.0000
  C   C383      1.0  0.09788999999999999  0.24464  0.08333000000000003  1.0000
  C   C384      1.0  0.05139999999999999  0.08025  0.12756  1.0000
  C   C385      1.0  0.9932799999999999  0.124  0.13069  1.0000
  C   C386      1.0  0.08021999999999996  0.08016  0.04712000000000001  1.0000
  C   C387      1.0  0.023649999999999997  0.12395  0.04734  1.0000
  C   C388      1.0  0.97877  0.14684  0.08990000000000001  1.0000
  C   C389      1.0  0.91148  0.19208000000000003  0.09165  1.0000
  C   C390      1.0  0.7083799999999999  0.81602  0.8463900000000001  1.0000
  C   C391      1.0  0.7722899999999997  0.77877  0.8204  1.0000
  C   C392      1.0  0.7642799999999997  0.7335700000000002  0.8249500000000001  1.0000
  C   C393      1.0  0.69327  0.72353  0.8562400000000002  1.0000
  C   C394      1.0  0.6294799999999999  0.7598  0.8815200000000002  1.0000
  C   C395      1.0  0.6342799999999998  0.80637  0.87677  1.0000
  C   C396      1.0  0.5622399999999999  0.84304  0.9024900000000002  1.0000
  C   C397      1.0  0.48847999999999997  0.96327  0.9090600000000002  1.0000
  C   C398      1.0  0.41228999999999993  0.00242  0.9291400000000002  1.0000
  C   C399      1.0  0.35519  0.01753  0.89616  1.0000
  C   C400      1.0  0.2821  0.06083  0.91456  1.0000
  C   C401      1.0  0.22110999999999992  0.07563  0.8841200000000002  1.0000
  C   C402      1.0  0.14933999999999992  0.11946000000000001  0.9031000000000001  1.0000
  C   C403      1.0  0.68608  0.30319  0.08814  1.0000
  C   C404      1.0  0.7573600000000001  0.26759  0.09078  1.0000
  C   C405      1.0  0.60915  0.25044  0.093  1.0000
  C   C406      1.0  0.6772699999999999  0.21301  0.09598  1.0000
  C   C407      1.0  0.7541  0.22121  0.09436000000000003  1.0000
  C   C408      1.0  0.82849  0.18045  0.09599  1.0000
  N   N1        1.0  0.2720599999999999  0.99591  0.42498000000000014  1.0000
  N   N2        1.0  0.24969999999999995  0.95394  0.4348  1.0000
  N   N3        1.0  0.21889  0.88002  0.52817  1.0000
  N   N4        1.0  0.14486999999999997  0.90293  0.56129  1.0000
  N   N5        1.0  0.34576999999999997  0.91397  0.5597  1.0000
  N   N6        1.0  0.04981999999999995  0.10234  0.3875300000000001  1.0000
  N   N7        1.0  0.09235999999999998  0.07798  0.41963  1.0000
  N   N8        1.0  0.5916299999999998  0.91126  0.7955700000000001  1.0000
  N   N9        1.0  0.6936499999999999  0.50379  0.07499  1.0000
  N   N10       1.0  0.6388499999999997  0.54583  0.06555  1.0000
  N   N11       1.0  0.6269400000000002  0.62001  0.9720900000000002  1.0000
  N   N12       1.0  0.6091999999999999  0.59712  0.93888  1.0000
  N   N13       1.0  0.8189399999999997  0.58619  0.9409600000000002  1.0000
  N   N14       1.0  0.53883  0.39757  0.11246000000000003  1.0000
  N   N15       1.0  0.5892299999999998  0.42175  0.08024000000000003  1.0000
  N   N16       1.0  0.29797  0.58874  0.7048  1.0000
  N   N17       1.0  0.7691399999999999  0.42519000000000007  0.50384  1.0000
  N   N18       1.0  0.7047899999999999  0.43459  0.54581  1.0000
  N   N19       1.0  0.5988  0.52794  0.6199600000000002  1.0000
  N   N20       1.0  0.54778  0.5611  0.5970200000000002  1.0000
  N   N21       1.0  0.7599099999999999  0.5592100000000001  0.58615  1.0000
  N   N22       1.0  0.6520599999999999  0.38765000000000005  0.39757000000000003  1.0000
  N   N23       1.0  0.6704799999999997  0.41988  0.42159000000000013  1.0000
  N   N24       1.0  0.002829999999999944  0.79532  0.5882700000000001  1.0000
  N   N25       1.0  0.69726  0.07518  0.99627  1.0000
  N   N26       1.0  0.6844600000000001  0.0657  0.95428  1.0000
  N   N27       1.0  0.7468800000000002  0.97253  0.87988  1.0000
  N   N28       1.0  0.7062400000000003  0.9392999999999999  0.90273  1.0000
  N   N29       1.0  0.90577  0.94153  0.91349  1.0000
  N   N30       1.0  0.43618999999999997  0.11224  0.10228000000000002  1.0000
  N   N31       1.0  0.51088  0.08018  0.07792000000000003  1.0000
  N   N32       1.0  0.3868499999999998  0.70498  0.9112700000000002  1.0000
  N   N33       1.0  0.72795  0.00409  0.57501  1.0000
  N   N34       1.0  0.75031  0.04606  0.56519  1.0000
  N   N35       1.0  0.78112  0.11998  0.47183000000000014  1.0000
  N   N36       1.0  0.85514  0.09707  0.43871  1.0000
  N   N37       1.0  0.6542399999999997  0.08603  0.44030000000000014  1.0000
  N   N38       1.0  0.9501899999999998  0.89766  0.6124700000000002  1.0000
  N   N39       1.0  0.9076499999999998  0.92201  0.58037  1.0000
  N   N40       1.0  0.4083799999999998  0.08874  0.20443000000000006  1.0000
  N   N41       1.0  0.30635999999999997  0.49621  0.9250100000000002  1.0000
  N   N42       1.0  0.3611599999999999  0.45417  0.9344500000000002  1.0000
  N   N43       1.0  0.37307000000000007  0.37999  0.02791  1.0000
  N   N44       1.0  0.39080999999999994  0.40288  0.061120000000000015  1.0000
  N   N45       1.0  0.18106999999999998  0.41381  0.059040000000000016  1.0000
  N   N46       1.0  0.46118000000000015  0.6024299999999999  0.88754  1.0000
  N   N47       1.0  0.41077999999999976  0.57825  0.9197600000000002  1.0000
  N   N48       1.0  0.7020399999999997  0.41126000000000007  0.2952  1.0000
  N   N49       1.0  0.23087000000000002  0.57481  0.4961600000000001  1.0000
  N   N50       1.0  0.2952199999999999  0.56541  0.4541900000000001  1.0000
  N   N51       1.0  0.40121  0.47206  0.38004  1.0000
  N   N52       1.0  0.45223  0.4389  0.40298  1.0000
  N   N53       1.0  0.24009999999999998  0.44079  0.41385  1.0000
  N   N54       1.0  0.3479500000000001  0.61235  0.60243  1.0000
  N   N55       1.0  0.32953  0.58012  0.57841  1.0000
  N   N56       1.0  0.99718  0.20468  0.4117300000000001  1.0000
  N   N57       1.0  0.30274999999999996  0.92482  0.0037300000000000007  1.0000
  N   N58       1.0  0.31555  0.9343  0.04572  1.0000
  N   N59       1.0  0.25313  0.02747  0.12012000000000003  1.0000
  N   N60       1.0  0.29377  0.0607  0.09727000000000002  1.0000
  N   N61       1.0  0.09423999999999996  0.05847  0.08651  1.0000
  N   N62       1.0  0.5638199999999999  0.88775  0.89772  1.0000
  N   N63       1.0  0.48913  0.91982  0.92207  1.0000
  N   N64       1.0  0.6131599999999998  0.29502  0.08873  1.0000
  O   O1        1.0  0.27173999999999987  0.08219  0.3886500000000001  1.0000
  O   O2        1.0  0.35259999999999997  0.96833  0.47549000000000013  1.0000
  O   O3        1.0  0.18013999999999997  0.98318  0.3794800000000001  1.0000
  O   O4        1.0  0.37458000000000014  0.86765  0.46817  1.0000
  O   O5        1.0  0.17128999999999994  0.815  0.54832  1.0000
  O   O6        1.0  0.19479999999999995  0.96635  0.53579  1.0000
  O   O7        1.0  0.92131  0.15867  0.35748  1.0000
  O   O8        1.0  0.17263  0.06949  0.33219  1.0000
  O   O9        1.0  0.9762999999999997  0.12227  0.4725000000000001  1.0000
  O   O10       1.0  0.7429700000000001  0.41707  0.10955  1.0000
  O   O11       1.0  0.7969899999999999  0.53185  0.02484  1.0000
  O   O12       1.0  0.54327  0.5161  0.12045  1.0000
  O   O13       1.0  0.70792  0.63217  0.03349  1.0000
  O   O14       1.0  0.53527  0.68512  0.9514  1.0000
  O   O15       1.0  0.69668  0.5337  0.96458  1.0000
  O   O16       1.0  0.43744  0.34084999999999993  0.14246000000000006  1.0000
  O   O17       1.0  0.57663  0.42878999999999995  0.16753  1.0000
  O   O18       1.0  0.5703099999999999  0.37744  0.02743  1.0000
  O   O19       1.0  0.85406  0.39039  0.41727  1.0000
  O   O20       1.0  0.8221299999999997  0.47519  0.53225  1.0000
  O   O21       1.0  0.66435  0.37964  0.51599  1.0000
  O   O22       1.0  0.7418699999999999  0.46786  0.63242  1.0000
  O   O23       1.0  0.4859399999999999  0.54802  0.6849200000000002  1.0000
  O   O24       1.0  0.66107  0.53552  0.53365  1.0000
  O   O25       1.0  0.57927  0.35765  0.3413700000000001  1.0000
  O   O26       1.0  0.7451799999999995  0.3325  0.42871  1.0000
  O   O27       1.0  0.5977400000000002  0.47282  0.37772  1.0000
  O   O28       1.0  0.6599099999999999  0.10963  0.08287000000000003  1.0000
  O   O29       1.0  0.8285400000000002  0.02479  0.96839  1.0000
  O   O30       1.0  0.55891  0.12046  0.9841000000000001  1.0000
  O   O31       1.0  0.8399999999999997  0.03372  0.8679000000000002  1.0000
  O   O32       1.0  0.7188099999999996  0.95278  0.81491  1.0000
  O   O33       1.0  0.73086  0.96448  0.96621  1.0000
  O   O34       1.0  0.27749  0.14212  0.15879  1.0000
  O   O35       1.0  0.5045399999999999  0.16757000000000002  0.07099  1.0000
  O   O36       1.0  0.4485799999999998  0.02714  0.12244  1.0000
  O   O37       1.0  0.7282700000000001  0.91781  0.61135  1.0000
  O   O38       1.0  0.64741  0.03167  0.52451  1.0000
  O   O39       1.0  0.8198700000000001  0.01682  0.62052  1.0000
  O   O40       1.0  0.6254299999999999  0.13235  0.5318300000000001  1.0000
  O   O41       1.0  0.8287199999999998  0.185  0.45168000000000014  1.0000
  O   O42       1.0  0.80521  0.03365  0.46421  1.0000
  O   O43       1.0  0.07869999999999998  0.84133  0.64252  1.0000
  O   O44       1.0  0.8273799999999999  0.93051  0.6678000000000002  1.0000
  O   O45       1.0  0.02370999999999996  0.87773  0.5275  1.0000
  O   O46       1.0  0.25704  0.58293  0.89045  1.0000
  O   O47       1.0  0.20301999999999984  0.46815  0.9751600000000002  1.0000
  O   O48       1.0  0.45673999999999987  0.4839  0.8795500000000003  1.0000
  O   O49       1.0  0.2920899999999998  0.36783  0.9665100000000002  1.0000
  O   O50       1.0  0.4647399999999999  0.31488  0.04860000000000001  1.0000
  O   O51       1.0  0.30333000000000004  0.4663  0.03542  1.0000
  O   O52       1.0  0.56257  0.65915  0.85754  1.0000
  O   O53       1.0  0.42338000000000003  0.57121  0.83246  1.0000
  O   O54       1.0  0.42970000000000014  0.62256  0.97256  1.0000
  O   O55       1.0  0.14595000000000002  0.60961  0.58273  1.0000
  O   O56       1.0  0.1778799999999999  0.52481  0.4677500000000001  1.0000
  O   O57       1.0  0.33565999999999996  0.6203600000000001  0.48401  1.0000
  O   O58       1.0  0.2581399999999998  0.53214  0.36758000000000013  1.0000
  O   O59       1.0  0.5140699999999998  0.45197  0.31508  1.0000
  O   O60       1.0  0.33893999999999996  0.46448  0.4663500000000001  1.0000
  O   O61       1.0  0.42074  0.64235  0.6586300000000002  1.0000
  O   O62       1.0  0.25483  0.6675  0.57129  1.0000
  O   O63       1.0  0.40226999999999996  0.52718  0.62228  1.0000
  O   O64       1.0  0.34011  0.89037  0.9171300000000002  1.0000
  O   O65       1.0  0.17146999999999993  0.97521  0.031610000000000006  1.0000
  O   O66       1.0  0.4411  0.87954  0.0159  1.0000
  O   O67       1.0  0.16000999999999996  0.96628  0.1321  1.0000
  O   O68       1.0  0.2812  0.04722  0.18509  1.0000
  O   O69       1.0  0.26915  0.03552  0.03379  1.0000
  O   O70       1.0  0.72252  0.85788  0.8412100000000002  1.0000
  O   O71       1.0  0.49547  0.83243  0.9290000000000003  1.0000
  O   O72       1.0  0.5514299999999996  0.97286  0.8775600000000002  1.0000
