data_image0
_chemical_formula_structural       Ag18H240C264N72O24
_chemical_formula_sum              "Ag18 H240 C264 N72 O24"
_cell_length_a       15.30793
_cell_length_b       15.306289999999999
_cell_length_c       42.81205
_cell_angle_alpha    89.99439
_cell_angle_beta     90.00180999999999
_cell_angle_gamma    120.21428

_symmetry_space_group_name_H-M    'P 1'
_symmetry_Int_Tables_number       1

loop_
  _symmetry_equiv_pos_as_xyz
  'x,y,z'

loop_
  _atom_site_type_symbol
  _atom_site_label
  _atom_site_symmetry_multiplicity
  _atom_site_fract_x
  _atom_site_fract_y
  _atom_site_fract_z
  _atom_site_occupancy
  Ag  Ag1       1.0  0.5691299999999998  0.14088  0.9166  1.0000
  Ag  Ag2       1.0  0.75075  0.50255  0.9166  1.0000
  Ag  Ag3       1.0  0.57052  0.42957  0.24985  1.0000
  Ag  Ag4       1.0  0.7509099999999997  0.24911999999999995  0.24999000000000002  1.0000
  Ag  Ag5       1.0  0.8590799999999997  0.43074  0.5834  1.0000
  Ag  Ag6       1.0  0.4974299999999999  0.24930999999999995  0.58343  1.0000
  Ag  Ag7       1.0  0.44651999999999986  0.22219999999999998  0.08372  1.0000
  Ag  Ag8       1.0  0.77735  0.55316  0.4162  1.0000
  Ag  Ag9       1.0  0.7778199999999997  0.22199999999999995  0.7499999999999999  1.0000
  Ag  Ag10      1.0  0.4307299999999999  0.85914  0.41662  1.0000
  Ag  Ag11      1.0  0.24898999999999993  0.49737  0.41667  1.0000
  Ag  Ag12      1.0  0.42942  0.57055  0.7499999999999999  1.0000
  Ag  Ag13      1.0  0.24906  0.75078  0.7499999999999999  1.0000
  Ag  Ag14      1.0  0.14091  0.56913  0.0834  1.0000
  Ag  Ag15      1.0  0.50253  0.75066  0.0834  1.0000
  Ag  Ag16      1.0  0.5530599999999998  0.7776599999999999  0.58366  1.0000
  Ag  Ag17      1.0  0.22234999999999994  0.44644999999999996  0.9161900000000001  1.0000
  Ag  Ag18      1.0  0.22215999999999989  0.7780199999999999  0.25002  1.0000
  H   H1        1.0  0.37665  0.97039  0.92314  1.0000
  H   H2        1.0  0.19776999999999995  0.83775  0.93279  1.0000
  H   H3        1.0  0.11046  0.83927  0.98176  1.0000
  H   H4        1.0  0.20586  0.9764  0.02154  1.0000
  H   H5        1.0  0.5300999999999998  0.24518  0.030320000000000003  1.0000
  H   H6        1.0  0.63547  0.37932  0.01252  1.0000
  H   H7        1.0  0.7379099999999997  0.43525999999999987  0.98625  1.0000
  H   H8        1.0  0.71094  0.28561  0.03906  1.0000
  H   H9        1.0  0.8028299999999998  0.41578  0.03781  1.0000
  H   H10       1.0  0.8094099999999999  0.33175  0.01081  1.0000
  H   H11       1.0  0.8261699999999997  0.23535999999999996  0.8814500000000001  1.0000
  H   H12       1.0  0.8758199999999998  0.16685999999999995  0.9005  1.0000
  H   H13       1.0  0.9570099999999997  0.29477  0.88986  1.0000
  H   H14       1.0  0.7910099999999997  0.21086  0.94089  1.0000
  H   H15       1.0  0.92184  0.28631  0.94709  1.0000
  H   H16       1.0  0.046349999999999905  0.4250699999999999  0.92534  1.0000
  H   H17       1.0  0.23454  0.74031  0.8807700000000002  1.0000
  H   H18       1.0  0.19830999999999988  0.87331  0.8606800000000001  1.0000
  H   H19       1.0  0.023239999999999983  0.84491  0.86531  1.0000
  H   H20       1.0  0.8853399999999998  0.68459  0.88794  1.0000
  H   H21       1.0  0.5923699999999997  0.62233  0.2563  1.0000
  H   H22       1.0  0.6377499999999998  0.80054  0.26611  1.0000
  H   H23       1.0  0.7282299999999998  0.8887  0.31479  1.0000
  H   H24       1.0  0.7719399999999997  0.79451  0.35434  1.0000
  H   H25       1.0  0.7174099999999998  0.4716299999999999  0.36311  1.0000
  H   H26       1.0  0.74356  0.36568999999999996  0.34603  1.0000
  H   H27       1.0  0.6980899999999998  0.26373  0.31964  1.0000
  H   H28       1.0  0.5734399999999997  0.28858  0.37218  1.0000
  H   H29       1.0  0.6123599999999998  0.19765999999999997  0.37098  1.0000
  H   H30       1.0  0.5217599999999998  0.19026999999999997  0.34383  1.0000
  H   H31       1.0  0.40839  0.17168999999999998  0.21503  1.0000
  H   H32       1.0  0.28877999999999987  0.11940999999999997  0.23357000000000003  1.0000
  H   H33       1.0  0.33825  0.0407  0.22336  1.0000
  H   H34       1.0  0.4169599999999999  0.20651999999999995  0.27446  1.0000
  H   H35       1.0  0.36195000000000005  0.07582  0.28066  1.0000
  H   H36       1.0  0.3763399999999999  0.9525  0.25954  1.0000
  H   H37       1.0  0.5025799999999998  0.7639199999999998  0.21624000000000002  1.0000
  H   H38       1.0  0.6713499999999998  0.7999499999999999  0.19537  1.0000
  H   H39       1.0  0.8181299999999997  0.9760999999999999  0.19832000000000002  1.0000
  H   H40       1.0  0.7966299999999997  0.1148  0.22025  1.0000
  H   H41       1.0  0.029279999999999976  0.4088899999999999  0.58966  1.0000
  H   H42       1.0  0.16211999999999993  0.36367  0.59921  1.0000
  H   H43       1.0  0.15894  0.2717  0.6476  1.0000
  H   H44       1.0  0.020319999999999967  0.22628999999999996  0.6870900000000001  1.0000
  H   H45       1.0  0.7514899999999998  0.27962  0.69622  1.0000
  H   H46       1.0  0.6204799999999998  0.25679  0.67954  1.0000
  H   H47       1.0  0.56432  0.30202  0.65305  1.0000
  H   H48       1.0  0.7138099999999997  0.42646  0.70575  1.0000
  H   H49       1.0  0.5839399999999998  0.38865  0.70402  1.0000
  H   H50       1.0  0.6693099999999997  0.47894  0.6771000000000001  1.0000
  H   H51       1.0  0.7654999999999997  0.59234  0.54816  1.0000
  H   H52       1.0  0.83313  0.7117  0.56683  1.0000
  H   H53       1.0  0.70481  0.66233  0.55636  1.0000
  H   H54       1.0  0.7905899999999998  0.58305  0.60754  1.0000
  H   H55       1.0  0.7153799999999996  0.6382099999999998  0.61375  1.0000
  H   H56       1.0  0.57698  0.62378  0.59225  1.0000
  H   H57       1.0  0.26063999999999987  0.4951099999999999  0.54876  1.0000
  H   H58       1.0  0.1274  0.32553  0.52831  1.0000
  H   H59       1.0  0.15661999999999998  0.17931999999999995  0.53175  1.0000
  H   H60       1.0  0.31757  0.20244999999999996  0.55371  1.0000
  H   H61       1.0  0.5910299999999998  0.9705999999999999  0.91034  1.0000
  H   H62       1.0  0.6363099999999999  0.8378099999999998  0.90079  1.0000
  H   H63       1.0  0.7281499999999997  0.8409099999999999  0.8524000000000002  1.0000
  H   H64       1.0  0.7736  0.9796  0.81293  1.0000
  H   H65       1.0  0.7204999999999997  0.24856  0.8037900000000001  1.0000
  H   H66       1.0  0.7430999999999996  0.37954999999999994  0.8204700000000001  1.0000
  H   H67       1.0  0.69783  0.43565  0.84696  1.0000
  H   H68       1.0  0.5734599999999997  0.2862199999999999  0.7942400000000001  1.0000
  H   H69       1.0  0.61134  0.41609  0.7959900000000001  1.0000
  H   H70       1.0  0.5209799999999999  0.3307199999999999  0.82289  1.0000
  H   H71       1.0  0.40776999999999997  0.23449  0.95186  1.0000
  H   H72       1.0  0.28839  0.16684  0.93319  1.0000
  H   H73       1.0  0.3378  0.29518  0.94368  1.0000
  H   H74       1.0  0.4169599999999999  0.20942  0.8924700000000001  1.0000
  H   H75       1.0  0.36184  0.28468  0.8863000000000001  1.0000
  H   H76       1.0  0.3763499999999999  0.42298  0.9077600000000001  1.0000
  H   H77       1.0  0.5048199999999999  0.7392899999999999  0.95124  1.0000
  H   H78       1.0  0.6743299999999995  0.8726099999999998  0.9717  1.0000
  H   H79       1.0  0.8205799999999998  0.84351  0.96827  1.0000
  H   H80       1.0  0.7975499999999998  0.68257  0.94632  1.0000
  H   H81       1.0  0.02947999999999985  0.6233599999999998  0.5769  1.0000
  H   H82       1.0  0.16207999999999992  0.80226  0.56726  1.0000
  H   H83       1.0  0.1604299999999999  0.8895799999999998  0.51831  1.0000
  H   H84       1.0  0.023600000000000027  0.79411  0.47846000000000005  1.0000
  H   H85       1.0  0.7549699999999998  0.46963  0.4696600000000001  1.0000
  H   H86       1.0  0.6206799999999998  0.3646999999999999  0.48750000000000004  1.0000
  H   H87       1.0  0.5647099999999999  0.26217  0.51376  1.0000
  H   H88       1.0  0.7140599999999998  0.28905  0.46085  1.0000
  H   H89       1.0  0.58382  0.19710999999999995  0.46221  1.0000
  H   H90       1.0  0.66801  0.19054  0.48913000000000006  1.0000
  H   H91       1.0  0.76461  0.17378  0.6185700000000001  1.0000
  H   H92       1.0  0.8328899999999998  0.12393999999999997  0.59949  1.0000
  H   H93       1.0  0.70506  0.04291999999999999  0.61014  1.0000
  H   H94       1.0  0.7890199999999998  0.20907  0.55913  1.0000
  H   H95       1.0  0.7135499999999998  0.07822  0.55291  1.0000
  H   H96       1.0  0.57491  0.9536899999999998  0.57468  1.0000
  H   H97       1.0  0.25952999999999987  0.76534  0.61914  1.0000
  H   H98       1.0  0.12650999999999998  0.80151  0.63923  1.0000
  H   H99       1.0  0.15495  0.97662  0.63463  1.0000
  H   H100      1.0  0.3153499999999999  0.11464  0.61209  1.0000
  H   H101      1.0  0.37767999999999985  0.4077199999999999  0.24333000000000002  1.0000
  H   H102      1.0  0.1995899999999999  0.36255  0.23343  1.0000
  H   H103      1.0  0.11118999999999997  0.27114  0.18487  1.0000
  H   H104      1.0  0.20493  0.22597  0.1456  1.0000
  H   H105      1.0  0.5276199999999999  0.27992999999999996  0.13698  1.0000
  H   H106      1.0  0.6349599999999997  0.25608  0.15386  1.0000
  H   H107      1.0  0.73684  0.30205999999999994  0.18027  1.0000
  H   H108      1.0  0.7113399999999996  0.42632999999999993  0.12775  1.0000
  H   H109      1.0  0.8025199999999998  0.38777  0.12888  1.0000
  H   H110      1.0  0.80972  0.47817  0.15607  1.0000
  H   H111      1.0  0.8281699999999999  0.59162  0.28496  1.0000
  H   H112      1.0  0.88037  0.71126  0.26642  1.0000
  H   H113      1.0  0.9591599999999999  0.66186  0.27664  1.0000
  H   H114      1.0  0.7934499999999999  0.58317  0.22551  1.0000
  H   H115      1.0  0.9241499999999998  0.63823  0.21934  1.0000
  H   H116      1.0  0.04738999999999999  0.62374  0.24043000000000003  1.0000
  H   H117      1.0  0.23603999999999994  0.49742  0.28371  1.0000
  H   H118      1.0  0.19996  0.32861  0.30457  1.0000
  H   H119      1.0  0.023819999999999956  0.18181999999999995  0.30162  1.0000
  H   H120      1.0  0.8851599999999997  0.20338  0.27969  1.0000
  H   H121      1.0  0.6233299999999998  0.029609999999999997  0.42311  1.0000
  H   H122      1.0  0.8022299999999997  0.16216999999999998  0.43276  1.0000
  H   H123      1.0  0.8895199999999998  0.16058  0.48173  1.0000
  H   H124      1.0  0.79404  0.02359  0.52155  1.0000
  H   H125      1.0  0.4697599999999999  0.75492  0.53034  1.0000
  H   H126      1.0  0.36457999999999985  0.6206299999999998  0.51251  1.0000
  H   H127      1.0  0.2621  0.5647  0.48627  1.0000
  H   H128      1.0  0.28910999999999987  0.71424  0.5391  1.0000
  H   H129      1.0  0.19717  0.58408  0.53782  1.0000
  H   H130      1.0  0.19062999999999988  0.6681699999999999  0.51086  1.0000
  H   H131      1.0  0.1739299999999999  0.7648099999999998  0.38153000000000004  1.0000
  H   H132      1.0  0.12401999999999999  0.83312  0.40058  1.0000
  H   H133      1.0  0.04307000000000003  0.70525  0.38989  1.0000
  H   H134      1.0  0.20894  0.78906  0.44096  1.0000
  H   H135      1.0  0.07811  0.7137  0.44715  1.0000
  H   H136      1.0  0.9534799999999996  0.5749599999999999  0.42533  1.0000
  H   H137      1.0  0.7653099999999999  0.25972  0.38079  1.0000
  H   H138      1.0  0.80155  0.12673  0.36069  1.0000
  H   H139      1.0  0.9766199999999998  0.15511  0.36533  1.0000
  H   H140      1.0  0.11451  0.31541  0.38797  1.0000
  H   H141      1.0  0.40781999999999985  0.3776599999999999  0.75658  1.0000
  H   H142      1.0  0.3626199999999999  0.19952999999999999  0.7664400000000001  1.0000
  H   H143      1.0  0.2712599999999999  0.11102  0.81499  1.0000
  H   H144      1.0  0.22635  0.20486  0.85431  1.0000
  H   H145      1.0  0.28019999999999995  0.5273699999999999  0.86303  1.0000
  H   H146      1.0  0.25615  0.63491  0.8461100000000001  1.0000
  H   H147      1.0  0.30220999999999976  0.7367999999999998  0.81966  1.0000
  H   H148      1.0  0.4264099999999998  0.7114499999999998  0.87224  1.0000
  H   H149      1.0  0.3876999999999999  0.80256  0.87105  1.0000
  H   H150      1.0  0.47824999999999995  0.80981  0.84389  1.0000
  H   H151      1.0  0.59168  0.8283199999999998  0.71503  1.0000
  H   H152      1.0  0.7112799999999996  0.8805899999999998  0.73356  1.0000
  H   H153      1.0  0.6617799999999998  0.95932  0.72337  1.0000
  H   H154      1.0  0.5831799999999997  0.7934399999999998  0.77446  1.0000
  H   H155      1.0  0.63816  0.92416  0.78067  1.0000
  H   H156      1.0  0.62369  0.047429999999999986  0.75957  1.0000
  H   H157      1.0  0.4973599999999999  0.23601  0.7163  1.0000
  H   H158      1.0  0.3286199999999999  0.19998  0.69541  1.0000
  H   H159      1.0  0.18188999999999994  0.02381  0.69833  1.0000
  H   H160      1.0  0.20341  0.8851299999999999  0.72026  1.0000
  H   H161      1.0  0.9706799999999999  0.59102  0.08968  1.0000
  H   H162      1.0  0.8378799999999995  0.6362699999999998  0.09923  1.0000
  H   H163      1.0  0.8410799999999998  0.7282399999999998  0.14761  1.0000
  H   H164      1.0  0.9797299999999997  0.77367  0.18709000000000003  1.0000
  H   H165      1.0  0.24861999999999987  0.7204499999999999  0.19621  1.0000
  H   H166      1.0  0.37952999999999987  0.74312  0.17953  1.0000
  H   H167      1.0  0.43569  0.69788  0.15305  1.0000
  H   H168      1.0  0.28614999999999996  0.5734499999999999  0.20574  1.0000
  H   H169      1.0  0.4160099999999998  0.61126  0.20402000000000003  1.0000
  H   H170      1.0  0.33067999999999975  0.52097  0.17711  1.0000
  H   H171      1.0  0.23452999999999988  0.4077199999999999  0.04814  1.0000
  H   H172      1.0  0.16685999999999995  0.28833  0.06678  1.0000
  H   H173      1.0  0.29517  0.33769  0.05632  1.0000
  H   H174      1.0  0.20937999999999996  0.41683  0.10753  1.0000
  H   H175      1.0  0.28462999999999977  0.36170999999999986  0.1137  1.0000
  H   H176      1.0  0.42288  0.3761699999999999  0.09224  1.0000
  H   H177      1.0  0.7392899999999998  0.50474  0.04877  1.0000
  H   H178      1.0  0.8725599999999998  0.6743199999999999  0.02831  1.0000
  H   H179      1.0  0.8433899999999998  0.82056  0.03172  1.0000
  H   H180      1.0  0.6824399999999997  0.7974699999999999  0.05368  1.0000
  H   H181      1.0  0.40895  0.029339999999999995  0.41034  1.0000
  H   H182      1.0  0.3637  0.16218  0.4008  1.0000
  H   H183      1.0  0.27195999999999987  0.15920999999999993  0.35239  1.0000
  H   H184      1.0  0.22643999999999995  0.02052  0.31292  1.0000
  H   H185      1.0  0.27935  0.75142  0.30379  1.0000
  H   H186      1.0  0.2569299999999999  0.62047  0.32045  1.0000
  H   H187      1.0  0.3021199999999999  0.56436  0.34696  1.0000
  H   H188      1.0  0.42661999999999983  0.7138299999999999  0.29426  1.0000
  H   H189      1.0  0.3887099999999999  0.58396  0.29601  1.0000
  H   H190      1.0  0.47902999999999984  0.6692799999999999  0.32291  1.0000
  H   H191      1.0  0.59218  0.7654  0.45193  1.0000
  H   H192      1.0  0.71144  0.83301  0.43320000000000003  1.0000
  H   H193      1.0  0.66205  0.70467  0.44367  1.0000
  H   H194      1.0  0.5827099999999997  0.7905  0.39255  1.0000
  H   H195      1.0  0.63774  0.7152  0.38632999999999995  1.0000
  H   H196      1.0  0.62324  0.5767399999999999  0.40771  1.0000
  H   H197      1.0  0.49487  0.26062  0.45129  1.0000
  H   H198      1.0  0.32534  0.12723999999999996  0.47174000000000005  1.0000
  H   H199      1.0  0.17905  0.15628999999999996  0.46829  1.0000
  H   H200      1.0  0.20206  0.31728  0.44638  1.0000
  H   H201      1.0  0.9704599999999998  0.37666  0.07685  1.0000
  H   H202      1.0  0.8378399999999998  0.19773999999999997  0.0672  1.0000
  H   H203      1.0  0.8394099999999998  0.11048  0.01823  1.0000
  H   H204      1.0  0.97644  0.20585  0.97844  1.0000
  H   H205      1.0  0.24519  0.53026  0.96968  1.0000
  H   H206      1.0  0.37935999999999975  0.6354399999999998  0.9875000000000002  1.0000
  H   H207      1.0  0.4352899999999998  0.7379499999999998  0.01376  1.0000
  H   H208      1.0  0.28562999999999994  0.71087  0.96094  1.0000
  H   H209      1.0  0.4157999999999999  0.80284  0.96219  1.0000
  H   H210      1.0  0.3317599999999998  0.8093999999999998  0.98918  1.0000
  H   H211      1.0  0.2354599999999999  0.82618  0.11858  1.0000
  H   H212      1.0  0.167  0.8759  0.09953  1.0000
  H   H213      1.0  0.29487999999999986  0.95702  0.11016000000000001  1.0000
  H   H214      1.0  0.21088999999999994  0.79097  0.05912  1.0000
  H   H215      1.0  0.28638  0.92183  0.05292  1.0000
  H   H216      1.0  0.42503999999999986  0.04629  0.07466  1.0000
  H   H217      1.0  0.74038  0.23459  0.11921000000000001  1.0000
  H   H218      1.0  0.8732799999999998  0.1983  0.1393  1.0000
  H   H219      1.0  0.8448799999999997  0.02321  0.13466  1.0000
  H   H220      1.0  0.6845399999999998  0.88529  0.11206  1.0000
  H   H221      1.0  0.6223899999999998  0.5922699999999999  0.74327  1.0000
  H   H222      1.0  0.8004499999999999  0.63758  0.73328  1.0000
  H   H223      1.0  0.8886499999999998  0.7292  0.68471  1.0000
  H   H224      1.0  0.79463  0.77433  0.64553  1.0000
  H   H225      1.0  0.4718899999999998  0.7201299999999999  0.63707  1.0000
  H   H226      1.0  0.3646899999999999  0.7439  0.65396  1.0000
  H   H227      1.0  0.26265999999999995  0.6976199999999999  0.68034  1.0000
  H   H228      1.0  0.2887  0.57373  0.6278  1.0000
  H   H229      1.0  0.1973299999999999  0.6120999999999998  0.62891  1.0000
  H   H230      1.0  0.19018999999999997  0.52163  0.65609  1.0000
  H   H231      1.0  0.17171999999999996  0.4082599999999999  0.78497  1.0000
  H   H232      1.0  0.11953999999999992  0.28864999999999996  0.7664400000000001  1.0000
  H   H233      1.0  0.040709999999999975  0.33801  0.77666  1.0000
  H   H234      1.0  0.20646999999999993  0.4167999999999999  0.72553  1.0000
  H   H235      1.0  0.07572999999999995  0.36169999999999997  0.71935  1.0000
  H   H236      1.0  0.9524299999999999  0.37618  0.74045  1.0000
  H   H237      1.0  0.7638799999999998  0.50265  0.78369  1.0000
  H   H238      1.0  0.79998  0.67146  0.80454  1.0000
  H   H239      1.0  0.9761699999999998  0.8181799999999999  0.80161  1.0000
  H   H240      1.0  0.11479999999999996  0.79655  0.7797  1.0000
  C   C1        1.0  0.3937799999999999  0.047189999999999996  0.96674  1.0000
  C   C2        1.0  0.33803999999999995  0.9699599999999999  0.9446100000000001  1.0000
  C   C3        1.0  0.23816000000000007  0.89647  0.9501500000000002  1.0000
  C   C4        1.0  0.18872999999999993  0.89711  0.9777300000000001  1.0000
  C   C5        1.0  0.24082999999999977  0.9720699999999998  0.99999  1.0000
  C   C6        1.0  0.34193  0.04484  0.9946800000000001  1.0000
  C   C7        1.0  0.4926699999999999  0.19108  0.011520000000000002  1.0000
  C   C8        1.0  0.54038  0.19529  0.98297  1.0000
  C   C9        1.0  0.63948  0.28048  0.97716  1.0000
  C   C10       1.0  0.6906199999999998  0.36665999999999993  1e-05  1.0000
  C   C11       1.0  0.7570999999999998  0.34885  0.02323  1.0000
  C   C12       1.0  0.8814099999999998  0.24111999999999995  0.89881  1.0000
  C   C13       1.0  0.8606699999999998  0.27286  0.9308  1.0000
  C   C14       1.0  0.8478399999999998  0.3643  0.9303000000000001  1.0000
  C   C15       1.0  0.9256799999999997  0.45999  0.9177200000000001  1.0000
  C   C16       1.0  0.025229999999999995  0.47862  0.9165400000000001  1.0000
  C   C17       1.0  0.08166999999999999  0.64083  0.89444  1.0000
  C   C18       1.0  0.15924999999999995  0.7302999999999998  0.88154  1.0000
  C   C19       1.0  0.13819  0.80355  0.87072  1.0000
  C   C20       1.0  0.03953999999999983  0.7871799999999998  0.87334  1.0000
  C   C21       1.0  0.96227  0.69821  0.88609  1.0000
  C   C22       1.0  0.9804799999999997  0.6211999999999998  0.8967900000000001  1.0000
  C   C23       1.0  0.6537199999999997  0.60612  0.29968  1.0000
  C   C24       1.0  0.6311299999999999  0.6611499999999998  0.2777  1.0000
  C   C25       1.0  0.6570699999999997  0.7607099999999998  0.2833  1.0000
  C   C26       1.0  0.7079799999999998  0.81064  0.31075  1.0000
  C   C27       1.0  0.73197  0.7593  0.33287  1.0000
  C   C28       1.0  0.7039699999999998  0.6584599999999999  0.32752  1.0000
  C   C29       1.0  0.7002499999999998  0.50851  0.34432  1.0000
  C   C30       1.0  0.65583  0.46024  0.31591  1.0000
  C   C31       1.0  0.6411199999999998  0.361  0.31034  1.0000
  C   C32       1.0  0.6760099999999997  0.3103299999999999  0.33331  1.0000
  C   C33       1.0  0.5910799999999998  0.24300999999999998  0.35636  1.0000
  C   C34       1.0  0.35856  0.11581999999999999  0.23226  1.0000
  C   C35       1.0  0.4100799999999999  0.13728  0.26445  1.0000
  C   C36       1.0  0.5148299999999998  0.15112999999999993  0.26414  1.0000
  C   C37       1.0  0.53255  0.0734  0.2517  1.0000
  C   C38       1.0  0.4512399999999998  0.97366  0.25084  1.0000
  C   C39       1.0  0.5567399999999999  0.9174499999999998  0.22877000000000003  1.0000
  C   C40       1.0  0.56816  0.83944  0.21630000000000002  1.0000
  C   C41       1.0  0.6620699999999999  0.86047  0.20505  1.0000
  C   C42       1.0  0.7444199999999999  0.9597399999999998  0.20676  1.0000
  C   C43       1.0  0.7332099999999998  0.03745  0.21914  1.0000
  C   C44       1.0  0.6384899999999998  0.019059999999999997  0.23046  1.0000
  C   C45       1.0  0.9515499999999998  0.3468  0.63303  1.0000
  C   C46       1.0  0.029239999999999957  0.36976999999999993  0.61098  1.0000
  C   C47       1.0  0.10274999999999994  0.34380999999999995  0.61641  1.0000
  C   C48       1.0  0.10127999999999997  0.29209  0.64371  1.0000
  C   C49       1.0  0.025549999999999976  0.26725  0.66581  1.0000
  C   C50       1.0  0.9530399999999997  0.29557999999999995  0.66069  1.0000
  C   C51       1.0  0.80639  0.29835  0.67758  1.0000
  C   C52       1.0  0.8034099999999997  0.34423  0.6493800000000001  1.0000
  C   C53       1.0  0.71903  0.3590899999999999  0.64382  1.0000
  C   C54       1.0  0.63312  0.3242299999999999  0.66675  1.0000
  C   C55       1.0  0.65118  0.40938999999999987  0.68969  1.0000
  C   C56       1.0  0.75932  0.6419499999999998  0.56537  1.0000
  C   C57       1.0  0.72841  0.59012  0.59752  1.0000
  C   C58       1.0  0.63671  0.4854  0.59721  1.0000
  C   C59       1.0  0.54123  0.46753  0.58462  1.0000
  C   C60       1.0  0.5229599999999999  0.54869  0.58357  1.0000
  C   C61       1.0  0.36048  0.4420799999999999  0.56161  1.0000
  C   C62       1.0  0.27076999999999984  0.42990999999999996  0.54906  1.0000
  C   C63       1.0  0.19749999999999993  0.33551999999999993  0.53801  1.0000
  C   C64       1.0  0.21428999999999995  0.25347  0.53998  1.0000
  C   C65       1.0  0.3034799999999999  0.26547  0.5524  1.0000
  C   C66       1.0  0.3802299999999999  0.36066  0.5635  1.0000
  C   C67       1.0  0.6531899999999998  0.04838  0.86698  1.0000
  C   C68       1.0  0.6301599999999999  0.9706699999999998  0.88903  1.0000
  C   C69       1.0  0.6561399999999998  0.8971699999999998  0.88359  1.0000
  C   C70       1.0  0.7078099999999996  0.8985999999999997  0.8563  1.0000
  C   C71       1.0  0.7326799999999998  0.9743399999999999  0.83421  1.0000
  C   C72       1.0  0.7043999999999998  0.04689  0.83933  1.0000
  C   C73       1.0  0.7017  0.19361999999999993  0.82244  1.0000
  C   C74       1.0  0.65577  0.19655  0.8506200000000002  1.0000
  C   C75       1.0  0.64088  0.28093  0.85618  1.0000
  C   C76       1.0  0.67566  0.36685  0.83326  1.0000
  C   C77       1.0  0.59053  0.34882  0.81031  1.0000
  C   C78       1.0  0.3581499999999999  0.24066  0.9346600000000002  1.0000
  C   C79       1.0  0.40993  0.2716  0.90251  1.0000
  C   C80       1.0  0.5146599999999998  0.3632599999999999  0.9028100000000001  1.0000
  C   C81       1.0  0.53249  0.45872  0.91541  1.0000
  C   C82       1.0  0.4514  0.47705  0.91644  1.0000
  C   C83       1.0  0.5579199999999997  0.63955  0.9384  1.0000
  C   C84       1.0  0.57006  0.72927  0.95096  1.0000
  C   C85       1.0  0.66443  0.80252  0.9620099999999999  1.0000
  C   C86       1.0  0.7464799999999996  0.7857799999999998  0.9600400000000001  1.0000
  C   C87       1.0  0.7344699999999995  0.6965299999999998  0.9476300000000001  1.0000
  C   C88       1.0  0.6392899999999996  0.6197999999999998  0.93652  1.0000
  C   C89       1.0  0.9528699999999997  0.6060999999999998  0.53325  1.0000
  C   C90       1.0  0.02999000000000001  0.66189  0.5554  1.0000
  C   C91       1.0  0.10345999999999989  0.76182  0.54988  1.0000
  C   C92       1.0  0.10278000000000002  0.81122  0.52229  1.0000
  C   C93       1.0  0.027919999999999986  0.75912  0.50001  1.0000
  C   C94       1.0  0.9552099999999997  0.6579499999999998  0.5053  1.0000
  C   C95       1.0  0.80905  0.50715  0.48845  1.0000
  C   C96       1.0  0.8048099999999998  0.45949  0.51701  1.0000
  C   C97       1.0  0.7195099999999998  0.36045  0.52283  1.0000
  C   C98       1.0  0.6332899999999999  0.30942999999999987  0.49998000000000004  1.0000
  C   C99       1.0  0.6508999999999999  0.24288999999999994  0.47673  1.0000
  C   C100      1.0  0.75873  0.11851999999999997  0.60119  1.0000
  C   C101      1.0  0.7270199999999998  0.13937999999999998  0.56921  1.0000
  C   C102      1.0  0.6355799999999998  0.15217  0.56974  1.0000
  C   C103      1.0  0.53988  0.07433  0.58232  1.0000
  C   C104      1.0  0.5212999999999998  0.97475  0.58349  1.0000
  C   C105      1.0  0.3590899999999998  0.9183499999999998  0.60557  1.0000
  C   C106      1.0  0.26959  0.8406899999999999  0.61841  1.0000
  C   C107      1.0  0.1962899999999998  0.8616399999999997  0.62921  1.0000
  C   C108      1.0  0.21269  0.96033  0.62662  1.0000
  C   C109      1.0  0.30168999999999996  0.03767999999999999  0.61393  1.0000
  C   C110      1.0  0.37875  0.019589999999999993  0.60324  1.0000
  C   C111      1.0  0.3936399999999999  0.34531  0.20013  1.0000
  C   C112      1.0  0.33871  0.36845  0.22200000000000003  1.0000
  C   C113      1.0  0.23921999999999993  0.34261  0.21634000000000003  1.0000
  C   C114      1.0  0.18914999999999996  0.29115  0.18897000000000003  1.0000
  C   C115      1.0  0.24030999999999994  0.26646  0.16699  1.0000
  C   C116      1.0  0.3410999999999999  0.29446  0.17238  1.0000
  C   C117      1.0  0.4908399999999999  0.29771  0.15564  1.0000
  C   C118      1.0  0.5394499999999998  0.34301999999999994  0.18395  1.0000
  C   C119      1.0  0.63895  0.35831999999999997  0.18952  1.0000
  C   C120      1.0  0.68999  0.32377  0.16658  1.0000
  C   C121      1.0  0.7570699999999998  0.40881999999999996  0.14354  1.0000
  C   C122      1.0  0.8840299999999995  0.64151  0.26774  1.0000
  C   C123      1.0  0.8626399999999997  0.5900299999999999  0.23553  1.0000
  C   C124      1.0  0.8488099999999998  0.4852399999999999  0.2358  1.0000
  C   C125      1.0  0.9265299999999997  0.46753  0.24827  1.0000
  C   C126      1.0  0.02627000000000005  0.54882  0.24914  1.0000
  C   C127      1.0  0.08247  0.44327  0.27117  1.0000
  C   C128      1.0  0.16049999999999998  0.4318799999999999  0.28363  1.0000
  C   C129      1.0  0.13947  0.33792  0.29489  1.0000
  C   C130      1.0  0.04020000000000001  0.25559  0.29319  1.0000
  C   C131      1.0  0.9624999999999998  0.26678  0.28081  1.0000
  C   C132      1.0  0.9808599999999998  0.36154  0.26949  1.0000
  C   C133      1.0  0.6061199999999998  0.95286  0.46674  1.0000
  C   C134      1.0  0.6618999999999998  0.030049999999999993  0.44460000000000005  1.0000
  C   C135      1.0  0.7617999999999998  0.1035  0.45013  1.0000
  C   C136      1.0  0.8111999999999998  0.10284  0.47772  1.0000
  C   C137      1.0  0.7590799999999998  0.027929999999999996  0.5  1.0000
  C   C138      1.0  0.6579499999999998  0.9552099999999999  0.49469  1.0000
  C   C139      1.0  0.50721  0.809  0.51154  1.0000
  C   C140      1.0  0.4595199999999999  0.80475  0.48298  1.0000
  C   C141      1.0  0.3604599999999999  0.7195  0.47717  1.0000
  C   C142      1.0  0.3093999999999999  0.6333  0.50002  1.0000
  C   C143      1.0  0.24293999999999982  0.6510399999999997  0.52326  1.0000
  C   C144      1.0  0.11859  0.75894  0.39887000000000006  1.0000
  C   C145      1.0  0.13925999999999988  0.7271299999999998  0.43087000000000003  1.0000
  C   C146      1.0  0.15203  0.63565  0.43035  1.0000
  C   C147      1.0  0.07415000000000004  0.54002  0.41775000000000007  1.0000
  C   C148      1.0  0.9745999999999998  0.52137  0.41656  1.0000
  C   C149      1.0  0.9181999999999996  0.35917  0.39445  1.0000
  C   C150      1.0  0.8406100000000001  0.26972  0.38156  1.0000
  C   C151      1.0  0.8616699999999998  0.19646999999999995  0.37074  1.0000
  C   C152      1.0  0.9603199999999995  0.21283999999999995  0.37337  1.0000
  C   C153      1.0  0.03758999999999997  0.30180999999999997  0.38611  1.0000
  C   C154      1.0  0.019379999999999963  0.37880999999999987  0.39682000000000006  1.0000
  C   C155      1.0  0.3454799999999999  0.39356  0.7998  1.0000
  C   C156      1.0  0.36858999999999986  0.33871  0.77791  1.0000
  C   C157      1.0  0.3427599999999999  0.23916999999999994  0.78354  1.0000
  C   C158      1.0  0.2913299999999999  0.18901999999999997  0.8109000000000001  1.0000
  C   C159      1.0  0.26679  0.24017  0.8329100000000002  1.0000
  C   C160      1.0  0.29479  0.341  0.82757  1.0000
  C   C161      1.0  0.29801999999999984  0.4907099999999999  0.8443400000000001  1.0000
  C   C162      1.0  0.3431799999999998  0.5393599999999998  0.81602  1.0000
  C   C163      1.0  0.35838  0.63885  0.81046  1.0000
  C   C164      1.0  0.3238499999999999  0.68994  0.8333900000000001  1.0000
  C   C165      1.0  0.40888999999999986  0.75714  0.8564300000000001  1.0000
  C   C166      1.0  0.6415  0.88418  0.73226  1.0000
  C   C167      1.0  0.5899899999999998  0.8626599999999999  0.7644700000000001  1.0000
  C   C168      1.0  0.48517999999999983  0.8487399999999998  0.76418  1.0000
  C   C169      1.0  0.46744999999999987  0.92649  0.75174  1.0000
  C   C170      1.0  0.54876  0.02627  0.75087  1.0000
  C   C171      1.0  0.4432199999999999  0.08247  0.72883  1.0000
  C   C172      1.0  0.43179  0.16049  0.71637  1.0000
  C   C173      1.0  0.3379199999999999  0.13946  0.70509  1.0000
  C   C174      1.0  0.25559  0.04017999999999999  0.70678  1.0000
  C   C175      1.0  0.26681  0.96248  0.71916  1.0000
  C   C176      1.0  0.3615099999999998  0.98086  0.7305  1.0000
  C   C177      1.0  0.04845999999999998  0.65316  0.13303  1.0000
  C   C178      1.0  0.9707599999999996  0.6301599999999998  0.11099  1.0000
  C   C179      1.0  0.8972599999999997  0.65614  0.11643  1.0000
  C   C180      1.0  0.8987299999999996  0.70785  0.14373  1.0000
  C   C181      1.0  0.9744999999999996  0.73273  0.16581  1.0000
  C   C182      1.0  0.04700999999999995  0.7044099999999999  0.16068  1.0000
  C   C183      1.0  0.19368999999999995  0.7016799999999999  0.17757  1.0000
  C   C184      1.0  0.19661999999999988  0.6557599999999998  0.14937  1.0000
  C   C185      1.0  0.28097  0.64085  0.14382  1.0000
  C   C186      1.0  0.36687999999999993  0.6756799999999998  0.16674  1.0000
  C   C187      1.0  0.34878999999999993  0.5905099999999999  0.18969000000000003  1.0000
  C   C188      1.0  0.2406799999999999  0.3580799999999999  0.06533  1.0000
  C   C189      1.0  0.27156999999999987  0.40982999999999997  0.09749  1.0000
  C   C190      1.0  0.36323999999999995  0.5145499999999998  0.0972  1.0000
  C   C191      1.0  0.45872999999999997  0.53243  0.0846  1.0000
  C   C192      1.0  0.47695  0.45126  0.08355  1.0000
  C   C193      1.0  0.6394499999999999  0.5578099999999999  0.06160000000000001  1.0000
  C   C194      1.0  0.7291699999999998  0.56996  0.04907  1.0000
  C   C195      1.0  0.80247  0.66434  0.03801  1.0000
  C   C196      1.0  0.7856999999999998  0.7464099999999999  0.03995  1.0000
  C   C197      1.0  0.69652  0.73445  0.05238  1.0000
  C   C198      1.0  0.61974  0.63927  0.06349  1.0000
  C   C199      1.0  0.3467699999999999  0.95163  0.36697  1.0000
  C   C200      1.0  0.36982  0.029319999999999995  0.38903000000000004  1.0000
  C   C201      1.0  0.3438699999999999  0.10284  0.3836  1.0000
  C   C202      1.0  0.2922499999999999  0.10147999999999997  0.3563  1.0000
  C   C203      1.0  0.26734  0.025739999999999996  0.3342  1.0000
  C   C204      1.0  0.29556  0.95315  0.3393300000000001  1.0000
  C   C205      1.0  0.29819  0.8063799999999998  0.32243  1.0000
  C   C206      1.0  0.3441099999999998  0.8034299999999998  0.35062  1.0000
  C   C207      1.0  0.3590199999999999  0.71905  0.35618  1.0000
  C   C208      1.0  0.3243399999999999  0.63317  0.33326  1.0000
  C   C209      1.0  0.40951  0.65122  0.31033  1.0000
  C   C210      1.0  0.6416799999999997  0.7591999999999998  0.43469  1.0000
  C   C211      1.0  0.5897399999999998  0.7283  0.40257000000000004  1.0000
  C   C212      1.0  0.4850399999999999  0.63665  0.40287  1.0000
  C   C213      1.0  0.46719  0.54117  0.41548000000000007  1.0000
  C   C214      1.0  0.54823  0.52278  0.41646  1.0000
  C   C215      1.0  0.44170999999999994  0.3603299999999999  0.43846  1.0000
  C   C216      1.0  0.42960000000000004  0.27061  0.4510100000000001  1.0000
  C   C217      1.0  0.33522999999999986  0.19733  0.46206  1.0000
  C   C218      1.0  0.25315999999999994  0.21406  0.46008  1.0000
  C   C219      1.0  0.2651599999999999  0.30333999999999994  0.44769  1.0000
  C   C220      1.0  0.3603499999999999  0.3801  0.43659  1.0000
  C   C221      1.0  0.047209999999999995  0.39383  0.03324  1.0000
  C   C222      1.0  0.97001  0.33808  0.05537  1.0000
  C   C223      1.0  0.8965199999999998  0.23817999999999995  0.04984  1.0000
  C   C224      1.0  0.89719  0.18878  0.02225  1.0000
  C   C225      1.0  0.9721199999999997  0.24083999999999994  0.99999  1.0000
  C   C226      1.0  0.04488999999999998  0.34197  0.0053  1.0000
  C   C227      1.0  0.19109999999999994  0.49273  0.9884600000000001  1.0000
  C   C228      1.0  0.19528999999999996  0.54041  0.01701  1.0000
  C   C229      1.0  0.2804999999999998  0.6394999999999997  0.02284  1.0000
  C   C230      1.0  0.3666899999999999  0.69062  0.0  1.0000
  C   C231      1.0  0.34887999999999986  0.7570899999999999  0.9767700000000001  1.0000
  C   C232      1.0  0.2412099999999999  0.88141  0.10120999999999998  1.0000
  C   C233      1.0  0.27291  0.86063  0.06921  1.0000
  C   C234      1.0  0.3643499999999999  0.84781  0.06972  1.0000
  C   C235      1.0  0.4600599999999998  0.9256499999999998  0.0823  1.0000
  C   C236      1.0  0.4786499999999999  0.025239999999999995  0.08346  1.0000
  C   C237      1.0  0.64082  0.08163  0.10556000000000001  1.0000
  C   C238      1.0  0.7302999999999997  0.15924  0.11844  1.0000
  C   C239      1.0  0.8035399999999998  0.13821  0.12925  1.0000
  C   C240      1.0  0.7871699999999998  0.03953999999999999  0.12663  1.0000
  C   C241      1.0  0.6982  0.96224  0.11392000000000001  1.0000
  C   C242      1.0  0.6211799999999997  0.98039  0.10322  1.0000
  C   C243      1.0  0.60616  0.65473  0.70011  1.0000
  C   C244      1.0  0.66123  0.6315999999999999  0.72193  1.0000
  C   C245      1.0  0.7606999999999998  0.65751  0.71622  1.0000
  C   C246      1.0  0.8106699999999999  0.70909  0.68885  1.0000
  C   C247      1.0  0.7593599999999998  0.73376  0.66692  1.0000
  C   C248      1.0  0.65857  0.7056599999999997  0.67234  1.0000
  C   C249      1.0  0.5086899999999999  0.7022899999999999  0.65571  1.0000
  C   C250      1.0  0.46024999999999977  0.6569399999999997  0.68403  1.0000
  C   C251      1.0  0.36078999999999994  0.64164  0.68961  1.0000
  C   C252      1.0  0.3096799999999998  0.6761099999999998  0.66666  1.0000
  C   C253      1.0  0.24279  0.59107  0.64358  1.0000
  C   C254      1.0  0.11583999999999998  0.35838  0.7677600000000001  1.0000
  C   C255      1.0  0.13722999999999994  0.4098799999999999  0.73555  1.0000
  C   C256      1.0  0.1510299999999999  0.5146599999999999  0.73586  1.0000
  C   C257      1.0  0.0732999999999999  0.5323699999999999  0.7483  1.0000
  C   C258      1.0  0.9735499999999998  0.4510999999999999  0.74916  1.0000
  C   C259      1.0  0.9174199999999998  0.55672  0.77116  1.0000
  C   C260      1.0  0.8394099999999998  0.56817  0.78361  1.0000
  C   C261      1.0  0.86046  0.6621199999999998  0.79487  1.0000
  C   C262      1.0  0.95975  0.74441  0.79317  1.0000
  C   C263      1.0  0.03742999999999999  0.7331799999999999  0.78081  1.0000
  C   C264      1.0  0.01904  0.63841  0.7694900000000001  1.0000
  N   N1        1.0  0.39698  0.11938  0.01746  1.0000
  N   N2        1.0  0.4914199999999999  0.12096999999999998  0.9609  1.0000
  N   N3        1.0  0.68735  0.27808  0.95144  1.0000
  N   N4        1.0  0.7685499999999997  0.36483  0.94255  1.0000
  N   N5        1.0  0.9034399999999999  0.53216  0.9084  1.0000
  N   N6        1.0  0.10223999999999993  0.5665  0.90592  1.0000
  N   N7        1.0  0.72418  0.60399  0.35022  1.0000
  N   N8        1.0  0.62987  0.5086  0.29388  1.0000
  N   N9        1.0  0.5900999999999997  0.31242  0.28475000000000006  1.0000
  N   N10       1.0  0.59512  0.23102  0.27612  1.0000
  N   N11       1.0  0.62685  0.09614999999999997  0.24198  1.0000
  N   N12       1.0  0.4617999999999999  0.8967699999999997  0.24026  1.0000
  N   N13       1.0  0.8777199999999997  0.27419  0.68332  1.0000
  N   N14       1.0  0.8782299999999996  0.37102999999999997  0.6274  1.0000
  N   N15       1.0  0.7220599999999998  0.41041  0.61825  1.0000
  N   N16       1.0  0.6356799999999998  0.4053  0.60947  1.0000
  N   N17       1.0  0.46918  0.37292  0.57507  1.0000
  N   N18       1.0  0.4349599999999999  0.53734  0.5730900000000001  1.0000
  N   N19       1.0  0.7257399999999998  0.12219  0.81669  1.0000
  N   N20       1.0  0.6289299999999998  0.12167999999999998  0.8725900000000001  1.0000
  N   N21       1.0  0.5895999999999998  0.27792  0.88175  1.0000
  N   N22       1.0  0.5947499999999998  0.36431  0.8905500000000001  1.0000
  N   N23       1.0  0.62705  0.5308399999999999  0.92496  1.0000
  N   N24       1.0  0.46273999999999976  0.56506  0.9269  1.0000
  N   N25       1.0  0.88062  0.60293  0.48252  1.0000
  N   N26       1.0  0.8790999999999995  0.5084199999999999  0.53909  1.0000
  N   N27       1.0  0.7218499999999998  0.31266  0.54858  1.0000
  N   N28       1.0  0.6350899999999998  0.23149  0.55748  1.0000
  N   N29       1.0  0.46782  0.09666  0.59166  1.0000
  N   N30       1.0  0.43338999999999983  0.8977499999999998  0.59409  1.0000
  N   N31       1.0  0.3953199999999999  0.2736799999999999  0.14975  1.0000
  N   N32       1.0  0.49118999999999985  0.3693199999999999  0.20592  1.0000
  N   N33       1.0  0.6875699999999998  0.40974  0.21507  1.0000
  N   N34       1.0  0.7690899999999998  0.4049699999999999  0.22373  1.0000
  N   N35       1.0  0.90378  0.37318  0.25797  1.0000
  N   N36       1.0  0.10317999999999994  0.53825  0.25968  1.0000
  N   N37       1.0  0.60291  0.8806699999999998  0.51747  1.0000
  N   N38       1.0  0.5084699999999998  0.8790799999999998  0.46090000000000003  1.0000
  N   N39       1.0  0.31253  0.72187  0.45146  1.0000
  N   N40       1.0  0.23134  0.63511  0.44258  1.0000
  N   N41       1.0  0.09638999999999995  0.46783999999999987  0.40844  1.0000
  N   N42       1.0  0.8976299999999998  0.43349  0.40592999999999996  1.0000
  N   N43       1.0  0.2740899999999999  0.39518  0.85023  1.0000
  N   N44       1.0  0.3694199999999999  0.4911199999999999  0.79402  1.0000
  N   N45       1.0  0.4096999999999998  0.6874299999999998  0.78489  1.0000
  N   N46       1.0  0.4049199999999998  0.7689499999999998  0.77623  1.0000
  N   N47       1.0  0.37313999999999986  0.9037599999999999  0.74202  1.0000
  N   N48       1.0  0.5381599999999997  0.10316999999999997  0.74032  1.0000
  N   N49       1.0  0.12234  0.72581  0.18331  1.0000
  N   N50       1.0  0.12176999999999995  0.62892  0.12741  1.0000
  N   N51       1.0  0.2779099999999999  0.58954  0.11825000000000001  1.0000
  N   N52       1.0  0.36426999999999987  0.59463  0.10946  1.0000
  N   N53       1.0  0.5307899999999998  0.62704  0.07505  1.0000
  N   N54       1.0  0.5649299999999997  0.46255999999999997  0.07308  1.0000
  N   N55       1.0  0.2742099999999999  0.8778599999999998  0.31668  1.0000
  N   N56       1.0  0.37097999999999987  0.8782899999999998  0.37258  1.0000
  N   N57       1.0  0.4101499999999999  0.722  0.38178000000000006  1.0000
  N   N58       1.0  0.4049899999999999  0.6356  0.39059000000000005  1.0000
  N   N59       1.0  0.3726399999999999  0.46909  0.42504000000000003  1.0000
  N   N60       1.0  0.5368399999999998  0.43472  0.4269200000000001  1.0000
  N   N61       1.0  0.11945999999999994  0.3969699999999999  0.9825300000000001  1.0000
  N   N62       1.0  0.12099  0.49149  0.03909  1.0000
  N   N63       1.0  0.27809  0.68728  0.04858  1.0000
  N   N64       1.0  0.3648299999999999  0.76847  0.05748  1.0000
  N   N65       1.0  0.5321399999999997  0.90333  0.09162  1.0000
  N   N66       1.0  0.5665299999999999  0.10223999999999997  0.09409  1.0000
  N   N67       1.0  0.6041899999999997  0.7264799999999998  0.64977  1.0000
  N   N68       1.0  0.5086199999999997  0.63067  0.70597  1.0000
  N   N69       1.0  0.31228  0.59025  0.71517  1.0000
  N   N70       1.0  0.23076999999999992  0.5949899999999999  0.7238300000000001  1.0000
  N   N71       1.0  0.09611999999999983  0.6267399999999997  0.758  1.0000
  N   N72       1.0  0.8966599999999998  0.4617099999999999  0.75969  1.0000
  O   O1        1.0  0.19618  0.58614  0.9060800000000001  1.0000
  O   O2        1.0  0.3511799999999998  0.11477  0.04407  1.0000
  O   O3        1.0  0.3869699999999998  0.8028499999999997  0.24037000000000003  1.0000
  O   O4        1.0  0.7651599999999997  0.64963  0.37689  1.0000
  O   O5        1.0  0.41515999999999975  0.6114299999999999  0.57319  1.0000
  O   O6        1.0  0.8813599999999998  0.23137  0.70969  1.0000
  O   O7        1.0  0.3886200000000001  0.5848  0.9267700000000001  1.0000
  O   O8        1.0  0.7684299999999997  0.11843999999999999  0.79031  1.0000
  O   O9        1.0  0.4136199999999999  0.80374  0.59394  1.0000
  O   O10       1.0  0.8849999999999998  0.6487799999999998  0.45594  1.0000
  O   O11       1.0  0.19711  0.61307  0.25963  1.0000
  O   O12       1.0  0.3492299999999999  0.23202999999999993  0.12317  1.0000
  O   O13       1.0  0.8036599999999998  0.41379999999999995  0.40607  1.0000
  O   O14       1.0  0.6487299999999998  0.88522  0.54407  1.0000
  O   O15       1.0  0.61294  0.19711999999999996  0.74038  1.0000
  O   O16       1.0  0.23263  0.3491  0.87682  1.0000
  O   O17       1.0  0.5845799999999998  0.38837  0.07318  1.0000
  O   O18       1.0  0.11871999999999994  0.76864  0.20968000000000003  1.0000
  O   O19       1.0  0.6108399999999998  0.4148199999999999  0.42674000000000006  1.0000
  O   O20       1.0  0.23156999999999983  0.8816699999999997  0.2903  1.0000
  O   O21       1.0  0.5862699999999998  0.19625  0.09395000000000002  1.0000
  O   O22       1.0  0.11489000000000002  0.35112  0.95593  1.0000
  O   O23       1.0  0.8026899999999999  0.38693  0.75963  1.0000
  O   O24       1.0  0.6499999999999998  0.7684499999999999  0.6232  1.0000
