data_image0
_chemical_formula_structural       Cu62H144C96S48Br8N192
_chemical_formula_sum              "Cu62 H144 C96 S48 Br8 N192"
_cell_length_a       24.77299
_cell_length_b       24.76292
_cell_length_c       24.7714
_cell_angle_alpha    59.98686
_cell_angle_beta     59.98585
_cell_angle_gamma    59.98146000000002

_symmetry_space_group_name_H-M    'P 1'
_symmetry_Int_Tables_number       1

loop_
  _symmetry_equiv_pos_as_xyz
  'x,y,z'

loop_
  _atom_site_type_symbol
  _atom_site_label
  _atom_site_symmetry_multiplicity
  _atom_site_fract_x
  _atom_site_fract_y
  _atom_site_fract_z
  _atom_site_occupancy
  Cu  Cu1       1.0  0.025790000000000004  0.20326999999999995  0.61597  1.0000
  Cu  Cu2       1.0  0.8677099999999999  0.2261  0.6644  1.0000
  Cu  Cu3       1.0  0.15517999999999998  0.61595  0.20307  1.0000
  Cu  Cu4       1.0  0.24172999999999997  0.66453  0.22604  1.0000
  Cu  Cu5       1.0  0.6157399999999997  0.15521  0.026000000000000002  1.0000
  Cu  Cu6       1.0  0.6645199999999998  0.24165  0.86808  1.0000
  Cu  Cu7       1.0  0.20264  0.02599  0.15501  1.0000
  Cu  Cu8       1.0  0.22613999999999992  0.8679300000000002  0.2414  1.0000
  Cu  Cu9       1.0  0.20318999999999998  0.61604  0.025850000000000005  1.0000
  Cu  Cu10      1.0  0.22624999999999973  0.6643100000000002  0.86778  1.0000
  Cu  Cu11      1.0  0.6158499999999999  0.20312000000000002  0.15529000000000004  1.0000
  Cu  Cu12      1.0  0.66456  0.22591999999999995  0.24197000000000002  1.0000
  Cu  Cu13      1.0  0.15521  0.026060000000000017  0.61557  1.0000
  Cu  Cu14      1.0  0.24177999999999994  0.868  0.6645  1.0000
  Cu  Cu15      1.0  0.02596999999999998  0.15506000000000003  0.20253000000000002  1.0000
  Cu  Cu16      1.0  0.8679799999999999  0.24139000000000002  0.22609  1.0000
  Cu  Cu17      1.0  0.61619  0.025980000000000013  0.20298  1.0000
  Cu  Cu18      1.0  0.66435  0.86798  0.22615  1.0000
  Cu  Cu19      1.0  0.20268000000000003  0.15515  0.61625  1.0000
  Cu  Cu20      1.0  0.22596000000000002  0.24159  0.66454  1.0000
  Cu  Cu21      1.0  0.02602  0.61536  0.15525  1.0000
  Cu  Cu22      1.0  0.8678299999999995  0.66446  0.24185  1.0000
  Cu  Cu23      1.0  0.15507999999999997  0.20293  0.025890000000000003  1.0000
  Cu  Cu24      1.0  0.2417099999999999  0.2259699999999999  0.8676700000000002  1.0000
  Cu  Cu25      1.0  0.5257499999999997  0.11602000000000003  0.70335  1.0000
  Cu  Cu26      1.0  0.36774999999999997  0.16438999999999998  0.72625  1.0000
  Cu  Cu27      1.0  0.6552499999999999  0.70329  0.11579000000000002  1.0000
  Cu  Cu28      1.0  0.74192  0.72591  0.16463  1.0000
  Cu  Cu29      1.0  0.11546000000000001  0.52601  0.6552100000000001  1.0000
  Cu  Cu30      1.0  0.16450000000000006  0.36798999999999993  0.74174  1.0000
  Cu  Cu31      1.0  0.7026800000000004  0.65505  0.52589  1.0000
  Cu  Cu32      1.0  0.72611  0.74132  0.36797  1.0000
  Cu  Cu33      1.0  0.70312  0.52585  0.11615  1.0000
  Cu  Cu34      1.0  0.72618  0.36793  0.16435  1.0000
  Cu  Cu35      1.0  0.11617  0.65518  0.7028600000000002  1.0000
  Cu  Cu36      1.0  0.16454999999999995  0.74162  0.72597  1.0000
  Cu  Cu37      1.0  0.6552900000000002  0.11529999999999999  0.5259  1.0000
  Cu  Cu38      1.0  0.74179  0.16445999999999997  0.36786  1.0000
  Cu  Cu39      1.0  0.52579  0.70306  0.65508  1.0000
  Cu  Cu40      1.0  0.36761999999999956  0.72599  0.7417200000000002  1.0000
  Cu  Cu41      1.0  0.1159199999999999  0.70342  0.52572  1.0000
  Cu  Cu42      1.0  0.16444000000000006  0.72607  0.36769  1.0000
  Cu  Cu43      1.0  0.7031899999999998  0.11588999999999999  0.65514  1.0000
  Cu  Cu44      1.0  0.7260099999999999  0.16456999999999997  0.74179  1.0000
  Cu  Cu45      1.0  0.5259399999999999  0.65516  0.1157  1.0000
  Cu  Cu46      1.0  0.36801999999999996  0.7416800000000001  0.16454  1.0000
  Cu  Cu47      1.0  0.65497  0.52593  0.70281  1.0000
  Cu  Cu48      1.0  0.74145  0.3679  0.72608  1.0000
  Cu  Cu49      1.0  0.15353999999999998  0.15378000000000003  0.53972  1.0000
  Cu  Cu50      1.0  0.15377000000000002  0.53966  0.15345  1.0000
  Cu  Cu51      1.0  0.5397900000000001  0.15357999999999997  0.15364000000000003  1.0000
  Cu  Cu52      1.0  0.15314  0.15331  0.15321  1.0000
  Cu  Cu53      1.0  0.65349  0.039689999999999996  0.65372  1.0000
  Cu  Cu54      1.0  0.65362  0.65354  0.03981  1.0000
  Cu  Cu55      1.0  0.039729999999999974  0.6538400000000001  0.65349  1.0000
  Cu  Cu56      1.0  0.65322  0.6532799999999999  0.65315  1.0000
  Cu  Cu57      1.0  0.74986  0.24997  0.75012  1.0000
  Cu  Cu58      1.0  0.25009999999999977  0.74999  0.24987000000000004  1.0000
  Cu  Cu59      1.0  0.24990999999999997  0.7500299999999999  0.74993  1.0000
  Cu  Cu60      1.0  0.7500099999999997  0.24995  0.25011  1.0000
  Cu  Cu61      1.0  0.75005  0.7499300000000001  0.25006  1.0000
  Cu  Cu62      1.0  0.2499100000000001  0.25007999999999997  0.7499  1.0000
  H   H1        1.0  0.89722  0.28856999999999994  0.8107400000000001  1.0000
  H   H2        1.0  0.06945999999999994  0.21464999999999995  0.7082000000000002  1.0000
  H   H3        1.0  0.031189999999999964  0.23574999999999988  0.7768100000000001  1.0000
  H   H4        1.0  0.03374000000000003  0.37941  0.57106  1.0000
  H   H5        1.0  0.12596999999999992  0.39518  0.6433300000000001  1.0000
  H   H6        1.0  0.04697000000000001  0.42207999999999996  0.6494500000000001  1.0000
  H   H7        1.0  0.0031100000000000277  0.81063  0.28877  1.0000
  H   H8        1.0  0.007319999999999963  0.70818  0.21469000000000002  1.0000
  H   H9        1.0  0.9558799999999997  0.7766200000000001  0.23610000000000003  1.0000
  H   H10       1.0  0.01612000000000001  0.57118  0.37902  1.0000
  H   H11       1.0  0.8357899999999996  0.64318  0.39488  1.0000
  H   H12       1.0  0.8816599999999996  0.64925  0.42195  1.0000
  H   H13       1.0  0.80858  0.002759999999999977  0.89781  1.0000
  H   H14       1.0  0.7070899999999998  0.0070500000000000024  0.07006  1.0000
  H   H15       1.0  0.7752699999999999  0.95535  0.03179  1.0000
  H   H16       1.0  0.5702999999999999  0.016089999999999997  0.03449  1.0000
  H   H17       1.0  0.6429199999999998  0.83577  0.12633  1.0000
  H   H18       1.0  0.64914  0.88202  0.04727  1.0000
  H   H19       1.0  0.2915799999999999  0.8969100000000001  0.00274  1.0000
  H   H20       1.0  0.21637999999999993  0.06965  0.00656  1.0000
  H   H21       1.0  0.23867999999999995  0.031200000000000012  0.95476  1.0000
  H   H22       1.0  0.3788099999999999  0.03371  0.01592  1.0000
  H   H23       1.0  0.39493  0.12594999999999995  0.8356400000000002  1.0000
  H   H24       1.0  0.4217399999999999  0.04699  0.88178  1.0000
  H   H25       1.0  0.28797000000000006  0.8113099999999999  0.8973500000000001  1.0000
  H   H26       1.0  0.21435  0.70856  0.0696  1.0000
  H   H27       1.0  0.23544999999999988  0.7771600000000001  0.031310000000000004  1.0000
  H   H28       1.0  0.37912999999999986  0.57133  0.033690000000000005  1.0000
  H   H29       1.0  0.3950299999999999  0.6432  0.12625  1.0000
  H   H30       1.0  0.42181999999999986  0.64954  0.0472  1.0000
  H   H31       1.0  0.8100099999999999  0.28935  0.00322  1.0000
  H   H32       1.0  0.70781  0.21503  0.007470000000000001  1.0000
  H   H33       1.0  0.7762400000000002  0.23635999999999993  0.95606  1.0000
  H   H34       1.0  0.5709099999999999  0.37937000000000004  0.01606  1.0000
  H   H35       1.0  0.6432299999999997  0.39507  0.83581  1.0000
  H   H36       1.0  0.6490999999999998  0.42217  0.88182  1.0000
  H   H37       1.0  0.0028600000000000747  0.89758  0.80848  1.0000
  H   H38       1.0  0.006870000000000015  0.07001  0.70679  1.0000
  H   H39       1.0  0.9549799999999998  0.03158000000000001  0.77452  1.0000
  H   H40       1.0  0.01626  0.034449999999999995  0.57034  1.0000
  H   H41       1.0  0.8359  0.12624  0.64282  1.0000
  H   H42       1.0  0.8822  0.04719999999999997  0.64911  1.0000
  H   H43       1.0  0.89727  0.0026299999999999982  0.29138  1.0000
  H   H44       1.0  0.0698  0.006649999999999992  0.21590000000000004  1.0000
  H   H45       1.0  0.03151000000000001  0.95505  0.23744  1.0000
  H   H46       1.0  0.033749999999999974  0.015859999999999964  0.37894000000000005  1.0000
  H   H47       1.0  0.12611999999999984  0.83553  0.3948900000000001  1.0000
  H   H48       1.0  0.04707999999999992  0.8816700000000001  0.42182  1.0000
  H   H49       1.0  0.80947  0.89705  0.29037  1.0000
  H   H50       1.0  0.7077799999999999  0.06951999999999997  0.21564000000000003  1.0000
  H   H51       1.0  0.7759899999999998  0.031209999999999998  0.23741000000000004  1.0000
  H   H52       1.0  0.57185  0.033299999999999996  0.37875  1.0000
  H   H53       1.0  0.6435699999999999  0.12573999999999996  0.39501  1.0000
  H   H54       1.0  0.64985  0.04672  0.42168000000000005  1.0000
  H   H55       1.0  0.2909499999999999  0.0027799999999999704  0.8088100000000001  1.0000
  H   H56       1.0  0.21550000000000002  0.0069499999999999874  0.70774  1.0000
  H   H57       1.0  0.23670999999999992  0.95555  0.7762200000000001  1.0000
  H   H58       1.0  0.3788399999999999  0.016240000000000004  0.57166  1.0000
  H   H59       1.0  0.39483999999999997  0.83585  0.64358  1.0000
  H   H60       1.0  0.42183  0.88191  0.6495400000000001  1.0000
  H   H61       1.0  0.8980600000000001  0.81043  0.00306  1.0000
  H   H62       1.0  0.07020000000000004  0.70751  0.00732  1.0000
  H   H63       1.0  0.031749999999999896  0.77558  0.95559  1.0000
  H   H64       1.0  0.03488999999999998  0.5698  0.01601  1.0000
  H   H65       1.0  0.1267399999999999  0.64244  0.83571  1.0000
  H   H66       1.0  0.04773999999999997  0.64883  0.88173  1.0000
  H   H67       1.0  0.0029999999999999545  0.28972  0.8973000000000001  1.0000
  H   H68       1.0  0.007109999999999972  0.21547  0.06971  1.0000
  H   H69       1.0  0.95542  0.23723999999999998  0.0314  1.0000
  H   H70       1.0  0.015680000000000003  0.37938  0.03417  1.0000
  H   H71       1.0  0.83546  0.39514999999999995  0.12627  1.0000
  H   H72       1.0  0.88156  0.4221200000000001  0.04729  1.0000
  H   H73       1.0  0.39737000000000006  0.31129  0.78801  1.0000
  H   H74       1.0  0.56959  0.20849999999999996  0.7144  1.0000
  H   H75       1.0  0.53128  0.27717  0.73541  1.0000
  H   H76       1.0  0.53371  0.07141  0.87904  1.0000
  H   H77       1.0  0.6262  0.1432899999999999  0.8950200000000003  1.0000
  H   H78       1.0  0.5471699999999999  0.14966  0.9217900000000001  1.0000
  H   H79       1.0  0.5031800000000001  0.7893799999999999  0.30998  1.0000
  H   H80       1.0  0.5075  0.7150399999999999  0.20778000000000002  1.0000
  H   H81       1.0  0.4560899999999999  0.7363300000000002  0.2762200000000001  1.0000
  H   H82       1.0  0.5160200000000001  0.8792599999999999  0.071  1.0000
  H   H83       1.0  0.33575000000000005  0.89512  0.14323  1.0000
  H   H84       1.0  0.38175999999999993  0.92213  0.1492  1.0000
  H   H85       1.0  0.30843999999999994  0.39762  0.50282  1.0000
  H   H86       1.0  0.20672999999999972  0.5699999999999998  0.5069400000000001  1.0000
  H   H87       1.0  0.2745  0.5315699999999999  0.4550700000000001  1.0000
  H   H88       1.0  0.07043000000000008  0.53446  0.51623  1.0000
  H   H89       1.0  0.14279999999999998  0.62621  0.3359  1.0000
  H   H90       1.0  0.14924999999999994  0.54717  0.3821300000000001  1.0000
  H   H91       1.0  0.7914099999999997  0.50259  0.39729  1.0000
  H   H92       1.0  0.7159399999999999  0.50667  0.56976  1.0000
  H   H93       1.0  0.7373699999999997  0.4551  0.5315200000000001  1.0000
  H   H94       1.0  0.87889  0.51579  0.53379  1.0000
  H   H95       1.0  0.8949000000000001  0.33547  0.6261  1.0000
  H   H96       1.0  0.9217800000000002  0.38158  0.54708  1.0000
  H   H97       1.0  0.7903999999999999  0.39711  0.30944  1.0000
  H   H98       1.0  0.71562  0.56952  0.20777000000000004  1.0000
  H   H99       1.0  0.7373100000000001  0.53123  0.276  1.0000
  H   H100      1.0  0.8786799999999997  0.53328  0.07192000000000001  1.0000
  H   H101      1.0  0.8949699999999998  0.62571  0.14364  1.0000
  H   H102      1.0  0.9215999999999996  0.54668  0.14994  1.0000
  H   H103      1.0  0.3087599999999998  0.50275  0.7909600000000002  1.0000
  H   H104      1.0  0.20770999999999998  0.5069999999999999  0.7154700000000002  1.0000
  H   H105      1.0  0.27623999999999993  0.45562999999999987  0.7365700000000001  1.0000
  H   H106      1.0  0.07172999999999989  0.51628  0.87875  1.0000
  H   H107      1.0  0.14357999999999996  0.33586  0.89484  1.0000
  H   H108      1.0  0.14959999999999987  0.38193999999999995  0.9217800000000002  1.0000
  H   H109      1.0  0.5029799999999999  0.31037  0.39814000000000005  1.0000
  H   H110      1.0  0.50734  0.20754000000000003  0.5702  1.0000
  H   H111      1.0  0.4556199999999999  0.27558999999999995  0.5318300000000001  1.0000
  H   H112      1.0  0.5160099999999997  0.06989000000000001  0.53487  1.0000
  H   H113      1.0  0.33568  0.14244999999999997  0.62676  1.0000
  H   H114      1.0  0.38175  0.14893  0.54769  1.0000
  H   H115      1.0  0.39732999999999985  0.7897600000000001  0.50298  1.0000
  H   H116      1.0  0.56972  0.71544  0.50715  1.0000
  H   H117      1.0  0.5313899999999999  0.7371599999999998  0.45550000000000007  1.0000
  H   H118      1.0  0.5341599999999999  0.8793399999999999  0.51569  1.0000
  H   H119      1.0  0.62623  0.89513  0.33548  1.0000
  H   H120      1.0  0.5472599999999997  0.9220400000000001  0.38156  1.0000
  H   H121      1.0  0.3107  0.78856  0.3973400000000001  1.0000
  H   H122      1.0  0.20818000000000014  0.7146299999999999  0.56949  1.0000
  H   H123      1.0  0.2767699999999999  0.7356200000000002  0.53129  1.0000
  H   H124      1.0  0.07107  0.87937  0.5338  1.0000
  H   H125      1.0  0.14326999999999995  0.89521  0.62604  1.0000
  H   H126      1.0  0.14951999999999993  0.922  0.547  1.0000
  H   H127      1.0  0.78872  0.3106  0.5031  1.0000
  H   H128      1.0  0.7146499999999999  0.20815999999999996  0.5073400000000001  1.0000
  H   H129      1.0  0.736  0.27661  0.45595  1.0000
  H   H130      1.0  0.87895  0.07125999999999999  0.51611  1.0000
  H   H131      1.0  0.8949199999999998  0.14314000000000002  0.33578  1.0000
  H   H132      1.0  0.92184  0.14935  0.38167  1.0000
  H   H133      1.0  0.39795  0.5027  0.30857  1.0000
  H   H134      1.0  0.57012  0.50706  0.20711  1.0000
  H   H135      1.0  0.53185  0.4554  0.27528  1.0000
  H   H136      1.0  0.53449  0.51608  0.07039  1.0000
  H   H137      1.0  0.6263399999999999  0.33576  0.1429  1.0000
  H   H138      1.0  0.5472599999999999  0.38199  0.14926  1.0000
  H   H139      1.0  0.50272  0.39703  0.7915600000000002  1.0000
  H   H140      1.0  0.5065599999999997  0.5697000000000001  0.7163600000000001  1.0000
  H   H141      1.0  0.4547900000000001  0.5312799999999999  0.73861  1.0000
  H   H142      1.0  0.5159299999999999  0.5337199999999999  0.87873  1.0000
  H   H143      1.0  0.33558999999999983  0.6260100000000001  0.89496  1.0000
  H   H144      1.0  0.38177999999999995  0.5470100000000001  0.92167  1.0000
  C   C1        1.0  0.8636600000000001  0.26303  0.76531  1.0000
  C   C2        1.0  0.9710599999999998  0.24458000000000002  0.7369  1.0000
  C   C3        1.0  0.10861999999999992  0.28614  0.5687400000000001  1.0000
  C   C4        1.0  0.10842000000000006  0.34744  0.61103  1.0000
  C   C5        1.0  0.10769999999999993  0.7651400000000002  0.26326  1.0000
  C   C6        1.0  0.04716000000000003  0.73676  0.24476  1.0000
  C   C7        1.0  0.03679999999999997  0.56855  0.28595  1.0000
  C   C8        1.0  0.9333899999999999  0.61084  0.34726  1.0000
  C   C9        1.0  0.7647599999999999  0.10750000000000001  0.86421  1.0000
  C   C10       1.0  0.7360399999999999  0.04699999999999995  0.9715900000000001  1.0000
  C   C11       1.0  0.5683  0.03678  0.10915000000000001  1.0000
  C   C12       1.0  0.61061  0.93337  0.10888  1.0000
  C   C13       1.0  0.2638799999999999  0.8637900000000001  0.10742000000000002  1.0000
  C   C14       1.0  0.24592999999999998  0.9711400000000001  0.046630000000000005  1.0000
  C   C15       1.0  0.28587  0.10887999999999999  0.03655  1.0000
  C   C16       1.0  0.34719000000000005  0.10867  0.93319  1.0000
  C   C17       1.0  0.26288999999999996  0.7654500000000002  0.86377  1.0000
  C   C18       1.0  0.24436999999999978  0.7371500000000001  0.9711600000000001  1.0000
  C   C19       1.0  0.28601  0.56877  0.1087  1.0000
  C   C20       1.0  0.34728999999999993  0.611  0.10857000000000001  1.0000
  C   C21       1.0  0.7648999999999998  0.26348  0.10783000000000001  1.0000
  C   C22       1.0  0.7364600000000001  0.24499  0.04734  1.0000
  C   C23       1.0  0.5685699999999998  0.28613  0.03678  1.0000
  C   C24       1.0  0.6108000000000001  0.34746  0.9333800000000001  1.0000
  C   C25       1.0  0.10758  0.86414  0.7645100000000001  1.0000
  C   C26       1.0  0.046919999999999996  0.97152  0.73555  1.0000
  C   C27       1.0  0.036729999999999985  0.10934999999999999  0.5680900000000001  1.0000
  C   C28       1.0  0.9334099999999997  0.10895999999999999  0.61039  1.0000
  C   C29       1.0  0.86393  0.10732999999999998  0.26364  1.0000
  C   C30       1.0  0.9712999999999998  0.0467  0.24533  1.0000
  C   C31       1.0  0.10862  0.036660000000000005  0.28579  1.0000
  C   C32       1.0  0.10855999999999988  0.9331800000000002  0.34711  1.0000
  C   C33       1.0  0.7651399999999996  0.8636900000000001  0.26343  1.0000
  C   C34       1.0  0.73657  0.9710900000000001  0.24531  1.0000
  C   C35       1.0  0.5686299999999999  0.10879000000000003  0.28603  1.0000
  C   C36       1.0  0.6110799999999997  0.10837  0.34729000000000004  1.0000
  C   C37       1.0  0.26352000000000003  0.10750000000000001  0.76509  1.0000
  C   C38       1.0  0.24505999999999997  0.04698  0.73664  1.0000
  C   C39       1.0  0.28594999999999987  0.03689999999999999  0.56867  1.0000
  C   C40       1.0  0.3472000000000001  0.9334899999999999  0.6111  1.0000
  C   C41       1.0  0.86433  0.7647899999999999  0.10768000000000001  1.0000
  C   C42       1.0  0.97173  0.73609  0.04718  1.0000
  C   C43       1.0  0.10934999999999997  0.56821  0.03663  1.0000
  C   C44       1.0  0.1091700000000001  0.61033  0.93326  1.0000
  C   C45       1.0  0.10761000000000001  0.2635  0.8639200000000001  1.0000
  C   C46       1.0  0.04700000000000005  0.24527  0.97126  1.0000
  C   C47       1.0  0.036500000000000005  0.28598  0.10874  1.0000
  C   C48       1.0  0.9330499999999999  0.34738000000000013  0.10875  1.0000
  C   C49       1.0  0.36374000000000006  0.26552  0.7629  1.0000
  C   C50       1.0  0.4711600000000001  0.23716999999999996  0.74435  1.0000
  C   C51       1.0  0.60878  0.06874999999999991  0.7859800000000001  1.0000
  C   C52       1.0  0.60858  0.11104000000000003  0.84728  1.0000
  C   C53       1.0  0.60779  0.7634799999999999  0.26495  1.0000
  C   C54       1.0  0.5473499999999999  0.7449999999999999  0.23644000000000004  1.0000
  C   C55       1.0  0.5367399999999998  0.78609  0.06853000000000001  1.0000
  C   C56       1.0  0.4333299999999998  0.84745  0.11082000000000002  1.0000
  C   C57       1.0  0.2645099999999998  0.36411999999999994  0.60755  1.0000
  C   C58       1.0  0.23551999999999998  0.47151000000000004  0.54695  1.0000
  C   C59       1.0  0.06807000000000006  0.60945  0.53668  1.0000
  C   C60       1.0  0.11041000000000008  0.6089899999999999  0.43339000000000005  1.0000
  C   C61       1.0  0.76367  0.6073  0.36392  1.0000
  C   C62       1.0  0.7453500000000001  0.5467199999999999  0.47127  1.0000
  C   C63       1.0  0.7857799999999998  0.5366  0.6087  1.0000
  C   C64       1.0  0.8471100000000001  0.43312  0.60861  1.0000
  C   C65       1.0  0.76348  0.3636699999999999  0.26516000000000006  1.0000
  C   C66       1.0  0.7453100000000001  0.47108  0.23656  1.0000
  C   C67       1.0  0.78603  0.60883  0.06862  1.0000
  C   C68       1.0  0.84727  0.60839  0.11110000000000002  1.0000
  C   C69       1.0  0.26511000000000007  0.6074799999999999  0.7635300000000002  1.0000
  C   C70       1.0  0.2366299999999998  0.5469999999999999  0.7450500000000002  1.0000
  C   C71       1.0  0.06863000000000004  0.5368900000000001  0.78594  1.0000
  C   C72       1.0  0.11109999999999993  0.43349000000000004  0.84718  1.0000
  C   C73       1.0  0.60761  0.26482000000000006  0.36432  1.0000
  C   C74       1.0  0.5471699999999999  0.23608000000000007  0.47173  1.0000
  C   C75       1.0  0.53661  0.06821  0.60938  1.0000
  C   C76       1.0  0.43324  0.11036  0.60917  1.0000
  C   C77       1.0  0.36389  0.7635299999999999  0.60759  1.0000
  C   C78       1.0  0.47125999999999985  0.74526  0.5470100000000001  1.0000
  C   C79       1.0  0.6087899999999998  0.78598  0.53648  1.0000
  C   C80       1.0  0.60878  0.84735  0.43304000000000004  1.0000
  C   C81       1.0  0.26527999999999996  0.7631  0.36367  1.0000
  C   C82       1.0  0.23685000000000006  0.7445999999999999  0.47108000000000005  1.0000
  C   C83       1.0  0.06871000000000003  0.78614  0.60871  1.0000
  C   C84       1.0  0.11099999999999995  0.84744  0.6084900000000001  1.0000
  C   C85       1.0  0.76324  0.26514  0.6077  1.0000
  C   C86       1.0  0.7447199999999999  0.23672000000000004  0.5472  1.0000
  C   C87       1.0  0.78596  0.06854  0.53674  1.0000
  C   C88       1.0  0.84726  0.11083000000000001  0.43336  1.0000
  C   C89       1.0  0.36422000000000004  0.60744  0.2648  1.0000
  C   C90       1.0  0.47164999999999996  0.547  0.23604  1.0000
  C   C91       1.0  0.6091899999999998  0.53673  0.06831000000000001  1.0000
  C   C92       1.0  0.6088999999999999  0.43334000000000006  0.11063000000000003  1.0000
  C   C93       1.0  0.60741  0.36382999999999993  0.76382  1.0000
  C   C94       1.0  0.5466499999999999  0.47118999999999994  0.7459100000000001  1.0000
  C   C95       1.0  0.5365200000000002  0.6089399999999999  0.78586  1.0000
  C   C96       1.0  0.4331699999999998  0.6086900000000001  0.84718  1.0000
  S   S1        1.0  0.77992  0.2832  0.80692  1.0000
  S   S2        1.0  0.08808000000000003  0.26350999999999997  0.52766  1.0000
  S   S3        1.0  0.12978000000000006  0.80697  0.28305  1.0000
  S   S4        1.0  0.12110000000000001  0.5276  0.26328  1.0000
  S   S5        1.0  0.8066199999999998  0.12964  0.78051  1.0000
  S   S6        1.0  0.52746  0.12113000000000002  0.08843000000000001  1.0000
  S   S7        1.0  0.28356999999999993  0.7800200000000002  0.12981  1.0000
  S   S8        1.0  0.26301  0.08798999999999998  0.12087000000000003  1.0000
  S   S9        1.0  0.28313  0.80699  0.78003  1.0000
  S   S10       1.0  0.26341  0.52771  0.08808  1.0000
  S   S11       1.0  0.8068299999999998  0.2831  0.12993000000000002  1.0000
  S   S12       1.0  0.52761  0.26344  0.12106000000000001  1.0000
  S   S13       1.0  0.1298300000000001  0.7804199999999998  0.8064900000000002  1.0000
  S   S14       1.0  0.12104999999999996  0.08867000000000001  0.52729  1.0000
  S   S15       1.0  0.7801899999999996  0.12961  0.28348  1.0000
  S   S16       1.0  0.08779000000000002  0.12101999999999999  0.26296  1.0000
  S   S17       1.0  0.80685  0.77991  0.28333  1.0000
  S   S18       1.0  0.5278  0.08810000000000001  0.26327  1.0000
  S   S19       1.0  0.28311  0.12975999999999996  0.80694  1.0000
  S   S20       1.0  0.2631699999999998  0.12126000000000003  0.5279  1.0000
  S   S21       1.0  0.7806299999999999  0.80666  0.12967  1.0000
  S   S22       1.0  0.08878  0.52721  0.12092000000000001  1.0000
  S   S23       1.0  0.12973  0.28341999999999995  0.78021  1.0000
  S   S24       1.0  0.12078999999999997  0.26321  0.08807000000000001  1.0000
  S   S25       1.0  0.27999  0.30705999999999994  0.7831800000000001  1.0000
  S   S26       1.0  0.58816  0.027669999999999993  0.76342  1.0000
  S   S27       1.0  0.62984  0.78317  0.30687  1.0000
  S   S28       1.0  0.6210299999999997  0.76345  0.027530000000000002  1.0000
  S   S29       1.0  0.3065099999999999  0.2804  0.62978  1.0000
  S   S30       1.0  0.027240000000000066  0.58878  0.62099  1.0000
  S   S31       1.0  0.7835099999999997  0.6295600000000002  0.28018  1.0000
  S   S32       1.0  0.7629900000000003  0.62097  0.58784  1.0000
  S   S33       1.0  0.78338  0.27989  0.30686  1.0000
  S   S34       1.0  0.7633100000000002  0.58807  0.0278  1.0000
  S   S35       1.0  0.30694000000000005  0.6297  0.7831800000000001  1.0000
  S   S36       1.0  0.027839999999999962  0.6212499999999999  0.7632200000000001  1.0000
  S   S37       1.0  0.6296  0.30666  0.28064  1.0000
  S   S38       1.0  0.6209099999999997  0.027189999999999943  0.5887800000000001  1.0000
  S   S39       1.0  0.28017  0.78349  0.62971  1.0000
  S   S40       1.0  0.58808  0.7632299999999999  0.6207700000000002  1.0000
  S   S41       1.0  0.30693999999999994  0.7832300000000001  0.27995000000000003  1.0000
  S   S42       1.0  0.02763000000000006  0.7635299999999998  0.58815  1.0000
  S   S43       1.0  0.78303  0.30698999999999993  0.62975  1.0000
  S   S44       1.0  0.76329  0.02759000000000002  0.62103  1.0000
  S   S45       1.0  0.28049999999999997  0.62956  0.30668000000000006  1.0000
  S   S46       1.0  0.58849  0.62109  0.02745  1.0000
  S   S47       1.0  0.6297400000000001  0.28004999999999997  0.78359  1.0000
  S   S48       1.0  0.62085  0.5880899999999999  0.76302  1.0000
  Br  Br1       1.0  0.10287999999999999  0.10293999999999999  0.69099  1.0000
  Br  Br2       1.0  0.10303999999999992  0.69094  0.10305  1.0000
  Br  Br3       1.0  0.69104  0.10295999999999997  0.10318000000000001  1.0000
  Br  Br4       1.0  0.10296999999999999  0.10270000000000001  0.10261  1.0000
  Br  Br5       1.0  0.6030799999999997  0.19079999999999997  0.60309  1.0000
  Br  Br6       1.0  0.60323  0.60302  0.1909  1.0000
  Br  Br7       1.0  0.19083000000000003  0.60299  0.60294  1.0000
  Br  Br8       1.0  0.6026500000000001  0.60275  0.60303  1.0000
  N   N1        1.0  0.8978  0.24350999999999998  0.7118600000000002  1.0000
  N   N2        1.0  0.9651499999999997  0.23233000000000004  0.69432  1.0000
  N   N3        1.0  0.9098699999999998  0.26157  0.7835800000000002  1.0000
  N   N4        1.0  0.028039999999999992  0.24447999999999998  0.73357  1.0000
  N   N5        1.0  0.15636999999999995  0.2512400000000001  0.59561  1.0000
  N   N6        1.0  0.15643999999999997  0.2898100000000001  0.62223  1.0000
  N   N7        1.0  0.07801000000000002  0.34733  0.57733  1.0000
  N   N8        1.0  0.09476999999999998  0.40296  0.62227  1.0000
  N   N9        1.0  0.14655000000000004  0.7117  0.2437  1.0000
  N   N10       1.0  0.10796999999999995  0.69423  0.23242  1.0000
  N   N11       1.0  0.04465  0.78347  0.26178  1.0000
  N   N12       1.0  0.9936699999999999  0.73342  0.24459  1.0000
  N   N13       1.0  0.99704  0.5952  0.25116  1.0000
  N   N14       1.0  0.9317599999999999  0.62182  0.28974  1.0000
  N   N15       1.0  0.9976599999999993  0.57717  0.3471  1.0000
  N   N16       1.0  0.88025  0.6221  0.40273  1.0000
  N   N17       1.0  0.7117599999999998  0.14658  0.89837  1.0000
  N   N18       1.0  0.6939300000000002  0.10795999999999999  0.96563  1.0000
  N   N19       1.0  0.7829500000000001  0.04428000000000001  0.91044  1.0000
  N   N20       1.0  0.7323  0.99347  0.02854  1.0000
  N   N21       1.0  0.59515  0.9969899999999999  0.15691  1.0000
  N   N22       1.0  0.6217499999999998  0.9316700000000001  0.157  1.0000
  N   N23       1.0  0.57676  0.9976299999999999  0.07865  1.0000
  N   N24       1.0  0.62189  0.88032  0.09511  1.0000
  N   N25       1.0  0.24357999999999996  0.89813  0.14634  1.0000
  N   N26       1.0  0.23279999999999998  0.9653799999999999  0.10757000000000001  1.0000
  N   N27       1.0  0.26302000000000003  0.90985  0.04408  1.0000
  N   N28       1.0  0.24636999999999998  0.028079999999999983  0.99306  1.0000
  N   N29       1.0  0.2510899999999999  0.15683999999999995  0.9967800000000001  1.0000
  N   N30       1.0  0.28968999999999995  0.15692  0.9314800000000001  1.0000
  N   N31       1.0  0.3470299999999999  0.07826999999999994  0.9974300000000001  1.0000
  N   N32       1.0  0.4026599999999999  0.09484000000000001  0.88016  1.0000
  N   N33       1.0  0.24336999999999992  0.71201  0.8979200000000002  1.0000
  N   N34       1.0  0.23226999999999995  0.6944500000000001  0.96523  1.0000
  N   N35       1.0  0.26122999999999996  0.78392  0.9099600000000001  1.0000
  N   N36       1.0  0.24415000000000003  0.73392  0.028140000000000002  1.0000
  N   N37       1.0  0.25116  0.59551  0.15654  1.0000
  N   N38       1.0  0.28970000000000007  0.62214  0.15663  1.0000
  N   N39       1.0  0.34717  0.57738  0.07806  1.0000
  N   N40       1.0  0.40279  0.62223  0.09496  1.0000
  N   N41       1.0  0.7115699999999999  0.24375999999999995  0.14677000000000004  1.0000
  N   N42       1.0  0.6940599999999998  0.23252000000000003  0.10818  1.0000
  N   N43       1.0  0.7831599999999997  0.26206  0.04476  1.0000
  N   N44       1.0  0.7330499999999996  0.24491999999999994  0.9938300000000001  1.0000
  N   N45       1.0  0.59536  0.25124  0.99705  1.0000
  N   N46       1.0  0.62198  0.28982  0.9317600000000003  1.0000
  N   N47       1.0  0.5769899999999999  0.34738  0.9976200000000001  1.0000
  N   N48       1.0  0.6220399999999999  0.40293999999999985  0.8802800000000002  1.0000
  N   N49       1.0  0.14663000000000015  0.8983499999999999  0.71156  1.0000
  N   N50       1.0  0.10791999999999984  0.9656100000000001  0.69356  1.0000
  N   N51       1.0  0.04430000000000003  0.91033  0.78239  1.0000
  N   N52       1.0  0.9933600000000001  0.028470000000000023  0.73166  1.0000
  N   N53       1.0  0.99688  0.15713999999999995  0.5949300000000001  1.0000
  N   N54       1.0  0.9316199999999999  0.15714999999999998  0.6215200000000001  1.0000
  N   N55       1.0  0.99768  0.07877999999999999  0.57649  1.0000
  N   N56       1.0  0.8804400000000001  0.09506000000000002  0.62173  1.0000
  N   N57       1.0  0.89817  0.14631  0.24343000000000004  1.0000
  N   N58       1.0  0.96545  0.10764  0.23241  1.0000
  N   N59       1.0  0.9100699999999999  0.044039999999999975  0.26242000000000004  1.0000
  N   N60       1.0  0.028239999999999987  0.99314  0.24562  1.0000
  N   N61       1.0  0.15651000000000004  0.9969  0.25097  1.0000
  N   N62       1.0  0.15670999999999993  0.93155  0.28956  1.0000
  N   N63       1.0  0.07815000000000007  0.99745  0.34698  1.0000
  N   N64       1.0  0.09491  0.8800800000000001  0.40261  1.0000
  N   N65       1.0  0.71196  0.89795  0.24347000000000002  1.0000
  N   N66       1.0  0.6943600000000001  0.96526  0.23248000000000002  1.0000
  N   N67       1.0  0.7832599999999994  0.90983  0.26239  1.0000
  N   N68       1.0  0.73295  0.028030000000000003  0.2456  1.0000
  N   N69       1.0  0.5951299999999999  0.15682999999999997  0.25132000000000004  1.0000
  N   N70       1.0  0.62189  0.15674  0.28988  1.0000
  N   N71       1.0  0.5774499999999998  0.07794000000000001  0.34709  1.0000
  N   N72       1.0  0.6225499999999998  0.09453  0.40273  1.0000
  N   N73       1.0  0.24358999999999995  0.14648000000000003  0.71187  1.0000
  N   N74       1.0  0.23226  0.10789999999999997  0.6944400000000001  1.0000
  N   N75       1.0  0.26214999999999994  0.044290000000000086  0.78345  1.0000
  N   N76       1.0  0.24524  0.9934  0.7330800000000001  1.0000
  N   N77       1.0  0.2512300000000001  0.9970999999999998  0.59512  1.0000
  N   N78       1.0  0.28978999999999994  0.93179  0.62185  1.0000
  N   N79       1.0  0.34703000000000006  0.99777  0.57744  1.0000
  N   N80       1.0  0.40263999999999955  0.88035  0.62248  1.0000
  N   N81       1.0  0.8983899999999998  0.71154  0.14665000000000003  1.0000
  N   N82       1.0  0.9657  0.69368  0.10805  1.0000
  N   N83       1.0  0.9105799999999997  0.78286  0.04463  1.0000
  N   N84       1.0  0.02873000000000004  0.7325499999999999  0.9937000000000001  1.0000
  N   N85       1.0  0.15694000000000002  0.5952700000000001  0.99687  1.0000
  N   N86       1.0  0.15705999999999995  0.6217699999999999  0.9316100000000002  1.0000
  N   N87       1.0  0.07893999999999998  0.57645  0.9975300000000001  1.0000
  N   N88       1.0  0.09550999999999991  0.6214  0.88024  1.0000
  N   N89       1.0  0.14652999999999994  0.24361999999999992  0.8980700000000001  1.0000
  N   N90       1.0  0.10785999999999994  0.2326  0.9653800000000001  1.0000
  N   N91       1.0  0.04446000000000002  0.26236  0.91005  1.0000
  N   N92       1.0  0.99348  0.24535  0.02822  1.0000
  N   N93       1.0  0.9967899999999997  0.25103  0.15639  1.0000
  N   N94       1.0  0.93148  0.28967  0.15664  1.0000
  N   N95       1.0  0.9972799999999999  0.34731  0.07844  1.0000
  N   N96       1.0  0.8799699999999999  0.40295000000000003  0.09513000000000002  1.0000
  N   N97       1.0  0.39787000000000006  0.21201  0.74346  1.0000
  N   N98       1.0  0.46519000000000005  0.19447999999999996  0.73228  1.0000
  N   N99       1.0  0.40995000000000004  0.2839099999999999  0.76126  1.0000
  N   N100      1.0  0.52813  0.23389  0.74419  1.0000
  N   N101      1.0  0.6566299999999999  0.09547999999999997  0.7511400000000001  1.0000
  N   N102      1.0  0.6566899999999998  0.12213  0.7897  1.0000
  N   N103      1.0  0.5781199999999999  0.07738999999999997  0.8471300000000002  1.0000
  N   N104      1.0  0.5949300000000001  0.12231999999999993  0.9027700000000001  1.0000
  N   N105      1.0  0.6467399999999995  0.74383  0.21157000000000004  1.0000
  N   N106      1.0  0.60818  0.7325399999999999  0.19404000000000002  1.0000
  N   N107      1.0  0.54475  0.7620699999999999  0.28314  1.0000
  N   N108      1.0  0.4938299999999998  0.74495  0.23301  1.0000
  N   N109      1.0  0.49699  0.75123  0.09533  1.0000
  N   N110      1.0  0.43170000000000003  0.78985  0.12193000000000001  1.0000
  N   N111      1.0  0.49757000000000007  0.84735  0.07696000000000001  1.0000
  N   N112      1.0  0.38022999999999996  0.9029500000000001  0.12209  1.0000
  N   N113      1.0  0.2115499999999998  0.39831  0.64662  1.0000
  N   N114      1.0  0.19353  0.46557  0.6079400000000001  1.0000
  N   N115      1.0  0.2823999999999999  0.41034000000000004  0.54429  1.0000
  N   N116      1.0  0.23161999999999994  0.52847  0.49340000000000006  1.0000
  N   N117      1.0  0.09490999999999991  0.6572300000000001  0.49684000000000006  1.0000
  N   N118      1.0  0.12152999999999996  0.65719  0.4315800000000001  1.0000
  N   N119      1.0  0.07646000000000008  0.5788499999999998  0.49765000000000004  1.0000
  N   N120      1.0  0.1217899999999999  0.59501  0.38045000000000007  1.0000
  N   N121      1.0  0.74344  0.64631  0.39815000000000006  1.0000
  N   N122      1.0  0.7324399999999998  0.6076500000000001  0.46542  1.0000
  N   N123      1.0  0.7623799999999997  0.54403  0.41006000000000004  1.0000
  N   N124      1.0  0.7456200000000001  0.49316  0.5282  1.0000
  N   N125      1.0  0.7509599999999997  0.4968500000000001  0.6566  1.0000
  N   N126      1.0  0.78957  0.4314999999999999  0.65677  1.0000
  N   N127      1.0  0.8469899999999998  0.4973900000000001  0.57823  1.0000
  N   N128      1.0  0.9026100000000002  0.3800200000000001  0.5949  1.0000
  N   N129      1.0  0.74346  0.39791  0.21201  1.0000
  N   N130      1.0  0.7325200000000001  0.46521999999999997  0.19434  1.0000
  N   N131      1.0  0.7623500000000001  0.40985  0.2833  1.0000
  N   N132      1.0  0.74558  0.52804  0.23294000000000006  1.0000
  N   N133      1.0  0.7513199999999999  0.6569  0.09508  1.0000
  N   N134      1.0  0.7898699999999999  0.6567899999999999  0.12188000000000003  1.0000
  N   N135      1.0  0.8470599999999999  0.57794  0.07749  1.0000
  N   N136      1.0  0.9026999999999997  0.59449  0.12262000000000002  1.0000
  N   N137      1.0  0.21187999999999996  0.6464800000000002  0.74361  1.0000
  N   N138      1.0  0.19442000000000015  0.6079199999999998  0.73231  1.0000
  N   N139      1.0  0.28348999999999996  0.54428  0.7621000000000001  1.0000
  N   N140      1.0  0.2330699999999999  0.49342999999999987  0.74521  1.0000
  N   N141      1.0  0.09504000000000011  0.49707999999999997  0.75123  1.0000
  N   N142      1.0  0.12180000000000005  0.43176999999999993  0.78979  1.0000
  N   N143      1.0  0.07746  0.49778  0.84699  1.0000
  N   N144      1.0  0.12252000000000002  0.38038  0.9026100000000001  1.0000
  N   N145      1.0  0.64662  0.21157999999999996  0.39836000000000005  1.0000
  N   N146      1.0  0.6080299999999994  0.19365999999999997  0.4656600000000001  1.0000
  N   N147      1.0  0.54459  0.28291999999999995  0.41061000000000003  1.0000
  N   N148      1.0  0.4937  0.23255999999999996  0.52874  1.0000
  N   N149      1.0  0.49682999999999977  0.09524  0.657  1.0000
  N   N150      1.0  0.43156999999999973  0.12174999999999996  0.6571100000000001  1.0000
  N   N151      1.0  0.49751  0.07644999999999999  0.57896  1.0000
  N   N152      1.0  0.38021999999999995  0.12147999999999996  0.5954700000000002  1.0000
  N   N153      1.0  0.39801999999999976  0.7436300000000001  0.64653  1.0000
  N   N154      1.0  0.46533  0.73266  0.60786  1.0000
  N   N155      1.0  0.4100599999999999  0.7623000000000001  0.54446  1.0000
  N   N156      1.0  0.52825  0.7453399999999999  0.4935000000000001  1.0000
  N   N157      1.0  0.65647  0.7510300000000001  0.49678  1.0000
  N   N158      1.0  0.6567  0.78964  0.43147  1.0000
  N   N159      1.0  0.57845  0.84729  0.49727000000000005  1.0000
  N   N160      1.0  0.5950899999999999  0.9029000000000001  0.3799900000000001  1.0000
  N   N161      1.0  0.2118499999999999  0.7435499999999999  0.3977700000000001  1.0000
  N   N162      1.0  0.19429999999999986  0.7323600000000001  0.46513000000000004  1.0000
  N   N163      1.0  0.2835600000000001  0.76157  0.40991  1.0000
  N   N164      1.0  0.23352999999999993  0.7444600000000001  0.52807  1.0000
  N   N165      1.0  0.09555999999999996  0.75125  0.65646  1.0000
  N   N166      1.0  0.12220999999999999  0.78982  0.65651  1.0000
  N   N167      1.0  0.07724999999999992  0.84735  0.5781000000000001  1.0000
  N   N168      1.0  0.1222800000000001  0.9029599999999999  0.59479  1.0000
  N   N169      1.0  0.7436899999999997  0.2117  0.6465800000000002  1.0000
  N   N170      1.0  0.7324099999999998  0.19421000000000002  0.60801  1.0000
  N   N171      1.0  0.7617099999999999  0.28346999999999994  0.54467  1.0000
  N   N172      1.0  0.7445599999999999  0.23337000000000005  0.4937  1.0000
  N   N173      1.0  0.7511699999999999  0.09521000000000003  0.49699  1.0000
  N   N174      1.0  0.7897299999999999  0.12185999999999998  0.43172  1.0000
  N   N175      1.0  0.8471300000000002  0.07710999999999998  0.4976300000000001  1.0000
  N   N176      1.0  0.90274  0.12209  0.38026  1.0000
  N   N177      1.0  0.3983399999999999  0.64655  0.21177000000000004  1.0000
  N   N178      1.0  0.4656299999999998  0.60797  0.19394  1.0000
  N   N179      1.0  0.41051000000000004  0.54425  0.28296  1.0000
  N   N180      1.0  0.5286199999999998  0.49347  0.23227000000000003  1.0000
  N   N181      1.0  0.65696  0.49693  0.09515  1.0000
  N   N182      1.0  0.6570199999999999  0.43162  0.12175000000000002  1.0000
  N   N183      1.0  0.5786799999999999  0.49759999999999993  0.07674000000000002  1.0000
  N   N184      1.0  0.59508  0.38031  0.12193000000000001  1.0000
  N   N185      1.0  0.6463399999999998  0.3981200000000001  0.74364  1.0000
  N   N186      1.0  0.6075999999999998  0.46539  0.7328000000000001  1.0000
  N   N187      1.0  0.5440799999999998  0.4099199999999999  0.7629700000000001  1.0000
  N   N188      1.0  0.4930599999999999  0.5281299999999998  0.74637  1.0000
  N   N189      1.0  0.49672999999999995  0.6569  0.7511  1.0000
  N   N190      1.0  0.43143999999999993  0.65696  0.78971  1.0000
  N   N191      1.0  0.4974099999999999  0.57834  0.84703  1.0000
  N   N192      1.0  0.3801299999999999  0.5948499999999999  0.9026800000000003  1.0000
