data_image0
_chemical_formula_structural       Cu24H120C288N72O96
_chemical_formula_sum              "Cu24 H120 C288 N72 O96"
_cell_length_a       31.10493
_cell_length_b       31.10518
_cell_length_c       31.566540000000003
_cell_angle_alpha    119.49953
_cell_angle_beta     119.50580000000001
_cell_angle_gamma    90.0036

_space_group_name_H-M_alt    "P 1"
_space_group_IT_number       1

loop_
  _space_group_symop_operation_xyz
  'x, y, z'

loop_
  _atom_site_type_symbol
  _atom_site_label
  _atom_site_symmetry_multiplicity
  _atom_site_fract_x
  _atom_site_fract_y
  _atom_site_fract_z
  _atom_site_occupancy
  Cu  Cu1       1.0  0.5294900000000002  0.46895  0.66459  1.0000
  Cu  Cu2       1.0  0.52022  0.4733900000000001  0.73923  1.0000
  Cu  Cu3       1.0  0.13499  0.19550000000000006  0.66452  1.0000
  Cu  Cu4       1.0  0.21897000000000008  0.2656  0.73923  1.0000
  Cu  Cu5       1.0  0.19553  0.52949  0.66458  1.0000
  Cu  Cu6       1.0  0.26569000000000004  0.5203300000000002  0.7393900000000001  1.0000
  Cu  Cu7       1.0  0.4689200000000001  0.13499  0.66452  1.0000
  Cu  Cu8       1.0  0.47335000000000005  0.21890000000000012  0.73909  1.0000
  Cu  Cu9       1.0  0.47051000000000015  0.5310500000000002  0.33541  1.0000
  Cu  Cu10      1.0  0.47978  0.5266100000000001  0.26078  1.0000
  Cu  Cu11      1.0  0.8650100000000002  0.8045000000000002  0.33549  1.0000
  Cu  Cu12      1.0  0.78103  0.7344  0.26078  1.0000
  Cu  Cu13      1.0  0.8044800000000002  0.4705100000000001  0.33542  1.0000
  Cu  Cu14      1.0  0.73431  0.47967  0.26062  1.0000
  Cu  Cu15      1.0  0.5310800000000002  0.8650100000000002  0.33549  1.0000
  Cu  Cu16      1.0  0.52666  0.7811000000000002  0.26092  1.0000
  Cu  Cu17      1.0  0.45696  0.24572000000000005  1e-05  1.0000
  Cu  Cu18      1.0  0.4438600000000001  0.16803000000000007  7e-05  1.0000
  Cu  Cu19      1.0  0.54304  0.75428  0.99999  1.0000
  Cu  Cu20      1.0  0.55614  0.8319700000000002  0.99993  1.0000
  Cu  Cu21      1.0  0.75428  0.45696  0.99998  1.0000
  Cu  Cu22      1.0  0.83198  0.44379  0.99994  1.0000
  Cu  Cu23      1.0  0.24572  0.54304  2e-05  1.0000
  Cu  Cu24      1.0  0.16802  0.5562  6e-05  1.0000
  H   H1        1.0  0.47673000000000004  0.3003000000000001  0.53628  1.0000
  H   H2        1.0  0.45023000000000013  0.16393999999999997  0.53662  1.0000
  H   H3        1.0  0.48776000000000014  0.3168400000000001  0.68499  1.0000
  H   H4        1.0  0.4067500000000001  0.21760000000000004  0.33786  1.0000
  H   H5        1.0  0.42333000000000015  0.12328000000000003  0.19456  1.0000
  H   H6        1.0  0.44676  0.078  0.31128  1.0000
  H   H7        1.0  0.4855000000000001  0.017299999999999968  0.26955  1.0000
  H   H8        1.0  0.4450100000000001  0.24461000000000005  0.44171  1.0000
  H   H9        1.0  0.43896  0.20314000000000004  0.19835  1.0000
  H   H10       1.0  0.49564  0.9426700000000002  0.2478  1.0000
  H   H11       1.0  0.5376500000000002  0.8179900000000002  0.15053  1.0000
  H   H12       1.0  0.50248  0.9323300000000002  0.10955999999999999  1.0000
  H   H13       1.0  0.4466000000000002  0.3634700000000001  0.14258  1.0000
  H   H14       1.0  0.42442  0.36793  0.26924  1.0000
  H   H15       1.0  0.4114000000000001  0.22228000000000006  0.12983  1.0000
  H   H16       1.0  0.05964000000000004  0.2360000000000001  0.53634  1.0000
  H   H17       1.0  0.08643000000000005  0.37268  0.53665  1.0000
  H   H18       1.0  0.19731000000000012  0.3680500000000001  0.68498  1.0000
  H   H19       1.0  0.93112  0.12026000000000006  0.3379  1.0000
  H   H20       1.0  0.77129  0.07139  0.19464  1.0000
  H   H21       1.0  0.86452  0.23331000000000007  0.31132  1.0000
  H   H22       1.0  0.78405  0.25224  0.26955  1.0000
  H   H23       1.0  0.99674  0.19711000000000006  0.44176  1.0000
  H   H24       1.0  0.75939  0.9952800000000004  0.19834000000000002  1.0000
  H   H25       1.0  0.75215  0.30511  0.24775999999999998  1.0000
  H   H26       1.0  0.61286  0.33249000000000023  0.15044  1.0000
  H   H27       1.0  0.60715  0.17727000000000007  0.10965  1.0000
  H   H28       1.0  0.6959900000000002  0.7791700000000003  0.14253  1.0000
  H   H29       1.0  0.84476  0.90128  0.2691  1.0000
  H   H30       1.0  0.71833  0.9076600000000002  0.12979  1.0000
  H   H31       1.0  0.23599000000000012  0.4767400000000002  0.53634  1.0000
  H   H32       1.0  0.37268  0.45023  0.5367  1.0000
  H   H33       1.0  0.3680700000000001  0.48775  0.68507  1.0000
  H   H34       1.0  0.12028000000000003  0.4067500000000001  0.33792  1.0000
  H   H35       1.0  0.07136  0.4233300000000001  0.19461  1.0000
  H   H36       1.0  0.2333  0.4467700000000002  0.3113  1.0000
  H   H37       1.0  0.25224  0.4854800000000001  0.26955  1.0000
  H   H38       1.0  0.19708000000000003  0.44499  0.44172999999999996  1.0000
  H   H39       1.0  0.9952600000000003  0.4389400000000001  0.19835  1.0000
  H   H40       1.0  0.3051300000000001  0.49561000000000016  0.24782  1.0000
  H   H41       1.0  0.33251  0.5376300000000003  0.15051  1.0000
  H   H42       1.0  0.17726  0.5025  0.10963  1.0000
  H   H43       1.0  0.77919  0.44655  0.14249  1.0000
  H   H44       1.0  0.9013  0.4243900000000001  0.26917  1.0000
  H   H45       1.0  0.9076600000000002  0.41138000000000013  0.12978  1.0000
  H   H46       1.0  0.30027  0.05955999999999998  0.53625  1.0000
  H   H47       1.0  0.16390000000000002  0.08634  0.53658  1.0000
  H   H48       1.0  0.31678  0.19720000000000004  0.68488  1.0000
  H   H49       1.0  0.21758000000000002  0.93105  0.33783  1.0000
  H   H50       1.0  0.12326  0.7712300000000002  0.19458  1.0000
  H   H51       1.0  0.07799000000000003  0.86451  0.31131  1.0000
  H   H52       1.0  0.01728000000000002  0.7840200000000003  0.26953  1.0000
  H   H53       1.0  0.2446  0.99668  0.44171  1.0000
  H   H54       1.0  0.20311000000000007  0.7593700000000002  0.19833  1.0000
  H   H55       1.0  0.9426200000000002  0.7521100000000002  0.24775  1.0000
  H   H56       1.0  0.81795  0.6128600000000002  0.15046  1.0000
  H   H57       1.0  0.93235  0.6071100000000001  0.10958  1.0000
  H   H58       1.0  0.36351  0.6960200000000002  0.1426  1.0000
  H   H59       1.0  0.3678700000000001  0.8447800000000002  0.26915  1.0000
  H   H60       1.0  0.22229  0.7183600000000002  0.12983  1.0000
  H   H61       1.0  0.52328  0.6997  0.46372  1.0000
  H   H62       1.0  0.54977  0.83606  0.46339  1.0000
  H   H63       1.0  0.51224  0.68316  0.31502  1.0000
  H   H64       1.0  0.5932600000000001  0.7824000000000002  0.66214  1.0000
  H   H65       1.0  0.5766700000000002  0.8767200000000003  0.80545  1.0000
  H   H66       1.0  0.55324  0.9220000000000003  0.68872  1.0000
  H   H67       1.0  0.5145000000000001  0.9827000000000002  0.7304499999999999  1.0000
  H   H68       1.0  0.555  0.75539  0.55829  1.0000
  H   H69       1.0  0.56105  0.79686  0.8016499999999999  1.0000
  H   H70       1.0  0.50436  0.05732999999999998  0.7522  1.0000
  H   H71       1.0  0.4623500000000001  0.18200000000000005  0.84947  1.0000
  H   H72       1.0  0.4975300000000001  0.06767000000000001  0.89044  1.0000
  H   H73       1.0  0.55341  0.6365300000000003  0.85742  1.0000
  H   H74       1.0  0.57558  0.6320600000000002  0.7307599999999999  1.0000
  H   H75       1.0  0.58861  0.7777200000000002  0.87017  1.0000
  H   H76       1.0  0.9403600000000002  0.7640000000000002  0.46367  1.0000
  H   H77       1.0  0.9135800000000002  0.6273200000000001  0.46335  1.0000
  H   H78       1.0  0.8026900000000002  0.63195  0.31502  1.0000
  H   H79       1.0  0.06888000000000002  0.8797400000000001  0.6621  1.0000
  H   H80       1.0  0.22872  0.9286100000000002  0.80536  1.0000
  H   H81       1.0  0.13548000000000004  0.76669  0.68868  1.0000
  H   H82       1.0  0.2159499999999999  0.7477499999999999  0.7304499999999999  1.0000
  H   H83       1.0  0.0032599999999999986  0.8028900000000004  0.55824  1.0000
  H   H84       1.0  0.24061  0.004720000000000045  0.80167  1.0000
  H   H85       1.0  0.24785  0.6948900000000002  0.7522399999999999  1.0000
  H   H86       1.0  0.38714000000000015  0.66751  0.8495600000000001  1.0000
  H   H87       1.0  0.3928499999999999  0.8227299999999999  0.8903499999999999  1.0000
  H   H88       1.0  0.3040199999999999  0.22083  0.8574799999999999  1.0000
  H   H89       1.0  0.15524  0.09872000000000002  0.73091  1.0000
  H   H90       1.0  0.28167  0.09234000000000002  0.8702099999999999  1.0000
  H   H91       1.0  0.76402  0.52326  0.46366  1.0000
  H   H92       1.0  0.62732  0.54976  0.46330000000000005  1.0000
  H   H93       1.0  0.63194  0.51225  0.31494  1.0000
  H   H94       1.0  0.87972  0.59325  0.66208  1.0000
  H   H95       1.0  0.92864  0.57667  0.80539  1.0000
  H   H96       1.0  0.7667  0.5532300000000002  0.68871  1.0000
  H   H97       1.0  0.7477600000000002  0.51451  0.7304499999999999  1.0000
  H   H98       1.0  0.8029200000000002  0.5550100000000002  0.55827  1.0000
  H   H99       1.0  0.0047499999999999635  0.56106  0.8016599999999999  1.0000
  H   H100      1.0  0.6948700000000002  0.5043800000000002  0.7521900000000001  1.0000
  H   H101      1.0  0.66749  0.46237000000000006  0.8494999999999999  1.0000
  H   H102      1.0  0.82274  0.4975000000000001  0.89037  1.0000
  H   H103      1.0  0.2208100000000001  0.55345  0.85751  1.0000
  H   H104      1.0  0.09869999999999993  0.57561  0.7308299999999999  1.0000
  H   H105      1.0  0.09235000000000002  0.5886200000000001  0.87022  1.0000
  H   H106      1.0  0.69973  0.9404400000000003  0.46376  1.0000
  H   H107      1.0  0.8360999999999998  0.9136599999999999  0.46341999999999994  1.0000
  H   H108      1.0  0.68322  0.8028  0.31512  1.0000
  H   H109      1.0  0.7824200000000002  0.06895  0.66217  1.0000
  H   H110      1.0  0.87674  0.22877  0.80542  1.0000
  H   H111      1.0  0.9220100000000002  0.13549000000000005  0.6887  1.0000
  H   H112      1.0  0.98273  0.21598  0.73047  1.0000
  H   H113      1.0  0.7554  0.003320000000000023  0.55829  1.0000
  H   H114      1.0  0.79689  0.24063000000000012  0.80168  1.0000
  H   H115      1.0  0.05737999999999997  0.24789  0.75225  1.0000
  H   H116      1.0  0.1820500000000001  0.38714  0.84954  1.0000
  H   H117      1.0  0.06765999999999997  0.3928900000000001  0.8904199999999999  1.0000
  H   H118      1.0  0.63649  0.30398  0.8574  1.0000
  H   H119      1.0  0.63213  0.15521  0.73085  1.0000
  H   H120      1.0  0.7777200000000002  0.28164000000000017  0.87018  1.0000
  C   C1        1.0  0.49719  0.37182  0.64386  1.0000
  C   C2        1.0  0.48309  0.31392  0.61305  1.0000
  C   C3        1.0  0.47364  0.28207  0.55692  1.0000
  C   C4        1.0  0.4607900000000001  0.22801  0.52921  1.0000
  C   C5        1.0  0.45915000000000006  0.20583000000000012  0.55792  1.0000
  C   C6        1.0  0.46921  0.23811000000000002  0.61415  1.0000
  C   C7        1.0  0.48045  0.29206  0.64155  1.0000
  C   C8        1.0  0.42753000000000013  0.14857000000000004  0.3304  1.0000
  C   C9        1.0  0.41507000000000005  0.18332000000000007  0.3135  1.0000
  C   C10       1.0  0.41406999999999994  0.17496  0.26508  1.0000
  C   C11       1.0  0.42419  0.13081  0.23251999999999998  1.0000
  C   C12       1.0  0.4363800000000001  0.09564000000000003  0.24881  1.0000
  C   C13       1.0  0.43746  0.10449000000000003  0.29746  1.0000
  C   C14       1.0  0.45031  0.05175000000000001  0.21687  1.0000
  C   C15       1.0  0.4727100000000001  0.018770000000000005  0.23182  1.0000
  C   C16       1.0  0.4427500000000001  0.20604  0.43259  1.0000
  C   C17       1.0  0.43415  0.15947000000000003  0.38433000000000006  1.0000
  C   C18       1.0  0.4201400000000002  0.22253  0.22014999999999998  1.0000
  C   C19       1.0  0.40648  0.21432000000000007  0.25178  1.0000
  C   C20       1.0  0.49675000000000014  0.9423900000000002  0.17929  1.0000
  C   C21       1.0  0.50319  0.9239700000000004  0.2138  1.0000
  C   C22       1.0  0.51847  0.8795100000000002  0.20376  1.0000
  C   C23       1.0  0.52692  0.8531700000000002  0.15915  1.0000
  C   C24       1.0  0.5218  0.8727400000000002  0.1259  1.0000
  C   C25       1.0  0.50692  0.9175000000000002  0.13581  1.0000
  C   C26       1.0  0.52395  0.85934  0.23977  1.0000
  C   C27       1.0  0.4377  0.34344000000000013  0.15879  1.0000
  C   C28       1.0  0.4354500000000001  0.37142  0.20823  1.0000
  C   C29       1.0  0.42507999999999996  0.34608  0.23019  1.0000
  C   C30       1.0  0.41665000000000013  0.2923900000000001  0.20194  1.0000
  C   C31       1.0  0.4183500000000001  0.26407  0.15238  1.0000
  C   C32       1.0  0.42954000000000003  0.2898  0.13128  1.0000
  C   C33       1.0  0.44778  0.4293900000000001  0.24013  1.0000
  C   C34       1.0  0.43506  0.25951000000000013  0.08096  1.0000
  C   C35       1.0  0.53213  0.84465  0.07921  1.0000
  C   C36       1.0  0.46867  0.21506999999999998  0.64577  1.0000
  C   C37       1.0  0.14674999999999994  0.27188000000000023  0.64378  1.0000
  C   C38       1.0  0.1300400000000001  0.29906  0.61306  1.0000
  C   C39       1.0  0.08336000000000005  0.2748400000000001  0.55695  1.0000
  C   C40       1.0  0.06847  0.3012  0.52923  1.0000
  C   C41       1.0  0.09881  0.3520600000000002  0.55793  1.0000
  C   C42       1.0  0.14498  0.37599  0.61415  1.0000
  C   C43       1.0  0.1611700000000001  0.3494200000000001  0.64156  1.0000
  C   C44       1.0  0.9028900000000002  0.18186000000000005  0.33046  1.0000
  C   C45       1.0  0.8984500000000002  0.13021  0.31355  1.0000
  C   C46       1.0  0.85105  0.09017  0.26514  1.0000
  C   C47       1.0  0.80838  0.10178000000000002  0.23259  1.0000
  C   C48       1.0  0.81246  0.15322  0.24887  1.0000
  C   C49       1.0  0.8600300000000002  0.19301000000000004  0.29752  1.0000
  C   C50       1.0  0.7666000000000002  0.16517000000000007  0.21693  1.0000
  C   C51       1.0  0.7591200000000002  0.21307000000000006  0.23184  1.0000
  C   C52       1.0  0.9898700000000001  0.22655999999999998  0.43263999999999997  1.0000
  C   C53       1.0  0.9502  0.22488  0.38438  1.0000
  C   C54       1.0  0.8  0.9976800000000002  0.22013  1.0000
  C   C55       1.0  0.8452900000000002  0.0375  0.2518  1.0000
  C   C56       1.0  0.68256  0.23691  0.17929999999999996  1.0000
  C   C57       1.0  0.71062  0.28982000000000013  0.21379  1.0000
  C   C58       1.0  0.68529  0.3242200000000001  0.20366  1.0000
  C   C59       1.0  0.6322200000000002  0.3059600000000001  0.15911  1.0000
  C   C60       1.0  0.6041100000000003  0.25317  0.12595  1.0000
  C   C61       1.0  0.62892  0.21834  0.13589  1.0000
  C   C62       1.0  0.71586  0.3803400000000001  0.2395  1.0000
  C   C63       1.0  0.72106  0.8154100000000002  0.15872  1.0000
  C   C64       1.0  0.77276  0.8368499999999999  0.20812999999999998  1.0000
  C   C65       1.0  0.80506  0.88413  0.23007  1.0000
  C   C66       1.0  0.7852100000000002  0.9096100000000003  0.20185  1.0000
  C   C67       1.0  0.73395  0.8884  0.15232  1.0000
  C   C68       1.0  0.70168  0.8415800000000002  0.13125  1.0000
  C   C69       1.0  0.7924000000000002  0.81077  0.24  1.0000
  C   C70       1.0  0.6458300000000002  0.8215400000000003  0.08096  1.0000
  C   C71       1.0  0.54709  0.23462000000000005  0.07933  1.0000
  C   C72       1.0  0.17705  0.4306700000000001  0.64574  1.0000
  C   C73       1.0  0.27195  0.49725000000000014  0.64393  1.0000
  C   C74       1.0  0.29908  0.48312  0.61314  1.0000
  C   C75       1.0  0.2748400000000001  0.47366000000000014  0.557  1.0000
  C   C76       1.0  0.3012  0.46078  0.52927  1.0000
  C   C77       1.0  0.3520700000000001  0.4591500000000001  0.55799  1.0000
  C   C78       1.0  0.37599  0.46917000000000003  0.61421  1.0000
  C   C79       1.0  0.34943  0.48045  0.64163  1.0000
  C   C80       1.0  0.18186  0.4275300000000001  0.33045  1.0000
  C   C81       1.0  0.13022  0.41507000000000016  0.31356  1.0000
  C   C82       1.0  0.09017  0.41406  0.26513  1.0000
  C   C83       1.0  0.10176  0.4241900000000001  0.23257  1.0000
  C   C84       1.0  0.1532  0.43638000000000016  0.24885000000000002  1.0000
  C   C85       1.0  0.19300000000000006  0.43747  0.29751  1.0000
  C   C86       1.0  0.16515000000000005  0.45030999999999993  0.21691999999999997  1.0000
  C   C87       1.0  0.21305  0.4727000000000001  0.23184  1.0000
  C   C88       1.0  0.22655999999999998  0.44275000000000003  0.43263999999999997  1.0000
  C   C89       1.0  0.2248900000000001  0.4341600000000001  0.38438  1.0000
  C   C90       1.0  0.99768  0.42012000000000016  0.22014999999999998  1.0000
  C   C91       1.0  0.03749999999999999  0.4064700000000001  0.2518  1.0000
  C   C92       1.0  0.23692000000000002  0.49675000000000014  0.17931999999999998  1.0000
  C   C93       1.0  0.28983  0.50316  0.21382  1.0000
  C   C94       1.0  0.32423  0.51841  0.20370999999999997  1.0000
  C   C95       1.0  0.30595  0.5269100000000002  0.15914  1.0000
  C   C96       1.0  0.25316  0.5218400000000002  0.12595  1.0000
  C   C97       1.0  0.21833  0.50695  0.13587  1.0000
  C   C98       1.0  0.38037999999999994  0.52382  0.23962  1.0000
  C   C99       1.0  0.81542  0.4376600000000001  0.1587  1.0000
  C   C100      1.0  0.8368700000000002  0.4354200000000001  0.20815  1.0000
  C   C101      1.0  0.8841400000000003  0.42502999999999996  0.23011  1.0000
  C   C102      1.0  0.90961  0.4166200000000001  0.20188  1.0000
  C   C103      1.0  0.8883900000000002  0.41832  0.15232  1.0000
  C   C104      1.0  0.84158  0.4295200000000001  0.13121  1.0000
  C   C105      1.0  0.8108000000000004  0.44776  0.24004  1.0000
  C   C106      1.0  0.8215300000000001  0.43504  0.08089  1.0000
  C   C107      1.0  0.23459000000000005  0.53219  0.07928  1.0000
  C   C108      1.0  0.43062000000000006  0.46857000000000004  0.64578  1.0000
  C   C109      1.0  0.37175  0.14666000000000007  0.64368  1.0000
  C   C110      1.0  0.3138700000000001  0.12994  0.61294  1.0000
  C   C111      1.0  0.28202  0.08327000000000005  0.55685  1.0000
  C   C112      1.0  0.22796  0.06839000000000005  0.52916  1.0000
  C   C113      1.0  0.20578999999999995  0.09873  0.55786  1.0000
  C   C114      1.0  0.23807  0.14487  0.6141  1.0000
  C   C115      1.0  0.29201  0.16107000000000005  0.64146  1.0000
  C   C116      1.0  0.14855  0.90283  0.3304  1.0000
  C   C117      1.0  0.18330000000000005  0.89838  0.31349  1.0000
  C   C118      1.0  0.17495  0.8509800000000002  0.26508  1.0000
  C   C119      1.0  0.13079  0.8083200000000001  0.23253  1.0000
  C   C120      1.0  0.09563000000000002  0.81241  0.24883  1.0000
  C   C121      1.0  0.10447000000000001  0.8599800000000002  0.29747  1.0000
  C   C122      1.0  0.05174  0.7665600000000002  0.21689  1.0000
  C   C123      1.0  0.018750000000000024  0.7590900000000003  0.23181  1.0000
  C   C124      1.0  0.20601999999999998  0.9898000000000001  0.43256999999999995  1.0000
  C   C125      1.0  0.15945  0.9501400000000002  0.38432  1.0000
  C   C126      1.0  0.22250000000000006  0.7999700000000002  0.22011999999999998  1.0000
  C   C127      1.0  0.2143  0.84524  0.25176  1.0000
  C   C128      1.0  0.9423700000000003  0.68252  0.17926  1.0000
  C   C129      1.0  0.92395  0.71058  0.21377  1.0000
  C   C130      1.0  0.8794600000000001  0.6852600000000002  0.2037  1.0000
  C   C131      1.0  0.85314  0.63221  0.15911  1.0000
  C   C132      1.0  0.8727400000000002  0.6041000000000002  0.1259  1.0000
  C   C133      1.0  0.9175100000000002  0.6288900000000002  0.13583  1.0000
  C   C134      1.0  0.85927  0.7158300000000002  0.23967  1.0000
  C   C135      1.0  0.3434600000000001  0.7210900000000002  0.15879  1.0000
  C   C136      1.0  0.37142  0.7727900000000002  0.20818999999999996  1.0000
  C   C137      1.0  0.34604  0.80508  0.23012999999999997  1.0000
  C   C138      1.0  0.29235  0.78523  0.2019  1.0000
  C   C139      1.0  0.26407  0.7339700000000002  0.15237  1.0000
  C   C140      1.0  0.28983  0.7017100000000002  0.1313  1.0000
  C   C141      1.0  0.42938  0.79242  0.24004  1.0000
  C   C142      1.0  0.25957  0.64586  0.08102  1.0000
  C   C143      1.0  0.84469  0.54708  0.07927  1.0000
  C   C144      1.0  0.21504  0.17696000000000006  0.64577  1.0000
  C   C145      1.0  0.50282  0.6281800000000002  0.35614  1.0000
  C   C146      1.0  0.5169099999999999  0.6860800000000002  0.38695999999999997  1.0000
  C   C147      1.0  0.52636  0.71793  0.44309  1.0000
  C   C148      1.0  0.5392100000000002  0.7719900000000002  0.47079  1.0000
  C   C149      1.0  0.54085  0.7941700000000005  0.44208  1.0000
  C   C150      1.0  0.53079  0.76189  0.38584999999999997  1.0000
  C   C151      1.0  0.51955  0.7079400000000001  0.35846  1.0000
  C   C152      1.0  0.57247  0.8514300000000002  0.6696  1.0000
  C   C153      1.0  0.58493  0.8166800000000002  0.6865  1.0000
  C   C154      1.0  0.5859400000000002  0.8250400000000002  0.73492  1.0000
  C   C155      1.0  0.57582  0.8691900000000002  0.76749  1.0000
  C   C156      1.0  0.56362  0.90436  0.7512  1.0000
  C   C157      1.0  0.56254  0.8955100000000001  0.70254  1.0000
  C   C158      1.0  0.5497  0.9482499999999999  0.78313  1.0000
  C   C159      1.0  0.52729  0.9812300000000003  0.76819  1.0000
  C   C160      1.0  0.55725  0.7939600000000002  0.56742  1.0000
  C   C161      1.0  0.56585  0.8405300000000002  0.61567  1.0000
  C   C162      1.0  0.5798600000000003  0.77747  0.7798599999999999  1.0000
  C   C163      1.0  0.59352  0.7856800000000003  0.74823  1.0000
  C   C164      1.0  0.50325  0.057609999999999974  0.82072  1.0000
  C   C165      1.0  0.4968099999999999  0.07601999999999995  0.7861999999999999  1.0000
  C   C166      1.0  0.4815300000000001  0.12048999999999997  0.79625  1.0000
  C   C167      1.0  0.47308  0.14683000000000002  0.84086  1.0000
  C   C168      1.0  0.4782  0.12726000000000004  0.8741  1.0000
  C   C169      1.0  0.4930800000000001  0.08249999999999992  0.8641899999999999  1.0000
  C   C170      1.0  0.47606  0.14065  0.76024  1.0000
  C   C171      1.0  0.5623  0.65656  0.84122  1.0000
  C   C172      1.0  0.5645599999999998  0.6285699999999999  0.7917799999999999  1.0000
  C   C173      1.0  0.57493  0.65392  0.76982  1.0000
  C   C174      1.0  0.58335  0.7076100000000002  0.79807  1.0000
  C   C175      1.0  0.5816500000000002  0.73593  0.84763  1.0000
  C   C176      1.0  0.57046  0.7102  0.86872  1.0000
  C   C177      1.0  0.55222  0.57061  0.75988  1.0000
  C   C178      1.0  0.56494  0.74049  0.91905  1.0000
  C   C179      1.0  0.46787  0.15535  0.92079  1.0000
  C   C180      1.0  0.53133  0.7849300000000002  0.35422999999999993  1.0000
  C   C181      1.0  0.8532500000000002  0.7281200000000002  0.35622  1.0000
  C   C182      1.0  0.86996  0.7009300000000003  0.38695  1.0000
  C   C183      1.0  0.91665  0.7251600000000002  0.44305  1.0000
  C   C184      1.0  0.9315300000000002  0.6988  0.47078  1.0000
  C   C185      1.0  0.90119  0.6479400000000002  0.44208  1.0000
  C   C186      1.0  0.8550199999999999  0.62401  0.38584999999999997  1.0000
  C   C187      1.0  0.83883  0.65057  0.35845  1.0000
  C   C188      1.0  0.09710999999999999  0.8181400000000002  0.66955  1.0000
  C   C189      1.0  0.10155000000000006  0.86979  0.68645  1.0000
  C   C190      1.0  0.14896000000000006  0.90983  0.73487  1.0000
  C   C191      1.0  0.19163  0.8982200000000002  0.76741  1.0000
  C   C192      1.0  0.18754  0.8467700000000002  0.75113  1.0000
  C   C193      1.0  0.13998000000000005  0.8069900000000002  0.70248  1.0000
  C   C194      1.0  0.2334000000000001  0.83483  0.78307  1.0000
  C   C195      1.0  0.24088  0.7869300000000002  0.76817  1.0000
  C   C196      1.0  0.010129999999999991  0.7734400000000002  0.56737  1.0000
  C   C197      1.0  0.04979999999999998  0.7751100000000002  0.61563  1.0000
  C   C198      1.0  0.20000000000000007  0.002320000000000015  0.77987  1.0000
  C   C199      1.0  0.15471000000000004  0.9625000000000002  0.74821  1.0000
  C   C200      1.0  0.31744  0.76309  0.8207  1.0000
  C   C201      1.0  0.28939  0.71018  0.78622  1.0000
  C   C202      1.0  0.31470999999999993  0.67578  0.7963399999999999  1.0000
  C   C203      1.0  0.36778000000000005  0.6940400000000003  0.8408900000000001  1.0000
  C   C204      1.0  0.39589000000000013  0.74683  0.87405  1.0000
  C   C205      1.0  0.3710899999999999  0.7816600000000002  0.8641199999999999  1.0000
  C   C206      1.0  0.28415  0.6196600000000001  0.7605  1.0000
  C   C207      1.0  0.27894  0.18459000000000012  0.84128  1.0000
  C   C208      1.0  0.2272500000000001  0.16315  0.79187  1.0000
  C   C209      1.0  0.19494000000000006  0.11587  0.76994  1.0000
  C   C210      1.0  0.21479000000000012  0.09038999999999996  0.79815  1.0000
  C   C211      1.0  0.26606  0.11160000000000005  0.84768  1.0000
  C   C212      1.0  0.29832000000000003  0.1584200000000001  0.86876  1.0000
  C   C213      1.0  0.2076  0.18923000000000006  0.76  1.0000
  C   C214      1.0  0.35417000000000004  0.17845  0.91904  1.0000
  C   C215      1.0  0.45291  0.7653800000000002  0.92067  1.0000
  C   C216      1.0  0.82296  0.56933  0.35427  1.0000
  C   C217      1.0  0.72805  0.50275  0.35606999999999994  1.0000
  C   C218      1.0  0.70092  0.5168800000000002  0.38687  1.0000
  C   C219      1.0  0.72516  0.52634  0.44301  1.0000
  C   C220      1.0  0.69881  0.5392200000000003  0.47073  1.0000
  C   C221      1.0  0.6479300000000002  0.54085  0.44200999999999996  1.0000
  C   C222      1.0  0.62402  0.53083  0.3857900000000001  1.0000
  C   C223      1.0  0.65057  0.51955  0.35837  1.0000
  C   C224      1.0  0.81814  0.5724700000000003  0.66955  1.0000
  C   C225      1.0  0.8697900000000003  0.5849300000000002  0.68645  1.0000
  C   C226      1.0  0.90984  0.5859400000000002  0.73487  1.0000
  C   C227      1.0  0.89824  0.5758100000000003  0.76744  1.0000
  C   C228      1.0  0.8468  0.56362  0.75116  1.0000
  C   C229      1.0  0.8070000000000003  0.5625300000000002  0.7025  1.0000
  C   C230      1.0  0.8348600000000003  0.5496800000000001  0.7830899999999998  1.0000
  C   C231      1.0  0.7869500000000003  0.5273  0.76817  1.0000
  C   C232      1.0  0.77344  0.5572500000000002  0.56736  1.0000
  C   C233      1.0  0.77511  0.56584  0.61562  1.0000
  C   C234      1.0  0.002329999999999933  0.57988  0.7798599999999999  1.0000
  C   C235      1.0  0.96251  0.5935300000000002  0.74821  1.0000
  C   C236      1.0  0.76309  0.50325  0.82068  1.0000
  C   C237      1.0  0.71018  0.4968400000000001  0.78619  1.0000
  C   C238      1.0  0.6757800000000003  0.4815800000000002  0.7962900000000002  1.0000
  C   C239      1.0  0.69405  0.47308999999999996  0.8408699999999999  1.0000
  C   C240      1.0  0.7468400000000002  0.47816000000000003  0.8740599999999998  1.0000
  C   C241      1.0  0.78167  0.4930500000000001  0.86413  1.0000
  C   C242      1.0  0.61963  0.47618  0.76038  1.0000
  C   C243      1.0  0.18458999999999995  0.56234  0.84131  1.0000
  C   C244      1.0  0.16314  0.5645800000000002  0.79186  1.0000
  C   C245      1.0  0.11586000000000005  0.57497  0.7699  1.0000
  C   C246      1.0  0.09038999999999996  0.5833800000000001  0.7981199999999999  1.0000
  C   C247      1.0  0.11161000000000001  0.58167  0.84769  1.0000
  C   C248      1.0  0.15842000000000003  0.5704800000000001  0.86879  1.0000
  C   C249      1.0  0.1892  0.5522400000000002  0.7599599999999999  1.0000
  C   C250      1.0  0.17846999999999993  0.5649599999999999  0.9191199999999999  1.0000
  C   C251      1.0  0.7654200000000002  0.4678100000000001  0.92073  1.0000
  C   C252      1.0  0.5693800000000002  0.53143  0.35422  1.0000
  C   C253      1.0  0.62825  0.8533400000000002  0.35633  1.0000
  C   C254      1.0  0.68613  0.8700600000000002  0.38706  1.0000
  C   C255      1.0  0.7179800000000002  0.9167300000000003  0.44316  1.0000
  C   C256      1.0  0.77204  0.9316100000000003  0.47085  1.0000
  C   C257      1.0  0.7942200000000003  0.9012700000000002  0.44214  1.0000
  C   C258      1.0  0.76194  0.85513  0.3859  1.0000
  C   C259      1.0  0.70799  0.8389300000000002  0.35854  1.0000
  C   C260      1.0  0.8514500000000003  0.09717000000000006  0.66961  1.0000
  C   C261      1.0  0.8167000000000002  0.10162  0.68652  1.0000
  C   C262      1.0  0.82505  0.1490200000000001  0.73493  1.0000
  C   C263      1.0  0.86921  0.19168000000000004  0.76747  1.0000
  C   C264      1.0  0.90437  0.18758999999999995  0.75118  1.0000
  C   C265      1.0  0.89553  0.14001999999999995  0.70253  1.0000
  C   C266      1.0  0.9482700000000002  0.23344000000000006  0.78312  1.0000
  C   C267      1.0  0.9812500000000002  0.24090999999999996  0.76819  1.0000
  C   C268      1.0  0.79398  0.010189999999999996  0.56744  1.0000
  C   C269      1.0  0.8405500000000002  0.049860000000000015  0.61568  1.0000
  C   C270      1.0  0.7775000000000002  0.20003  0.77988  1.0000
  C   C271      1.0  0.7857  0.15476  0.7482499999999999  1.0000
  C   C272      1.0  0.05763999999999995  0.31747999999999993  0.8207399999999999  1.0000
  C   C273      1.0  0.07605  0.2894200000000001  0.78623  1.0000
  C   C274      1.0  0.12054000000000001  0.31474000000000013  0.7963  1.0000
  C   C275      1.0  0.14686000000000002  0.36779000000000006  0.8408900000000001  1.0000
  C   C276      1.0  0.12726000000000012  0.3959000000000001  0.8741  1.0000
  C   C277      1.0  0.08249000000000002  0.37111000000000005  0.8641799999999998  1.0000
  C   C278      1.0  0.14073  0.2841700000000001  0.76033  1.0000
  C   C279      1.0  0.6565400000000002  0.27891  0.84121  1.0000
  C   C280      1.0  0.6285900000000002  0.22721  0.79182  1.0000
  C   C281      1.0  0.65396  0.19492  0.76988  1.0000
  C   C282      1.0  0.70765  0.21475999999999995  0.7981099999999999  1.0000
  C   C283      1.0  0.7359300000000002  0.2660300000000001  0.84763  1.0000
  C   C284      1.0  0.71017  0.29828999999999994  0.8686999999999999  1.0000
  C   C285      1.0  0.57063  0.20757000000000006  0.7599599999999999  1.0000
  C   C286      1.0  0.74043  0.3541400000000001  0.91898  1.0000
  C   C287      1.0  0.15531000000000003  0.45292  0.92074  1.0000
  C   C288      1.0  0.7849600000000002  0.8230400000000002  0.35422999999999993  1.0000
  N   N1        1.0  0.44392  0.0377  0.1648  1.0000
  N   N2        1.0  0.46061  0.99809  0.1468  1.0000
  N   N3        1.0  0.47863  0.9859100000000002  0.18777  1.0000
  N   N4        1.0  0.43635  0.12219000000000002  0.39635  1.0000
  N   N5        1.0  0.44550999999999996  0.14286  0.44859999999999994  1.0000
  N   N6        1.0  0.44973  0.19474000000000008  0.47177  1.0000
  N   N7        1.0  0.40851  0.2663200000000001  0.22491999999999998  1.0000
  N   N8        1.0  0.3882800000000002  0.2848400000000001  0.25832  1.0000
  N   N9        1.0  0.3872700000000001  0.25331  0.27424  1.0000
  N   N10       1.0  0.7209300000000002  0.12716000000000005  0.16488  1.0000
  N   N11       1.0  0.6862300000000002  0.14876  0.14687  1.0000
  N   N12       1.0  0.7091600000000002  0.20189000000000001  0.18781999999999996  1.0000
  N   N13       1.0  0.9599900000000001  0.2741600000000001  0.39637  1.0000
  N   N14       1.0  0.0030900000000000107  0.3057400000000001  0.44861  1.0000
  N   N15       1.0  0.02207  0.27703  0.47181  1.0000
  N   N16       1.0  0.81636  0.9586300000000002  0.22485  1.0000
  N   N17       1.0  0.86998  0.9734700000000004  0.25827  1.0000
  N   N18       1.0  0.8869399999999998  0.020919999999999973  0.27423  1.0000
  N   N19       1.0  0.12713  0.44392999999999994  0.16485  1.0000
  N   N20       1.0  0.14874  0.4606400000000001  0.14685  1.0000
  N   N21       1.0  0.20188000000000003  0.4786400000000001  0.18781000000000003  1.0000
  N   N22       1.0  0.27418  0.4363700000000001  0.3964  1.0000
  N   N23       1.0  0.30576  0.44551000000000013  0.44865  1.0000
  N   N24       1.0  0.27703  0.44973000000000013  0.47184  1.0000
  N   N25       1.0  0.95864  0.40847  0.22489  1.0000
  N   N26       1.0  0.9734900000000002  0.38825000000000015  0.25831  1.0000
  N   N27       1.0  0.020949999999999996  0.3872500000000001  0.27426  1.0000
  N   N28       1.0  0.03772  0.72089  0.16483  1.0000
  N   N29       1.0  0.9981  0.6862000000000003  0.14682  1.0000
  N   N30       1.0  0.98591  0.70912  0.18778  1.0000
  N   N31       1.0  0.12217  0.95995  0.39632999999999996  1.0000
  N   N32       1.0  0.14282999999999998  0.003039999999999973  0.44856999999999997  1.0000
  N   N33       1.0  0.19472  0.02201  0.47174  1.0000
  N   N34       1.0  0.26628  0.8163500000000001  0.22488  1.0000
  N   N35       1.0  0.28482000000000013  0.8699700000000004  0.25827  1.0000
  N   N36       1.0  0.2533  0.8869  0.2742  1.0000
  N   N37       1.0  0.55608  0.9622999999999999  0.8352  1.0000
  N   N38       1.0  0.53939  0.0019099999999999992  0.85321  1.0000
  N   N39       1.0  0.52137  0.014090000000000009  0.81223  1.0000
  N   N40       1.0  0.56365  0.8778099999999999  0.60366  1.0000
  N   N41       1.0  0.55449  0.8571400000000003  0.5514  1.0000
  N   N42       1.0  0.55028  0.8052499999999999  0.52823  1.0000
  N   N43       1.0  0.59149  0.7336800000000002  0.77509  1.0000
  N   N44       1.0  0.61173  0.71516  0.74168  1.0000
  N   N45       1.0  0.6127400000000002  0.74669  0.7257599999999998  1.0000
  N   N46       1.0  0.27907  0.8728400000000002  0.83513  1.0000
  N   N47       1.0  0.31377  0.8512400000000002  0.85314  1.0000
  N   N48       1.0  0.29084000000000004  0.7981100000000002  0.8121799999999999  1.0000
  N   N49       1.0  0.04000999999999998  0.72583  0.60363  1.0000
  N   N50       1.0  0.9969200000000003  0.6942600000000002  0.55139  1.0000
  N   N51       1.0  0.97793  0.7229700000000002  0.5282  1.0000
  N   N52       1.0  0.18365000000000012  0.04135999999999998  0.77515  1.0000
  N   N53       1.0  0.13002  0.02653000000000001  0.74174  1.0000
  N   N54       1.0  0.11305999999999994  0.9790799999999998  0.7257699999999999  1.0000
  N   N55       1.0  0.87287  0.5560700000000002  0.83516  1.0000
  N   N56       1.0  0.85126  0.53936  0.85316  1.0000
  N   N57       1.0  0.7981300000000002  0.52135  0.8122  1.0000
  N   N58       1.0  0.72582  0.56363  0.60361  1.0000
  N   N59       1.0  0.69425  0.55448  0.55136  1.0000
  N   N60       1.0  0.7229700000000002  0.5502700000000003  0.52817  1.0000
  N   N61       1.0  0.04136000000000002  0.5915300000000002  0.7751199999999999  1.0000
  N   N62       1.0  0.026509999999999992  0.61175  0.7417  1.0000
  N   N63       1.0  0.97905  0.61274  0.72575  1.0000
  N   N64       1.0  0.96229  0.27909999999999996  0.8351699999999999  1.0000
  N   N65       1.0  0.0019000000000000072  0.31380000000000013  0.85319  1.0000
  N   N66       1.0  0.014099999999999998  0.29087  0.81222  1.0000
  N   N67       1.0  0.87783  0.04003999999999997  0.60368  1.0000
  N   N68       1.0  0.85717  0.99696  0.55143  1.0000
  N   N69       1.0  0.80529  0.97799  0.52827  1.0000
  N   N70       1.0  0.73372  0.18365  0.77513  1.0000
  N   N71       1.0  0.71518  0.13003  0.7417299999999999  1.0000
  N   N72       1.0  0.74671  0.11309999999999999  0.7258  1.0000
  O   O1        1.0  0.51019  0.3918800000000001  0.62318  1.0000
  O   O2        1.0  0.49544  0.39669  0.68924  1.0000
  O   O3        1.0  0.47453  0.2463  0.6952  1.0000
  O   O4        1.0  0.46297999999999995  0.16632000000000005  0.62139  1.0000
  O   O5        1.0  0.452  0.4539900000000001  0.28928  1.0000
  O   O6        1.0  0.45406000000000013  0.4499000000000001  0.21616  1.0000
  O   O7        1.0  0.43143  0.21161  0.0618  1.0000
  O   O8        1.0  0.4438900000000001  0.28393  0.06179  1.0000
  O   O9        1.0  0.5416  0.8696700000000004  0.060910000000000006  1.0000
  O   O10       1.0  0.53088  0.7974600000000002  0.06162999999999999  1.0000
  O   O11       1.0  0.5240400000000002  0.88932  0.28579  1.0000
  O   O12       1.0  0.52783  0.8135300000000003  0.22139  1.0000
  O   O13       1.0  0.11298000000000004  0.23119000000000006  0.62307  1.0000
  O   O14       1.0  0.19388000000000005  0.2922  0.68909  1.0000
  O   O15       1.0  0.22051000000000007  0.4490000000000001  0.6953  1.0000
  O   O16       1.0  0.15839  0.4549300000000002  0.62119  1.0000
  O   O17       1.0  0.8373500000000001  0.8353100000000002  0.28914  1.0000
  O   O18       1.0  0.76217  0.76626  0.21597000000000002  1.0000
  O   O19       1.0  0.63015  0.8505  0.06214  1.0000
  O   O20       1.0  0.6179700000000002  0.7777500000000002  0.06151  1.0000
  O   O21       1.0  0.5192700000000002  0.19149  0.06136  1.0000
  O   O22       1.0  0.53079  0.26407  0.06149  1.0000
  O   O23       1.0  0.7617900000000002  0.39643  0.28554  1.0000
  O   O24       1.0  0.69362  0.4076800000000001  0.22095  1.0000
  O   O25       1.0  0.23124000000000003  0.51027  0.62319  1.0000
  O   O26       1.0  0.29233  0.49553  0.68932  1.0000
  O   O27       1.0  0.44883  0.47439000000000003  0.6952  1.0000
  O   O28       1.0  0.45498  0.4628400000000001  0.62136  1.0000
  O   O29       1.0  0.83538  0.45208000000000015  0.28926  1.0000
  O   O30       1.0  0.7663  0.45395000000000013  0.21598  1.0000
  O   O31       1.0  0.8503100000000002  0.4315100000000001  0.06178  1.0000
  O   O32       1.0  0.7779000000000003  0.44378  0.061689999999999995  1.0000
  O   O33       1.0  0.19134  0.5418  0.061099999999999995  1.0000
  O   O34       1.0  0.26413  0.5308  0.06159  1.0000
  O   O35       1.0  0.39645000000000014  0.5238600000000002  0.28563  1.0000
  O   O36       1.0  0.40776  0.52767  0.22118  1.0000
  O   O37       1.0  0.39180000000000004  0.11295000000000005  0.62303  1.0000
  O   O38       1.0  0.39664  0.1938  0.68896  1.0000
  O   O39       1.0  0.24633000000000005  0.2204000000000001  0.69535  1.0000
  O   O40       1.0  0.16625  0.15833  0.6213  1.0000
  O   O41       1.0  0.4539500000000002  0.8374000000000003  0.28913  1.0000
  O   O42       1.0  0.44991000000000003  0.7622  0.21609  1.0000
  O   O43       1.0  0.2117800000000001  0.63024  0.06214  1.0000
  O   O44       1.0  0.2839100000000001  0.6179400000000003  0.06162  1.0000
  O   O45       1.0  0.8698100000000002  0.5192700000000002  0.06119  1.0000
  O   O46       1.0  0.7974400000000003  0.5307600000000002  0.06152  1.0000
  O   O47       1.0  0.88926  0.76173  0.28573  1.0000
  O   O48       1.0  0.81341  0.6936300000000001  0.22122  1.0000
  O   O49       1.0  0.4898200000000001  0.6081200000000002  0.37682000000000004  1.0000
  O   O50       1.0  0.50456  0.6033000000000002  0.31077  1.0000
  O   O51       1.0  0.52547  0.7537000000000001  0.3048  1.0000
  O   O52       1.0  0.53702  0.83368  0.37861  1.0000
  O   O53       1.0  0.54801  0.546  0.71073  1.0000
  O   O54       1.0  0.54594  0.5501000000000003  0.78385  1.0000
  O   O55       1.0  0.56857  0.7883900000000003  0.93821  1.0000
  O   O56       1.0  0.55611  0.71607  0.93821  1.0000
  O   O57       1.0  0.4584000000000001  0.13033000000000008  0.9391  1.0000
  O   O58       1.0  0.46912  0.20254000000000003  0.93837  1.0000
  O   O59       1.0  0.4759600000000001  0.11067999999999999  0.71421  1.0000
  O   O60       1.0  0.47218000000000004  0.18647000000000008  0.7786100000000001  1.0000
  O   O61       1.0  0.8870200000000004  0.7688100000000002  0.37694  1.0000
  O   O62       1.0  0.80613  0.7078  0.31091  1.0000
  O   O63       1.0  0.7794900000000002  0.5510000000000003  0.3047  1.0000
  O   O64       1.0  0.84161  0.54506  0.3788099999999999  1.0000
  O   O65       1.0  0.16265000000000004  0.16468999999999998  0.71086  1.0000
  O   O66       1.0  0.23783  0.23373000000000005  0.78403  1.0000
  O   O67       1.0  0.36984999999999996  0.1494999999999999  0.9378699999999999  1.0000
  O   O68       1.0  0.38203000000000004  0.22225  0.9384999999999999  1.0000
  O   O69       1.0  0.4807300000000001  0.80851  0.93865  1.0000
  O   O70       1.0  0.46921  0.73593  0.93851  1.0000
  O   O71       1.0  0.23821000000000003  0.60357  0.71447  1.0000
  O   O72       1.0  0.30639  0.59232  0.7790499999999999  1.0000
  O   O73       1.0  0.7687600000000001  0.48973000000000005  0.37681  1.0000
  O   O74       1.0  0.70768  0.5044700000000001  0.31068  1.0000
  O   O75       1.0  0.55117  0.52561  0.30481  1.0000
  O   O76       1.0  0.54503  0.5371600000000002  0.37864  1.0000
  O   O77       1.0  0.16461999999999988  0.5479200000000002  0.7107499999999999  1.0000
  O   O78       1.0  0.2337  0.54605  0.78402  1.0000
  O   O79       1.0  0.14968999999999996  0.56849  0.93823  1.0000
  O   O80       1.0  0.22209999999999996  0.55622  0.9383099999999999  1.0000
  O   O81       1.0  0.80867  0.4582000000000001  0.93891  1.0000
  O   O82       1.0  0.73587  0.4692000000000001  0.93842  1.0000
  O   O83       1.0  0.60355  0.47614000000000023  0.71437  1.0000
  O   O84       1.0  0.59224  0.47233000000000014  0.77883  1.0000
  O   O85       1.0  0.6082000000000002  0.88705  0.37698  1.0000
  O   O86       1.0  0.60336  0.8062000000000002  0.31104  1.0000
  O   O87       1.0  0.75368  0.7796  0.30465  1.0000
  O   O88       1.0  0.8337500000000001  0.8416600000000002  0.37871  1.0000
  O   O89       1.0  0.5460500000000003  0.16259999999999988  0.7108699999999999  1.0000
  O   O90       1.0  0.5501000000000003  0.23780000000000012  0.78391  1.0000
  O   O91       1.0  0.78822  0.36976000000000003  0.93786  1.0000
  O   O92       1.0  0.7161  0.3820600000000001  0.93839  1.0000
  O   O93       1.0  0.13019999999999998  0.4807300000000001  0.93881  1.0000
  O   O94       1.0  0.20256  0.4692300000000001  0.93849  1.0000
  O   O95       1.0  0.11073999999999999  0.23827000000000004  0.71428  1.0000
  O   O96       1.0  0.18659000000000006  0.3063699999999999  0.7787899999999999  1.0000
