data_image0
_chemical_formula_structural       Zn20H192C276N72O48
_chemical_formula_sum              "Zn20 H192 C276 N72 O48"
_cell_length_a       21.43194
_cell_length_b       23.17244
_cell_length_c       39.116620000000005
_cell_angle_alpha    79.81343
_cell_angle_beta     73.97193
_cell_angle_gamma    62.39346999999999

_space_group_name_H-M_alt    "P 1"
_space_group_IT_number       1

loop_
  _space_group_symop_operation_xyz
  'x, y, z'

loop_
  _atom_site_type_symbol
  _atom_site_label
  _atom_site_symmetry_multiplicity
  _atom_site_fract_x
  _atom_site_fract_y
  _atom_site_fract_z
  _atom_site_occupancy
  Zn  Zn1       1.0  0.34942000000000006  0.48572  0.42192  1.0000
  Zn  Zn2       1.0  0.3055399999999999  0.45738999999999996  0.51669  1.0000
  Zn  Zn3       1.0  0.46546000000000004  0.32976  0.38269  1.0000
  Zn  Zn4       1.0  0.4402900000000002  0.58851  0.3984099999999999  1.0000
  Zn  Zn5       1.0  0.18719999999999998  0.5654  0.38823  1.0000
  Zn  Zn6       1.0  0.7426000000000006  0.9857200000000002  0.9219099999999999  1.0000
  Zn  Zn7       1.0  0.7204900000000002  0.95725  0.01673  1.0000
  Zn  Zn8       1.0  0.8222400000000009  0.8294  0.8828999999999999  1.0000
  Zn  Zn9       1.0  0.5726500000000001  0.08847000000000001  0.8988099999999999  1.0000
  Zn  Zn10      1.0  0.8599299999999999  0.06527000000000001  0.8882599999999999  1.0000
  Zn  Zn11      1.0  0.2574  0.014290000000000002  0.07809  1.0000
  Zn  Zn12      1.0  0.2795  0.042760000000000006  0.9832699999999999  1.0000
  Zn  Zn13      1.0  0.17776  0.17061  0.11708999999999997  1.0000
  Zn  Zn14      1.0  0.4273499999999999  0.91154  0.10119  1.0000
  Zn  Zn15      1.0  0.14006999999999994  0.93474  0.11173  1.0000
  Zn  Zn16      1.0  0.6505699999999999  0.51429  0.57808  1.0000
  Zn  Zn17      1.0  0.6944600000000001  0.54262  0.48330999999999996  1.0000
  Zn  Zn18      1.0  0.5345400000000003  0.67025  0.6173099999999999  1.0000
  Zn  Zn19      1.0  0.55971  0.4115  0.60159  1.0000
  Zn  Zn20      1.0  0.8127999999999999  0.43462000000000006  0.61177  1.0000
  H   H1        1.0  0.17528999999999995  0.49113000000000007  0.32367  1.0000
  H   H2        1.0  0.2169399999999999  0.40443  0.28108  1.0000
  H   H3        1.0  0.14239000000000002  0.71646  0.3458  1.0000
  H   H4        1.0  0.21727000000000005  0.28329  0.89221  1.0000
  H   H5        1.0  0.3328299999999999  0.30583000000000005  0.27925  1.0000
  H   H6        1.0  0.15863999999999992  0.8171200000000001  0.32188  1.0000
  H   H7        1.0  0.41252000000000005  0.28815  0.31993999999999995  1.0000
  H   H8        1.0  0.26344000000000006  0.82949  0.3276799999999999  1.0000
  H   H9        1.0  0.44702000000000003  0.17692999999999998  0.80365  1.0000
  H   H10       1.0  0.35860000000000003  0.74099  0.35697  1.0000
  H   H11       1.0  0.7196  0.4492699999999999  0.3062  1.0000
  H   H12       1.0  0.33143000000000006  0.23886  0.7836899999999999  1.0000
  H   H13       1.0  0.14924000000000004  0.4423500000000001  0.78959  1.0000
  H   H14       1.0  0.10513000000000002  0.41840000000000016  0.8315099999999997  1.0000
  H   H15       1.0  0.51433  0.12588  0.49610999999999994  1.0000
  H   H16       1.0  0.44668999999999986  0.17974000000000004  0.55251  1.0000
  H   H17       1.0  0.07058000000000002  0.4062  0.74311  1.0000
  H   H18       1.0  0.14162999999999998  0.3254600000000001  0.73683  1.0000
  H   H19       1.0  0.33479000000000003  0.21919  0.91192  1.0000
  H   H20       1.0  0.07465999999999996  0.32615  0.83626  1.0000
  H   H21       1.0  0.012469999999999993  0.37874  0.80907  1.0000
  H   H22       1.0  0.17496000000000006  0.37024999999999997  0.6174499999999999  1.0000
  H   H23       1.0  0.23978000000000002  0.32881  0.77624  1.0000
  H   H24       1.0  0.2122999999999999  0.26489000000000007  0.78191  1.0000
  H   H25       1.0  0.3617800000000001  0.52432  0.5676699999999999  1.0000
  H   H26       1.0  0.09507000000000003  0.51499  0.8367799999999997  1.0000
  H   H27       1.0  0.013160000000000071  0.12089999999999997  0.79957  1.0000
  H   H28       1.0  0.07850000000000001  0.18852000000000002  0.768  1.0000
  H   H29       1.0  0.98421  0.3081499999999999  0.85835  1.0000
  H   H30       1.0  0.13264000000000006  0.35882  0.6830399999999999  1.0000
  H   H31       1.0  0.02931999999999993  0.62255  0.8642  1.0000
  H   H32       1.0  0.29761999999999994  0.4637800000000001  0.63123  1.0000
  H   H33       1.0  0.47783  0.64265  0.52819  1.0000
  H   H34       1.0  0.41912000000000005  0.59059  0.5781199999999999  1.0000
  H   H35       1.0  0.9176499999999999  0.56523  0.788  1.0000
  H   H36       1.0  0.37212000000000006  0.30118  0.55334  1.0000
  H   H37       1.0  0.6319400000000001  0.30761  0.33213999999999994  1.0000
  H   H38       1.0  0.91953  0.24120999999999998  0.88874  1.0000
  H   H39       1.0  0.7318900000000003  0.33957  0.30144999999999994  1.0000
  H   H40       1.0  0.6062  0.53341  0.34105  1.0000
  H   H41       1.0  0.85319  0.67421  0.81528  1.0000
  H   H42       1.0  0.5127  0.19002000000000002  0.43745999999999996  1.0000
  H   H43       1.0  0.4808199999999999  0.63268  0.4648399999999999  1.0000
  H   H44       1.0  0.2580200000000001  0.4504000000000001  0.69769  1.0000
  H   H45       1.0  0.024600000000000042  0.60712  0.44948999999999995  1.0000
  H   H46       1.0  0.9447800000000002  0.6171  0.51062  1.0000
  H   H47       1.0  0.9958400000000001  0.57434  0.56414  1.0000
  H   H48       1.0  0.12942999999999993  0.5168500000000001  0.55925  1.0000
  H   H49       1.0  0.010190000000000006  0.99088  0.8234899999999999  1.0000
  H   H50       1.0  0.09798999999999997  0.9041799999999999  0.78084  1.0000
  H   H51       1.0  0.7953199999999998  0.21647  0.84582  1.0000
  H   H52       1.0  0.6071300000000001  0.78325  0.39217  1.0000
  H   H53       1.0  0.08249000000000009  0.80573  0.7790399999999998  1.0000
  H   H54       1.0  0.70219  0.3171  0.8219699999999999  1.0000
  H   H55       1.0  0.9794499999999998  0.7882199999999999  0.81989  1.0000
  H   H56       1.0  0.57924  0.32924  0.82775  1.0000
  H   H57       1.0  0.5725999999999999  0.67732  0.30363  1.0000
  H   H58       1.0  0.5433700000000001  0.24069000000000004  0.8569899999999999  1.0000
  H   H59       1.0  0.52527  0.9494200000000002  0.8063  1.0000
  H   H60       1.0  0.6462399999999999  0.73924  0.28363999999999995  1.0000
  H   H61       1.0  0.61906  0.94264  0.28946  1.0000
  H   H62       1.0  0.64478  0.91848  0.33141  1.0000
  H   H63       1.0  0.86335  0.62594  0.9961699999999999  1.0000
  H   H64       1.0  0.82109  0.67962  0.05258  1.0000
  H   H65       1.0  0.7801999999999999  0.9065  0.2428  1.0000
  H   H66       1.0  0.7964800000000001  0.8256599999999998  0.2366  1.0000
  H   H67       1.0  0.5339000000000002  0.71921  0.4119799999999999  1.0000
  H   H68       1.0  0.76299  0.82643  0.3361  1.0000
  H   H69       1.0  0.80023  0.87856  0.30872999999999995  1.0000
  H   H70       1.0  0.8370299999999998  0.8703200000000001  0.1172  1.0000
  H   H71       1.0  0.65533  0.8292000000000002  0.27619  1.0000
  H   H72       1.0  0.7411299999999997  0.7651000000000002  0.2818  1.0000
  H   H73       1.0  0.5458  0.024570000000000005  0.06781  1.0000
  H   H74       1.0  0.5532  0.01543  0.33703  1.0000
  H   H75       1.0  0.06675000000000003  0.62039  0.29975  1.0000
  H   H76       1.0  0.9655700000000002  0.6879200000000001  0.26808999999999994  1.0000
  H   H77       1.0  0.8490700000000001  0.8082000000000001  0.35817  1.0000
  H   H78       1.0  0.82549  0.85889  0.18272999999999998  1.0000
  H   H79       1.0  0.48366  0.12358  0.36385999999999996  1.0000
  H   H80       1.0  0.6066499999999998  0.9639600000000003  0.13165999999999997  1.0000
  H   H81       1.0  0.35085  0.14284  0.02841  1.0000
  H   H82       1.0  0.41154  0.0911  0.0783  1.0000
  H   H83       1.0  0.7301  0.06477  0.28796  1.0000
  H   H84       1.0  0.7735000000000001  0.80101  0.053459999999999994  1.0000
  H   H85       1.0  0.7285900000000005  0.8076500000000001  0.83236  1.0000
  H   H86       1.0  0.9499100000000001  0.74127  0.38867999999999997  1.0000
  H   H87       1.0  0.6275599999999999  0.83961  0.80167  1.0000
  H   H88       1.0  0.51926  0.03358  0.84107  1.0000
  H   H89       1.0  0.6582100000000002  0.17402  0.31484  1.0000
  H   H90       1.0  0.8594800000000002  0.69025  0.9375699999999999  1.0000
  H   H91       1.0  0.42146999999999996  0.13246  0.96502  1.0000
  H   H92       1.0  0.59348  0.95061  0.19803999999999997  1.0000
  H   H93       1.0  0.9186600000000003  0.1071  0.94929  1.0000
  H   H94       1.0  0.9272700000000001  0.11713  0.01035  1.0000
  H   H95       1.0  0.8654600000000001  0.07427  0.06398999999999999  1.0000
  H   H96       1.0  0.79436  0.01671  0.05926  1.0000
  H   H97       1.0  0.98981  0.009130000000000001  0.17651  1.0000
  H   H98       1.0  0.90201  0.09583000000000001  0.21916  1.0000
  H   H99       1.0  0.20467999999999997  0.78354  0.15418  1.0000
  H   H100      1.0  0.39286  0.21676  0.60782  1.0000
  H   H101      1.0  0.91751  0.19427999999999998  0.22095  1.0000
  H   H102      1.0  0.2978  0.68291  0.17803  1.0000
  H   H103      1.0  0.02053999999999999  0.2118  0.18011  1.0000
  H   H104      1.0  0.42075  0.67077  0.17224999999999993  1.0000
  H   H105      1.0  0.42739  0.32269  0.6963699999999999  1.0000
  H   H106      1.0  0.4566299999999999  0.75932  0.14301  1.0000
  H   H107      1.0  0.47472  0.05059  0.1937  1.0000
  H   H108      1.0  0.35375000000000006  0.26077  0.7163599999999999  1.0000
  H   H109      1.0  0.38092999999999994  0.05737  0.71054  1.0000
  H   H110      1.0  0.35521  0.08153  0.66859  1.0000
  H   H111      1.0  0.13665000000000013  0.37407  0.00383  1.0000
  H   H112      1.0  0.17890999999999993  0.32039  0.94742  1.0000
  H   H113      1.0  0.21979999999999983  0.09351  0.75719  1.0000
  H   H114      1.0  0.20350999999999997  0.17435  0.76339  1.0000
  H   H115      1.0  0.46608999999999995  0.2808  0.58802  1.0000
  H   H116      1.0  0.2370000000000001  0.17359000000000002  0.6638999999999998  1.0000
  H   H117      1.0  0.19977000000000003  0.12145000000000003  0.6912699999999999  1.0000
  H   H118      1.0  0.16297000000000006  0.12969  0.8828  1.0000
  H   H119      1.0  0.34466000000000013  0.17081  0.7238  1.0000
  H   H120      1.0  0.2588599999999999  0.23492000000000005  0.7181899999999999  1.0000
  H   H121      1.0  0.4541900000000001  0.97544  0.9321899999999999  1.0000
  H   H122      1.0  0.4467899999999999  0.9845900000000001  0.66297  1.0000
  H   H123      1.0  0.93325  0.37962000000000007  0.70024  1.0000
  H   H124      1.0  0.034419999999999944  0.31209  0.7319  1.0000
  H   H125      1.0  0.15092  0.19181  0.64183  1.0000
  H   H126      1.0  0.17451000000000003  0.14112999999999998  0.81727  1.0000
  H   H127      1.0  0.5163299999999998  0.87643  0.6361399999999999  1.0000
  H   H128      1.0  0.39334  0.036050000000000006  0.8683399999999999  1.0000
  H   H129      1.0  0.6491500000000002  0.8571700000000001  0.9715899999999998  1.0000
  H   H130      1.0  0.58845  0.90891  0.92169  1.0000
  H   H131      1.0  0.2698899999999999  0.93524  0.71204  1.0000
  H   H132      1.0  0.22650000000000006  0.19901000000000005  0.94654  1.0000
  H   H133      1.0  0.27141  0.19236  0.16764  1.0000
  H   H134      1.0  0.05009000000000002  0.25874  0.61132  1.0000
  H   H135      1.0  0.37243999999999994  0.1604  0.19833  1.0000
  H   H136      1.0  0.48074  0.96643  0.15891999999999998  1.0000
  H   H137      1.0  0.34179  0.8259900000000001  0.68515  1.0000
  H   H138      1.0  0.14051  0.30976  0.06243  1.0000
  H   H139      1.0  0.57852  0.86755  0.03498  1.0000
  H   H140      1.0  0.40652  0.049400000000000006  0.80195  1.0000
  H   H141      1.0  0.08133  0.89291  0.0507  1.0000
  H   H142      1.0  0.07272000000000017  0.88288  0.9896499999999999  1.0000
  H   H143      1.0  0.13453999999999994  0.92574  0.93601  1.0000
  H   H144      1.0  0.20564000000000002  0.9833  0.9407299999999998  1.0000
  H   H145      1.0  0.8247000000000001  0.5088800000000001  0.6763199999999999  1.0000
  H   H146      1.0  0.78306  0.59558  0.71891  1.0000
  H   H147      1.0  0.8576100000000001  0.28355  0.6542  1.0000
  H   H148      1.0  0.7827299999999999  0.71672  0.10777999999999999  1.0000
  H   H149      1.0  0.66716  0.69418  0.72075  1.0000
  H   H150      1.0  0.8413500000000002  0.18289000000000002  0.67811  1.0000
  H   H151      1.0  0.58747  0.71186  0.68005  1.0000
  H   H152      1.0  0.73656  0.17052000000000003  0.67231  1.0000
  H   H153      1.0  0.5529699999999999  0.8230800000000001  0.19634  1.0000
  H   H154      1.0  0.6414  0.25902  0.64302  1.0000
  H   H155      1.0  0.28039000000000014  0.55074  0.6937999999999998  1.0000
  H   H156      1.0  0.66857  0.76115  0.21630999999999997  1.0000
  H   H157      1.0  0.8507500000000001  0.55766  0.2104  1.0000
  H   H158      1.0  0.89486  0.58161  0.16848  1.0000
  H   H159      1.0  0.48566  0.8741300000000001  0.50389  1.0000
  H   H160      1.0  0.55331  0.8202700000000002  0.44749  1.0000
  H   H161      1.0  0.9294200000000001  0.59381  0.25689  1.0000
  H   H162      1.0  0.85837  0.67455  0.26316  1.0000
  H   H163      1.0  0.66521  0.7808200000000001  0.08807  1.0000
  H   H164      1.0  0.92533  0.67386  0.16374  1.0000
  H   H165      1.0  0.98752  0.62128  0.19092  1.0000
  H   H166      1.0  0.82503  0.62976  0.38255  1.0000
  H   H167      1.0  0.76021  0.6712  0.22375999999999996  1.0000
  H   H168      1.0  0.7877000000000002  0.73512  0.21809  1.0000
  H   H169      1.0  0.6382099999999999  0.47569  0.43233  1.0000
  H   H170      1.0  0.9049300000000001  0.48502  0.16322  1.0000
  H   H171      1.0  0.9868400000000003  0.87911  0.20042  1.0000
  H   H172      1.0  0.9215000000000002  0.8114899999999999  0.23199999999999998  1.0000
  H   H173      1.0  0.015790000000000023  0.69186  0.14164999999999997  1.0000
  H   H174      1.0  0.8673500000000002  0.64119  0.31695999999999996  1.0000
  H   H175      1.0  0.97068  0.37746  0.13579  1.0000
  H   H176      1.0  0.7023799999999999  0.53623  0.36877  1.0000
  H   H177      1.0  0.5221599999999997  0.35736  0.47181  1.0000
  H   H178      1.0  0.5808799999999998  0.40942  0.42188  1.0000
  H   H179      1.0  0.08235000000000005  0.43478  0.212  1.0000
  H   H180      1.0  0.6278800000000001  0.69883  0.44666  1.0000
  H   H181      1.0  0.3680500000000001  0.6924  0.6678599999999999  1.0000
  H   H182      1.0  0.08047000000000003  0.7588  0.11125999999999998  1.0000
  H   H183      1.0  0.26810000000000006  0.66044  0.69855  1.0000
  H   H184      1.0  0.39378999999999964  0.4666  0.65895  1.0000
  H   H185      1.0  0.14681  0.3258  0.18471  1.0000
  H   H186      1.0  0.48728999999999995  0.8099900000000001  0.56254  1.0000
  H   H187      1.0  0.5191700000000001  0.36733  0.53516  1.0000
  H   H188      1.0  0.74198  0.54961  0.30231  1.0000
  H   H189      1.0  0.9753899999999999  0.39289  0.5505099999999999  1.0000
  H   H190      1.0  0.05521000000000005  0.38291000000000003  0.4893799999999999  1.0000
  H   H191      1.0  0.004150000000000028  0.42567000000000005  0.43584999999999996  1.0000
  H   H192      1.0  0.87057  0.48316  0.44074  1.0000
  C   C1        1.0  0.12414000000000007  0.36241  0.7875799999999998  1.0000
  C   C2        1.0  0.22599999999999995  0.44727  0.32258  1.0000
  C   C3        1.0  0.30255999999999994  0.6794  0.36804  1.0000
  C   C4        1.0  0.25  0.39896000000000004  0.29922  1.0000
  C   C5        1.0  0.24221000000000012  0.67248  0.36476  1.0000
  C   C6        1.0  0.18879000000000018  0.72187  0.3480399999999999  1.0000
  C   C7        1.0  0.26813  0.25982  0.8732599999999999  1.0000
  C   C8        1.0  0.3168099999999999  0.34217000000000003  0.29811  1.0000
  C   C9        1.0  0.19839999999999988  0.77752  0.33505  1.0000
  C   C10       1.0  0.3619500000000001  0.33187  0.32027  1.0000
  C   C11       1.0  0.27182000000000006  0.4375000000000001  0.3450299999999999  1.0000
  C   C12       1.0  0.25888999999999995  0.7846000000000001  0.33838  1.0000
  C   C13       1.0  0.3964100000000001  0.20053000000000004  0.82278  1.0000
  C   C14       1.0  0.31185  0.73616  0.35470999999999997  1.0000
  C   C15       1.0  0.6750800000000002  0.43742999999999993  0.32007  1.0000
  C   C16       1.0  0.3316  0.23561000000000007  0.8116699999999999  1.0000
  C   C17       1.0  0.10715999999999996  0.42617  0.80277  1.0000
  C   C18       1.0  0.4841300000000001  0.17875  0.49519  1.0000
  C   C19       1.0  0.44483000000000006  0.20991999999999994  0.52775  1.0000
  C   C20       1.0  0.9372699999999999  0.65443  0.8417899999999999  1.0000
  C   C21       1.0  0.12458  0.37247  0.74766  1.0000
  C   C22       1.0  0.33296999999999993  0.22436000000000003  0.88401  1.0000
  C   C23       1.0  0.5577500000000001  0.46577  0.35698  1.0000
  C   C24       1.0  0.38889000000000007  0.54286  0.51022  1.0000
  C   C25       1.0  0.19343999999999997  0.40395000000000003  0.69429  1.0000
  C   C26       1.0  0.0671300000000001  0.33954  0.8087899999999998  1.0000
  C   C27       1.0  0.19275000000000012  0.38768  0.63527  1.0000
  C   C28       1.0  0.2674500000000001  0.26573000000000013  0.83701  1.0000
  C   C29       1.0  0.19974999999999996  0.31159  0.79174  1.0000
  C   C30       1.0  0.00897999999999999  0.53323  0.81132  1.0000
  C   C31       1.0  0.38749  0.54782  0.54584  1.0000
  C   C32       1.0  0.2387400000000002  0.41753999999999997  0.62038  1.0000
  C   C33       1.0  0.26084  0.4259  0.58112  1.0000
  C   C34       1.0  0.42208  0.57338  0.48153  1.0000
  C   C35       1.0  0.04196999999999996  0.54897  0.83224  1.0000
  C   C36       1.0  0.5648799999999999  0.4027  0.35431  1.0000
  C   C37       1.0  0.9232100000000002  0.13803  0.86542  1.0000
  C   C38       1.0  0.89978  0.7174  0.8591399999999999  1.0000
  C   C39       1.0  0.00796999999999996  0.16164  0.81217  1.0000
  C   C40       1.0  0.9630300000000002  0.17661000000000004  0.84636  1.0000
  C   C41       1.0  0.04452999999999995  0.19859000000000002  0.79469  1.0000
  C   C42       1.0  0.9915999999999998  0.26708  0.84535  1.0000
  C   C43       1.0  0.46731000000000006  0.15565  0.8698299999999999  1.0000
  C   C44       1.0  0.16936000000000004  0.38105000000000006  0.6721299999999999  1.0000
  C   C45       1.0  0.005519999999999999  0.6093  0.84748  1.0000
  C   C46       1.0  0.40469999999999995  0.31281  0.49569  1.0000
  C   C47       1.0  0.26216  0.44045  0.64303  1.0000
  C   C48       1.0  0.45339999999999997  0.61462  0.52231  1.0000
  C   C49       1.0  0.41977  0.58436  0.55111  1.0000
  C   C50       1.0  0.9411600000000002  0.57858  0.8048099999999999  1.0000
  C   C51       1.0  0.40412000000000003  0.27695  0.52874  1.0000
  C   C52       1.0  0.62773  0.35556  0.33413  1.0000
  C   C53       1.0  0.9550800000000002  0.22970999999999997  0.86248  1.0000
  C   C54       1.0  0.6821700000000003  0.37416  0.31734  1.0000
  C   C55       1.0  0.6132600000000002  0.48428  0.33961999999999987  1.0000
  C   C56       1.0  0.39782  0.1946  0.85882  1.0000
  C   C57       1.0  0.9058  0.63866  0.8199199999999998  1.0000
  C   C58       1.0  0.48438  0.2136  0.4625099999999999  1.0000
  C   C59       1.0  0.33856  0.38106  0.34378  1.0000
  C   C60       1.0  0.44421  0.28184  0.46325999999999995  1.0000
  C   C61       1.0  0.45554  0.60972  0.48717999999999995  1.0000
  C   C62       1.0  0.03704999999999996  0.251  0.8115  1.0000
  C   C63       1.0  0.24009000000000005  0.43346  0.67972  1.0000
  C   C64       1.0  0.15088999999999997  0.53084  0.50138  1.0000
  C   C65       1.0  0.12166000000000005  0.55544  0.47061  1.0000
  C   C66       1.0  0.046510000000000024  0.58709  0.4731699999999999  1.0000
  C   C67       1.0  0.0031999999999999806  0.59279  0.50724  1.0000
  C   C68       1.0  0.03260000000000005  0.56809  0.5380899999999998  1.0000
  C   C69       1.0  0.10642000000000004  0.53666  0.53588  1.0000
  C   C70       1.0  0.7261199999999999  0.86253  0.28745  1.0000
  C   C71       1.0  0.004449999999999985  0.94703  0.82247  1.0000
  C   C72       1.0  0.65003  0.17916999999999997  0.86807  1.0000
  C   C73       1.0  0.052199999999999996  0.89873  0.79906  1.0000
  C   C74       1.0  0.7206200000000001  0.17231000000000002  0.86478  1.0000
  C   C75       1.0  0.74128  0.22179  0.84806  1.0000
  C   C76       1.0  0.59868  0.75988  0.37325  1.0000
  C   C77       1.0  0.04327000000000009  0.84201  0.79798  1.0000
  C   C78       1.0  0.68893  0.2774200000000001  0.8350999999999997  1.0000
  C   C79       1.0  0.9861299999999997  0.8317900000000001  0.82024  1.0000
  C   C80       1.0  0.9458500000000002  0.9373100000000001  0.84504  1.0000
  C   C81       1.0  0.6180400000000001  0.28436999999999996  0.83842  1.0000
  C   C82       1.0  0.58041  0.70085  0.32274  1.0000
  C   C83       1.0  0.5972299999999999  0.23588  0.85474  1.0000
  C   C84       1.0  0.56767  0.9375700000000001  0.82018  1.0000
  C   C85       1.0  0.6212200000000002  0.73593  0.3116299999999999  1.0000
  C   C86       1.0  0.66404  0.92632  0.30269  1.0000
  C   C87       1.0  0.8417300000000005  0.6787899999999999  0.99529  1.0000
  C   C88       1.0  0.8175000000000001  0.70986  0.02784  1.0000
  C   C89       1.0  0.5667  0.15497  0.34135  1.0000
  C   C90       1.0  0.7555300000000003  0.87264  0.24748999999999996  1.0000
  C   C91       1.0  0.5585500000000001  0.72441  0.3840299999999999  1.0000
  C   C92       1.0  0.6194199999999999  0.96594  0.8570699999999999  1.0000
  C   C93       1.0  0.55785  0.04288  0.01036  1.0000
  C   C94       1.0  0.7081700000000001  0.90405  0.19431  1.0000
  C   C95       1.0  0.78482  0.8395300000000001  0.30858  1.0000
  C   C96       1.0  0.78396  0.88777  0.13512999999999997  1.0000
  C   C97       1.0  0.6297799999999999  0.7659  0.33697999999999995  1.0000
  C   C98       1.0  0.6970500000000001  0.81182  0.29167  1.0000
  C   C99       1.0  0.6468499999999999  0.03329  0.31125  1.0000
  C   C100      1.0  0.51848  0.048010000000000004  0.046  1.0000
  C   C101      1.0  0.7228199999999999  0.91762  0.12043  1.0000
  C   C102      1.0  0.7316600000000001  0.9260399999999999  0.08118  1.0000
  C   C103      1.0  0.5228600000000001  0.07328  0.98171  1.0000
  C   C104      1.0  0.57693  0.049380000000000014  0.33221  1.0000
  C   C105      1.0  0.6781500000000003  0.90282  0.8544199999999998  1.0000
  C   C106      1.0  0.07330000000000002  0.63791  0.36551  1.0000
  C   C107      1.0  0.52372  0.21816  0.35851999999999995  1.0000
  C   C108      1.0  0.018480000000000045  0.66126  0.31227  1.0000
  C   C109      1.0  0.01398000000000001  0.67636  0.34642  1.0000
  C   C110      1.0  0.96257  0.69818  0.29473999999999995  1.0000
  C   C111      1.0  0.8959  0.7670000000000001  0.34525  1.0000
  C   C112      1.0  0.5073  0.6558  0.36979  1.0000
  C   C113      1.0  0.77732  0.8811399999999999  0.17195999999999997  1.0000
  C   C114      1.0  0.5377  0.10998  0.34719  1.0000
  C   C115      1.0  0.7868800000000001  0.8128000000000001  0.9958199999999999  1.0000
  C   C116      1.0  0.6538400000000001  0.94056  0.14328  1.0000
  C   C117      1.0  0.4092700000000001  0.11474  0.02251  1.0000
  C   C118      1.0  0.44428  0.08465  0.05128  1.0000
  C   C119      1.0  0.6761100000000002  0.07842  0.30466  1.0000
  C   C120      1.0  0.7903099999999998  0.7768699999999998  0.028849999999999997  1.0000
  C   C121      1.0  0.6827900000000001  0.85564  0.83431  1.0000
  C   C122      1.0  0.9525000000000001  0.72961  0.36244  1.0000
  C   C123      1.0  0.6266300000000002  0.87424  0.81752  1.0000
  C   C124      1.0  0.5628799999999999  0.98445  0.8397  1.0000
  C   C125      1.0  0.54881  0.69478  0.35881  1.0000
  C   C126      1.0  0.6362200000000001  0.1387  0.31959999999999994  1.0000
  C   C127      1.0  0.83925  0.71369  0.96264  1.0000
  C   C128      1.0  0.9367700000000002  0.8809500000000001  0.84381  1.0000
  C   C129      1.0  0.81058  0.78189  0.9634  1.0000
  C   C130      1.0  0.44731  0.10964  0.9873599999999999  1.0000
  C   C131      1.0  0.90067  0.7507700000000002  0.31143999999999994  1.0000
  C   C132      1.0  0.6463699999999999  0.9336100000000002  0.17994999999999994  1.0000
  C   C133      1.0  0.81687  0.03069  0.00138  1.0000
  C   C134      1.0  0.8523400000000002  0.05528000000000003  0.9705499999999999  1.0000
  C   C135      1.0  0.8931799999999999  0.08699  0.9730299999999998  1.0000
  C   C136      1.0  0.89665  0.09272  0.00705  1.0000
  C   C137      1.0  0.86108  0.06797999999999998  0.03797  1.0000
  C   C138      1.0  0.82095  0.03653  0.03584  1.0000
  C   C139      1.0  0.2738799999999999  0.13748000000000005  0.71254  1.0000
  C   C140      1.0  0.9955400000000001  0.05299  0.17752999999999994  1.0000
  C   C141      1.0  0.3499699999999999  0.8208400000000001  0.13192999999999996  1.0000
  C   C142      1.0  0.9478  0.10127999999999998  0.20093  1.0000
  C   C143      1.0  0.27937000000000034  0.8277  0.13521  1.0000
  C   C144      1.0  0.25872  0.77822  0.15193  1.0000
  C   C145      1.0  0.40132000000000007  0.24012999999999998  0.62674  1.0000
  C   C146      1.0  0.95673  0.158  0.20202  1.0000
  C   C147      1.0  0.31105999999999995  0.72259  0.1649  1.0000
  C   C148      1.0  0.013860000000000022  0.16822  0.17975  1.0000
  C   C149      1.0  0.054140000000000056  0.0627  0.15495999999999993  1.0000
  C   C150      1.0  0.38196  0.71564  0.16157  1.0000
  C   C151      1.0  0.41958  0.29917  0.67726  1.0000
  C   C152      1.0  0.40276  0.76413  0.14526  1.0000
  C   C153      1.0  0.43233  0.06244  0.17981  1.0000
  C   C154      1.0  0.37878  0.26408  0.6883699999999999  1.0000
  C   C155      1.0  0.33596  0.07368999999999999  0.69731  1.0000
  C   C156      1.0  0.15827  0.32122  0.00471  1.0000
  C   C157      1.0  0.18249  0.29015  0.97216  1.0000
  C   C158      1.0  0.43329000000000006  0.8450400000000001  0.6586499999999997  1.0000
  C   C159      1.0  0.24446000000000015  0.12737  0.7525099999999998  1.0000
  C   C160      1.0  0.4414400000000001  0.27560000000000007  0.61597  1.0000
  C   C161      1.0  0.38057  0.034069999999999996  0.14292  1.0000
  C   C162      1.0  0.44213999999999987  0.9571300000000001  0.98963  1.0000
  C   C163      1.0  0.29182  0.09596000000000002  0.80568  1.0000
  C   C164      1.0  0.21518000000000015  0.16048  0.6914199999999999  1.0000
  C   C165      1.0  0.21603999999999995  0.11224000000000003  0.86486  1.0000
  C   C166      1.0  0.3702100000000001  0.23411  0.66302  1.0000
  C   C167      1.0  0.3029400000000001  0.18819000000000002  0.70833  1.0000
  C   C168      1.0  0.35313999999999995  0.96672  0.68875  1.0000
  C   C169      1.0  0.48151999999999995  0.9520000000000001  0.9539899999999999  1.0000
  C   C170      1.0  0.27718  0.08239  0.87957  1.0000
  C   C171      1.0  0.26833000000000007  0.07397000000000001  0.91882  1.0000
  C   C172      1.0  0.47712999999999994  0.9267300000000002  0.018289999999999997  1.0000
  C   C173      1.0  0.42306  0.9506300000000001  0.6677799999999999  1.0000
  C   C174      1.0  0.32185  0.09719  0.14557999999999996  1.0000
  C   C175      1.0  0.9267000000000001  0.3621  0.63449  1.0000
  C   C176      1.0  0.47628000000000015  0.7818499999999999  0.6414799999999999  1.0000
  C   C177      1.0  0.9815200000000001  0.33875  0.68772  1.0000
  C   C178      1.0  0.98602  0.32364999999999994  0.65358  1.0000
  C   C179      1.0  0.03743000000000004  0.30183  0.70526  1.0000
  C   C180      1.0  0.1040900000000001  0.23301  0.6547499999999998  1.0000
  C   C181      1.0  0.49268999999999996  0.3442200000000001  0.63021  1.0000
  C   C182      1.0  0.22267999999999996  0.11887000000000003  0.82804  1.0000
  C   C183      1.0  0.46229000000000003  0.89003  0.6528  1.0000
  C   C184      1.0  0.21312000000000003  0.18722  0.004179999999999999  1.0000
  C   C185      1.0  0.34615  0.05944999999999999  0.85672  1.0000
  C   C186      1.0  0.5907300000000001  0.8852699999999999  0.97749  1.0000
  C   C187      1.0  0.5557100000000001  0.91536  0.94871  1.0000
  C   C188      1.0  0.32388  0.92159  0.69534  1.0000
  C   C189      1.0  0.20968000000000006  0.22314000000000003  0.9711499999999998  1.0000
  C   C190      1.0  0.31721  0.14437  0.16568999999999995  1.0000
  C   C191      1.0  0.04749000000000004  0.2704  0.63756  1.0000
  C   C192      1.0  0.37337  0.12577  0.18248  1.0000
  C   C193      1.0  0.43712  0.01556  0.1603  1.0000
  C   C194      1.0  0.45118  0.30523  0.64119  1.0000
  C   C195      1.0  0.36377000000000004  0.86131  0.6804  1.0000
  C   C196      1.0  0.16074000000000002  0.28632  0.03736  1.0000
  C   C197      1.0  0.06321999999999993  0.11906  0.15618  1.0000
  C   C198      1.0  0.18941  0.21812  0.03658999999999999  1.0000
  C   C199      1.0  0.5526800000000001  0.89037  0.01264  1.0000
  C   C200      1.0  0.09932000000000003  0.24924  0.68856  1.0000
  C   C201      1.0  0.35363  0.06639999999999999  0.82005  1.0000
  C   C202      1.0  0.18312999999999996  0.9693200000000001  0.9986099999999999  1.0000
  C   C203      1.0  0.14765000000000006  0.94473  0.029439999999999997  1.0000
  C   C204      1.0  0.10680999999999996  0.91302  0.02697  1.0000
  C   C205      1.0  0.10334000000000007  0.9072899999999999  0.9929399999999999  1.0000
  C   C206      1.0  0.1389200000000001  0.93203  0.9620299999999998  1.0000
  C   C207      1.0  0.17904000000000012  0.9634899999999998  0.96416  1.0000
  C   C208      1.0  0.8758600000000002  0.6376  0.21242  1.0000
  C   C209      1.0  0.7739900000000001  0.5527400000000001  0.6774099999999997  1.0000
  C   C210      1.0  0.69743  0.32061  0.6319499999999999  1.0000
  C   C211      1.0  0.74999  0.60105  0.70078  1.0000
  C   C212      1.0  0.7577899999999999  0.32753  0.63524  1.0000
  C   C213      1.0  0.8112100000000002  0.27814  0.65196  1.0000
  C   C214      1.0  0.7318700000000001  0.74019  0.12674  1.0000
  C   C215      1.0  0.6831799999999999  0.65784  0.70189  1.0000
  C   C216      1.0  0.8016  0.22249  0.66495  1.0000
  C   C217      1.0  0.6380499999999998  0.66814  0.67973  1.0000
  C   C218      1.0  0.72818  0.56251  0.65496  1.0000
  C   C219      1.0  0.7411000000000002  0.21541000000000002  0.6616199999999998  1.0000
  C   C220      1.0  0.60358  0.7994799999999999  0.17722  1.0000
  C   C221      1.0  0.6881500000000003  0.26385000000000003  0.64528  1.0000
  C   C222      1.0  0.3249199999999999  0.56258  0.67993  1.0000
  C   C223      1.0  0.66839  0.7644  0.18833  1.0000
  C   C224      1.0  0.89283  0.57384  0.19721999999999995  1.0000
  C   C225      1.0  0.51586  0.82126  0.50481  1.0000
  C   C226      1.0  0.55517  0.79009  0.47225  1.0000
  C   C227      1.0  0.06273  0.34558  0.15821  1.0000
  C   C228      1.0  0.87541  0.62754  0.25233  1.0000
  C   C229      1.0  0.6670299999999999  0.77565  0.11599  1.0000
  C   C230      1.0  0.4422500000000003  0.53424  0.6430099999999999  1.0000
  C   C231      1.0  0.6110999999999999  0.45715000000000006  0.48978  1.0000
  C   C232      1.0  0.8065499999999999  0.59606  0.30571  1.0000
  C   C233      1.0  0.9328700000000001  0.66047  0.19121  1.0000
  C   C234      1.0  0.80725  0.61233  0.36473  1.0000
  C   C235      1.0  0.73254  0.73428  0.16297999999999999  1.0000
  C   C236      1.0  0.8002499999999999  0.68842  0.20825  1.0000
  C   C237      1.0  0.9910100000000001  0.4667799999999999  0.18867999999999996  1.0000
  C   C238      1.0  0.61251  0.45219000000000004  0.45414999999999994  1.0000
  C   C239      1.0  0.7612600000000002  0.58247  0.37962  1.0000
  C   C240      1.0  0.73915  0.57411  0.4188799999999999  1.0000
  C   C241      1.0  0.57791  0.42662999999999995  0.51847  1.0000
  C   C242      1.0  0.9580200000000001  0.45104  0.16775  1.0000
  C   C243      1.0  0.43512000000000006  0.59731  0.64569  1.0000
  C   C244      1.0  0.07678  0.86198  0.13457  1.0000
  C   C245      1.0  0.10021000000000001  0.28261  0.14086  1.0000
  C   C246      1.0  0.9920199999999999  0.8383700000000001  0.18783  1.0000
  C   C247      1.0  0.03696000000000001  0.8234000000000001  0.15363999999999997  1.0000
  C   C248      1.0  0.95546  0.80143  0.20531  1.0000
  C   C249      1.0  0.008390000000000009  0.73293  0.15464999999999998  1.0000
  C   C250      1.0  0.5326800000000002  0.8443599999999999  0.13017  1.0000
  C   C251      1.0  0.83064  0.61896  0.32786999999999994  1.0000
  C   C252      1.0  0.99447  0.39072000000000007  0.15251  1.0000
  C   C253      1.0  0.5953  0.6872  0.5043  1.0000
  C   C254      1.0  0.73784  0.55957  0.35697  1.0000
  C   C255      1.0  0.5465900000000002  0.3853900000000001  0.47767999999999994  1.0000
  C   C256      1.0  0.5802300000000001  0.41565  0.44889  1.0000
  C   C257      1.0  0.05884000000000001  0.42142999999999997  0.19519  1.0000
  C   C258      1.0  0.59587  0.72306  0.47125999999999996  1.0000
  C   C259      1.0  0.3722600000000001  0.64445  0.66587  1.0000
  C   C260      1.0  0.04490999999999997  0.7703  0.13752  1.0000
  C   C261      1.0  0.31782000000000005  0.62586  0.68265  1.0000
  C   C262      1.0  0.38673999999999986  0.51573  0.66038  1.0000
  C   C263      1.0  0.60218  0.80542  0.14118  1.0000
  C   C264      1.0  0.0942  0.36135  0.18007  1.0000
  C   C265      1.0  0.51561  0.78641  0.53749  1.0000
  C   C266      1.0  0.66144  0.61895  0.65622  1.0000
  C   C267      1.0  0.55579  0.71817  0.53674  1.0000
  C   C268      1.0  0.5444500000000002  0.3902900000000001  0.51282  1.0000
  C   C269      1.0  0.96295  0.74901  0.1885  1.0000
  C   C270      1.0  0.7599100000000001  0.56655  0.32027999999999995  1.0000
  C   C271      1.0  0.8491000000000001  0.46917000000000003  0.49861  1.0000
  C   C272      1.0  0.8783300000000007  0.44457  0.5293899999999999  1.0000
  C   C273      1.0  0.9534799999999999  0.41292  0.52683  1.0000
  C   C274      1.0  0.9968000000000001  0.40721999999999997  0.49276  1.0000
  C   C275      1.0  0.96739  0.43192  0.46191  1.0000
  C   C276      1.0  0.8935800000000002  0.46335  0.4641199999999999  1.0000
  N   N1        1.0  0.17901999999999996  0.54214  0.44187999999999994  1.0000
  N   N2        1.0  0.36142  0.51263  0.4955899999999999  1.0000
  N   N3        1.0  0.23958000000000007  0.51187  0.4542999999999999  1.0000
  N   N4        1.0  0.22436  0.50435  0.48986999999999997  1.0000
  N   N5        1.0  0.3766400000000001  0.52395  0.46026  1.0000
  N   N6        1.0  0.41295000000000004  0.56019  0.451  1.0000
  N   N7        1.0  0.49138000000000015  0.49862000000000006  0.37844  1.0000
  N   N8        1.0  0.4596799999999999  0.45853  0.38824  1.0000
  N   N9        1.0  0.5023700000000001  0.40058999999999995  0.37419999999999987  1.0000
  N   N10       1.0  0.3700100000000001  0.38747000000000004  0.368  1.0000
  N   N11       1.0  0.3254700000000001  0.4441  0.38325  1.0000
  N   N12       1.0  0.26593  0.47508999999999996  0.37021  1.0000
  N   N13       1.0  0.24949999999999997  0.61263  0.38025  1.0000
  N   N14       1.0  0.31015  0.58443  0.39241  1.0000
  N   N15       1.0  0.3431099999999999  0.6234  0.38549  1.0000
  N   N16       1.0  0.37185  0.37827999999999995  0.48706999999999995  1.0000
  N   N17       1.0  0.38995  0.3872499999999999  0.45169  1.0000
  N   N18       1.0  0.4334400000000001  0.33022  0.4366499999999999  1.0000
  N   N19       1.0  0.83709  0.041990000000000006  0.94188  1.0000
  N   N20       1.0  0.6303300000000001  0.012620000000000006  0.9956799999999999  1.0000
  N   N21       1.0  0.7942899999999999  0.011780000000000014  0.9543599999999999  1.0000
  N   N22       1.0  0.7814  0.0042800000000000156  0.9899199999999999  1.0000
  N   N23       1.0  0.6392  0.02383999999999999  0.96036  1.0000
  N   N24       1.0  0.57585  0.05999999999999999  0.95115  1.0000
  N   N25       1.0  0.6313099999999999  0.99875  0.87853  1.0000
  N   N26       1.0  0.69329  0.95859  0.88833  1.0000
  N   N27       1.0  0.7227699999999999  0.90064  0.87431  1.0000
  N   N28       1.0  0.87457  0.88736  0.8681199999999999  1.0000
  N   N29       1.0  0.8471800000000002  0.9439800000000002  0.8833799999999999  1.0000
  N   N30       1.0  0.8888600000000003  0.97492  0.8702699999999999  1.0000
  N   N31       1.0  0.7577800000000003  0.11247999999999998  0.8803  1.0000
  N   N32       1.0  0.7131400000000001  0.08427  0.89247  1.0000
  N   N33       1.0  0.64807  0.12318000000000001  0.88555  1.0000
  N   N34       1.0  0.7628900000000001  0.8782599999999999  0.98717  1.0000
  N   N35       1.0  0.7709899999999998  0.88727  0.95182  1.0000
  N   N36       1.0  0.7994500000000001  0.8302799999999999  0.93681  1.0000
  N   N37       1.0  0.16291000000000008  0.9580200000000001  0.05812  1.0000
  N   N38       1.0  0.36966999999999994  0.98739  0.00432  1.0000
  N   N39       1.0  0.20570999999999995  0.98823  0.04563999999999999  1.0000
  N   N40       1.0  0.2185999999999999  0.9957300000000001  0.01007  1.0000
  N   N41       1.0  0.36078999999999994  0.9761800000000002  0.03963999999999999  1.0000
  N   N42       1.0  0.4241500000000001  0.9400100000000001  0.04884  1.0000
  N   N43       1.0  0.36868999999999996  0.00126  0.12147  1.0000
  N   N44       1.0  0.3067  0.041420000000000005  0.11166999999999999  1.0000
  N   N45       1.0  0.27721999999999997  0.09937  0.12569  1.0000
  N   N46       1.0  0.1254300000000001  0.11265  0.13188  1.0000
  N   N47       1.0  0.15282  0.05603000000000001  0.11661999999999999  1.0000
  N   N48       1.0  0.11113  0.025089999999999998  0.12973  1.0000
  N   N49       1.0  0.24220999999999995  0.88753  0.1197  1.0000
  N   N50       1.0  0.28685999999999995  0.9157400000000001  0.10751999999999999  1.0000
  N   N51       1.0  0.35192999999999997  0.87683  0.11445  1.0000
  N   N52       1.0  0.23710000000000003  0.12175  0.01282  1.0000
  N   N53       1.0  0.229  0.11274000000000002  0.048179999999999994  1.0000
  N   N54       1.0  0.20054  0.16973  0.06319  1.0000
  N   N55       1.0  0.82098  0.45787000000000005  0.55812  1.0000
  N   N56       1.0  0.63858  0.48738000000000004  0.50441  1.0000
  N   N57       1.0  0.7604199999999998  0.48814  0.5457  1.0000
  N   N58       1.0  0.77564  0.49565999999999993  0.51013  1.0000
  N   N59       1.0  0.6233600000000001  0.47606  0.53974  1.0000
  N   N60       1.0  0.58705  0.43982  0.549  1.0000
  N   N61       1.0  0.5086200000000001  0.50139  0.62156  1.0000
  N   N62       1.0  0.5403200000000001  0.54148  0.61176  1.0000
  N   N63       1.0  0.49762000000000006  0.59942  0.62579  1.0000
  N   N64       1.0  0.6299800000000002  0.61254  0.632  1.0000
  N   N65       1.0  0.6745300000000002  0.55591  0.61675  1.0000
  N   N66       1.0  0.73407  0.52492  0.62979  1.0000
  N   N67       1.0  0.7505000000000001  0.38738000000000006  0.61974  1.0000
  N   N68       1.0  0.6898500000000001  0.41559000000000007  0.60759  1.0000
  N   N69       1.0  0.6568799999999999  0.37661000000000006  0.61451  1.0000
  N   N70       1.0  0.62815  0.62173  0.51293  1.0000
  N   N71       1.0  0.6100399999999999  0.61277  0.5482999999999999  1.0000
  N   N72       1.0  0.5665499999999999  0.66979  0.56335  1.0000
  O   O1        1.0  0.9329000000000001  0.08801000000000003  0.85031  1.0000
  O   O2        1.0  0.8798199999999998  0.15395  0.89535  1.0000
  O   O3        1.0  0.24385000000000007  0.40214  0.5604899999999999  1.0000
  O   O4        1.0  0.29775  0.45972  0.56846  1.0000
  O   O5        1.0  0.46646  0.14602  0.9037499999999999  1.0000
  O   O6        1.0  0.5259700000000002  0.13177  0.84687  1.0000
  O   O7        1.0  0.927  0.7292200000000001  0.88036  1.0000
  O   O8        1.0  0.8381399999999998  0.7604199999999999  0.85207  1.0000
  O   O9        1.0  0.03833999999999999  0.47447000000000006  0.79624  1.0000
  O   O10       1.0  0.17480000000000007  0.39951  0.73087  1.0000
  O   O11       1.0  0.2011099999999999  0.3028700000000001  0.8288  1.0000
  O   O12       1.0  0.07673999999999995  0.28371  0.79275  1.0000
  O   O13       1.0  0.12938000000000005  0.58814  0.35037  1.0000
  O   O14       1.0  0.07012000000000003  0.6539799999999999  0.39546  1.0000
  O   O15       1.0  0.7933399999999999  0.9025200000000001  0.060529999999999994  1.0000
  O   O16       1.0  0.67354  0.95959  0.06858  1.0000
  O   O17       1.0  0.4836500000000001  0.64604  0.40368  1.0000
  O   O18       1.0  0.49564999999999987  0.63188  0.34685  1.0000
  O   O19       1.0  0.46214000000000005  0.2311  0.37885  1.0000
  O   O20       1.0  0.5504799999999999  0.26027  0.35225  1.0000
  O   O21       1.0  0.69131  0.9744400000000001  0.29621  1.0000
  O   O22       1.0  0.69489  0.89955  0.23088  1.0000
  O   O23       1.0  0.66709  0.80309  0.32873  1.0000
  O   O24       1.0  0.8470799999999998  0.7833900000000001  0.29269  1.0000
  O   O25       1.0  0.87061  0.41187  0.6496299999999999  1.0000
  O   O26       1.0  0.92987  0.34604  0.60454  1.0000
  O   O27       1.0  0.20666000000000004  0.09748999999999998  0.93946  1.0000
  O   O28       1.0  0.3264599999999999  0.04041999999999999  0.93142  1.0000
  O   O29       1.0  0.5163500000000001  0.35396999999999995  0.59632  1.0000
  O   O30       1.0  0.50434  0.3681300000000001  0.6531499999999999  1.0000
  O   O31       1.0  0.5378499999999998  0.76891  0.62115  1.0000
  O   O32       1.0  0.44952000000000003  0.73974  0.6477399999999999  1.0000
  O   O33       1.0  0.30869  0.025570000000000006  0.70379  1.0000
  O   O34       1.0  0.3051  0.10046000000000001  0.76911  1.0000
  O   O35       1.0  0.33291000000000004  0.19692000000000004  0.67127  1.0000
  O   O36       1.0  0.15292000000000006  0.21661999999999995  0.70731  1.0000
  O   O37       1.0  0.0670899999999999  0.9120000000000001  0.14969  1.0000
  O   O38       1.0  0.12016999999999997  0.84607  0.10464  1.0000
  O   O39       1.0  0.75615  0.59787  0.43950999999999996  1.0000
  O   O40       1.0  0.7022399999999999  0.54029  0.43153  1.0000
  O   O41       1.0  0.5335300000000001  0.85399  0.09625  1.0000
  O   O42       1.0  0.47402  0.86825  0.15313  1.0000
  O   O43       1.0  0.073  0.27079  0.11964  1.0000
  O   O44       1.0  0.16186  0.23959  0.14793  1.0000
  O   O45       1.0  0.96166  0.52554  0.20375  1.0000
  O   O46       1.0  0.8251899999999999  0.6005  0.26913  1.0000
  O   O47       1.0  0.7988900000000001  0.69714  0.17119999999999996  1.0000
  O   O48       1.0  0.92326  0.7163  0.20724999999999993  1.0000
