data_image0
_chemical_formula_structural       Cu96H192C576O384
_chemical_formula_sum              "Cu96 H192 C576 O384"
_cell_length_a       37.49521
_cell_length_b       37.496860000000005
_cell_length_c       37.4968
_cell_angle_alpha    59.96161
_cell_angle_beta     59.965320000000006
_cell_angle_gamma    59.96537

_space_group_name_H-M_alt    "P 1"
_space_group_IT_number       1

loop_
  _space_group_symop_operation_xyz
  'x, y, z'

loop_
  _atom_site_type_symbol
  _atom_site_label
  _atom_site_symmetry_multiplicity
  _atom_site_fract_x
  _atom_site_fract_y
  _atom_site_fract_z
  _atom_site_occupancy
  Cu  Cu1       1.0  0.7175899999999998  0.78296  0.99942  1.0000
  Cu  Cu2       1.0  0.5000300000000001  0.9994099999999999  0.78295  1.0000
  Cu  Cu3       1.0  0.9994500000000003  0.50005  0.71758  1.0000
  Cu  Cu4       1.0  0.7829599999999997  0.71758  0.50004  1.0000
  Cu  Cu5       1.0  0.7829599999999999  0.99943  0.71758  1.0000
  Cu  Cu6       1.0  0.99942  0.78295  0.50001  1.0000
  Cu  Cu7       1.0  0.5000499999999997  0.71758  0.99945  1.0000
  Cu  Cu8       1.0  0.71759  0.50003  0.78296  1.0000
  Cu  Cu9       1.0  0.9994299999999999  0.71758  0.78296  1.0000
  Cu  Cu10      1.0  0.7829599999999999  0.5000200000000001  0.99941  1.0000
  Cu  Cu11      1.0  0.71759  0.99944  0.50005  1.0000
  Cu  Cu12      1.0  0.5000400000000002  0.7829599999999999  0.71758  1.0000
  Cu  Cu13      1.0  0.99998  0.71705  0.50059  1.0000
  Cu  Cu14      1.0  0.7824199999999999  0.50058  0.71704  1.0000
  Cu  Cu15      1.0  0.71705  0.9999600000000001  0.78242  1.0000
  Cu  Cu16      1.0  0.5005599999999999  0.78242  0.99995  1.0000
  Cu  Cu17      1.0  0.99996  0.50055  0.78242  1.0000
  Cu  Cu18      1.0  0.7824199999999999  0.71704  0.99997  1.0000
  Cu  Cu19      1.0  0.7170499999999997  0.78242  0.50057  1.0000
  Cu  Cu20      1.0  0.5005899999999999  0.9999899999999999  0.71705  1.0000
  Cu  Cu21      1.0  0.9999699999999999  0.78242  0.71704  1.0000
  Cu  Cu22      1.0  0.7824200000000001  0.99995  0.50055  1.0000
  Cu  Cu23      1.0  0.71705  0.50059  0.99998  1.0000
  Cu  Cu24      1.0  0.5005799999999999  0.71704  0.78242  1.0000
  Cu  Cu25      1.0  0.2824199999999999  0.21704  0.00058  1.0000
  Cu  Cu26      1.0  0.49998  0.0005900000000000035  0.21705  1.0000
  Cu  Cu27      1.0  0.0005599999999999765  0.49995000000000006  0.28242  1.0000
  Cu  Cu28      1.0  0.21705  0.28242  0.49996  1.0000
  Cu  Cu29      1.0  0.21705  0.0005700000000000027  0.28242  1.0000
  Cu  Cu30      1.0  0.0005900000000000159  0.21705  0.49999  1.0000
  Cu  Cu31      1.0  0.49995  0.28241  0.00055  1.0000
  Cu  Cu32      1.0  0.28242  0.49997  0.21704000000000004  1.0000
  Cu  Cu33      1.0  0.0005699999999999897  0.28242  0.21704000000000004  1.0000
  Cu  Cu34      1.0  0.21705000000000005  0.4999799999999999  0.00059  1.0000
  Cu  Cu35      1.0  0.28241999999999984  0.0005600000000000228  0.49995  1.0000
  Cu  Cu36      1.0  0.49997  0.21704000000000004  0.28242  1.0000
  Cu  Cu37      1.0  2.0000000000002546e-05  0.2829499999999999  0.49941000000000013  1.0000
  Cu  Cu38      1.0  0.21758999999999995  0.49942  0.28296  1.0000
  Cu  Cu39      1.0  0.28295000000000003  3.999999999998795e-05  0.21758  1.0000
  Cu  Cu40      1.0  0.49944  0.21758000000000002  5e-05  1.0000
  Cu  Cu41      1.0  5.000000000004189e-05  0.49944999999999995  0.21758  1.0000
  Cu  Cu42      1.0  0.21758  0.28296  3e-05  1.0000
  Cu  Cu43      1.0  0.2829599999999998  0.21758000000000002  0.49943  1.0000
  Cu  Cu44      1.0  0.4994199999999999  9.999999999993567e-06  0.28295  1.0000
  Cu  Cu45      1.0  2.9999999999944598e-05  0.21758000000000002  0.28296  1.0000
  Cu  Cu46      1.0  0.21759  4.999999999998152e-05  0.49945  1.0000
  Cu  Cu47      1.0  0.28295000000000003  0.49941  2e-05  1.0000
  Cu  Cu48      1.0  0.49942999999999993  0.28296  0.21758  1.0000
  Cu  Cu49      1.0  0.71746  0.50406  0.2825500000000001  1.0000
  Cu  Cu50      1.0  0.78283  0.50513  0.21717  1.0000
  Cu  Cu51      1.0  0.49592  0.28254000000000007  0.50405  1.0000
  Cu  Cu52      1.0  0.49489  0.21718  0.50515  1.0000
  Cu  Cu53      1.0  0.28255000000000013  0.49593999999999994  0.71745  1.0000
  Cu  Cu54      1.0  0.21718000000000004  0.49487  0.78283  1.0000
  Cu  Cu55      1.0  0.5040899999999999  0.71746  0.49595  1.0000
  Cu  Cu56      1.0  0.50512  0.78282  0.49485  1.0000
  Cu  Cu57      1.0  0.5040700000000001  0.28254999999999997  0.71745  1.0000
  Cu  Cu58      1.0  0.5051299999999995  0.21717000000000003  0.78283  1.0000
  Cu  Cu59      1.0  0.28253999999999996  0.50406  0.49591000000000013  1.0000
  Cu  Cu60      1.0  0.21718000000000004  0.50514  0.49488  1.0000
  Cu  Cu61      1.0  0.4959399999999997  0.71745  0.2825500000000001  1.0000
  Cu  Cu62      1.0  0.4948699999999999  0.78283  0.21717  1.0000
  Cu  Cu63      1.0  0.71746  0.49594000000000005  0.50409  1.0000
  Cu  Cu64      1.0  0.7828200000000001  0.4948600000000001  0.50512  1.0000
  Cu  Cu65      1.0  0.2825499999999999  0.71745  0.50407  1.0000
  Cu  Cu66      1.0  0.2171800000000001  0.78283  0.50512  1.0000
  Cu  Cu67      1.0  0.5040600000000001  0.49590999999999996  0.28254  1.0000
  Cu  Cu68      1.0  0.5051399999999999  0.49489000000000005  0.21718000000000004  1.0000
  Cu  Cu69      1.0  0.7174599999999999  0.28255  0.49593  1.0000
  Cu  Cu70      1.0  0.7828299999999998  0.21717  0.49488  1.0000
  Cu  Cu71      1.0  0.49595  0.50409  0.71746  1.0000
  Cu  Cu72      1.0  0.49486  0.50511  0.78282  1.0000
  Cu  Cu73      1.0  0.00408999999999994  0.99595  0.21746000000000004  1.0000
  Cu  Cu74      1.0  0.005119999999999988  0.9948499999999999  0.28282  1.0000
  Cu  Cu75      1.0  0.7825500000000001  0.21745000000000003  0.99594  1.0000
  Cu  Cu76      1.0  0.7171799999999995  0.28283  0.99487  1.0000
  Cu  Cu77      1.0  0.9959199999999999  0.004050000000000008  0.78254  1.0000
  Cu  Cu78      1.0  0.9948799999999997  0.005149999999999984  0.71718  1.0000
  Cu  Cu79      1.0  0.21745999999999993  0.78255  0.00406  1.0000
  Cu  Cu80      1.0  0.28283  0.71717  0.00513  1.0000
  Cu  Cu81      1.0  0.004069999999999962  0.21745000000000003  0.78255  1.0000
  Cu  Cu82      1.0  0.005130000000000025  0.28282999999999997  0.71717  1.0000
  Cu  Cu83      1.0  0.7825399999999999  0.9959099999999999  0.00406  1.0000
  Cu  Cu84      1.0  0.71718  0.99488  0.00514  1.0000
  Cu  Cu85      1.0  0.99593  0.78255  0.21745  1.0000
  Cu  Cu86      1.0  0.9948699999999998  0.71717  0.28283  1.0000
  Cu  Cu87      1.0  0.21746000000000004  0.004089999999999982  0.99594  1.0000
  Cu  Cu88      1.0  0.28281999999999985  0.00511999999999999  0.99486  1.0000
  Cu  Cu89      1.0  0.004060000000000067  0.7825399999999999  0.99591  1.0000
  Cu  Cu90      1.0  0.005150000000000051  0.71718  0.99489  1.0000
  Cu  Cu91      1.0  0.7825399999999999  0.004069999999999995  0.21745  1.0000
  Cu  Cu92      1.0  0.7171799999999997  0.00513000000000001  0.28283  1.0000
  Cu  Cu93      1.0  0.99594  0.21746  0.00409  1.0000
  Cu  Cu94      1.0  0.9948599999999999  0.28282  0.00511  1.0000
  Cu  Cu95      1.0  0.2174599999999999  0.9959300000000002  0.78255  1.0000
  Cu  Cu96      1.0  0.28283000000000014  0.99487  0.71717  1.0000
  H   H1        1.0  0.74568  0.63716  0.13402  1.0000
  H   H2        1.0  0.6292599999999998  0.75061  0.13168  1.0000
  H   H3        1.0  0.6297999999999998  0.637  0.24812000000000006  1.0000
  H   H4        1.0  0.7488799999999998  0.63503  0.98327  1.0000
  H   H5        1.0  0.48313  0.13406  0.6372  1.0000
  H   H6        1.0  0.48845999999999984  0.13167  0.75058  1.0000
  H   H7        1.0  0.4850800000000002  0.24809999999999993  0.63699  1.0000
  H   H8        1.0  0.6328399999999998  0.9832699999999999  0.63508  1.0000
  H   H9        1.0  0.13402000000000008  0.48313  0.74566  1.0000
  H   H10       1.0  0.13172000000000003  0.48845000000000005  0.6293  1.0000
  H   H11       1.0  0.24808999999999992  0.48508  0.62979  1.0000
  H   H12       1.0  0.9832699999999998  0.63278  0.74887  1.0000
  H   H13       1.0  0.6371599999999996  0.74566  0.48313  1.0000
  H   H14       1.0  0.7505799999999999  0.62925  0.48845  1.0000
  H   H15       1.0  0.63705  0.62984  0.48508  1.0000
  H   H16       1.0  0.63505  0.7489  0.63279  1.0000
  H   H17       1.0  0.63717  0.13402  0.74569  1.0000
  H   H18       1.0  0.7506  0.13169000000000003  0.62926  1.0000
  H   H19       1.0  0.63702  0.24812  0.62979  1.0000
  H   H20       1.0  0.63504  0.9832700000000001  0.74887  1.0000
  H   H21       1.0  0.13405999999999998  0.6372  0.48313  1.0000
  H   H22       1.0  0.1316799999999999  0.7505800000000001  0.48845  1.0000
  H   H23       1.0  0.24808999999999992  0.637  0.48508  1.0000
  H   H24       1.0  0.9832699999999998  0.63508  0.63284  1.0000
  H   H25       1.0  0.4831299999999999  0.74567  0.13401  1.0000
  H   H26       1.0  0.48844999999999994  0.6293  0.13172  1.0000
  H   H27       1.0  0.48507999999999973  0.62978  0.24809  1.0000
  H   H28       1.0  0.6327899999999999  0.7488700000000004  0.98327  1.0000
  H   H29       1.0  0.7456699999999999  0.48312999999999995  0.63715  1.0000
  H   H30       1.0  0.62925  0.48845000000000005  0.75058  1.0000
  H   H31       1.0  0.62984  0.48508  0.63705  1.0000
  H   H32       1.0  0.74889  0.6328  0.63504  1.0000
  H   H33       1.0  0.13403000000000007  0.7456899999999999  0.63716  1.0000
  H   H34       1.0  0.13168999999999997  0.62925  0.75061  1.0000
  H   H35       1.0  0.24811000000000005  0.6297999999999999  0.6370100000000002  1.0000
  H   H36       1.0  0.9832699999999998  0.7488700000000003  0.63502  1.0000
  H   H37       1.0  0.6371999999999999  0.48313  0.13406  1.0000
  H   H38       1.0  0.7505799999999999  0.48845  0.13168  1.0000
  H   H39       1.0  0.6369999999999998  0.48508  0.24809  1.0000
  H   H40       1.0  0.63508  0.63284  0.98327  1.0000
  H   H41       1.0  0.7456699999999998  0.13401  0.48313  1.0000
  H   H42       1.0  0.6293  0.13172000000000003  0.48845  1.0000
  H   H43       1.0  0.62979  0.24809  0.48508  1.0000
  H   H44       1.0  0.7488799999999999  0.98327  0.63279  1.0000
  H   H45       1.0  0.4831299999999999  0.6371399999999999  0.74567  1.0000
  H   H46       1.0  0.48846000000000006  0.75058  0.62924  1.0000
  H   H47       1.0  0.48508  0.6370500000000001  0.62984  1.0000
  H   H48       1.0  0.6328  0.63504  0.7489  1.0000
  H   H49       1.0  0.01686999999999998  0.8628  0.36594  1.0000
  H   H50       1.0  0.011549999999999967  0.74941  0.36833  1.0000
  H   H51       1.0  0.01493000000000004  0.863  0.2519  1.0000
  H   H52       1.0  0.8671700000000002  0.86492  0.51673  1.0000
  H   H53       1.0  0.7543199999999998  0.36598  0.8628400000000002  1.0000
  H   H54       1.0  0.8707399999999997  0.3683199999999999  0.7493900000000001  1.0000
  H   H55       1.0  0.8702  0.25189000000000006  0.863  1.0000
  H   H56       1.0  0.7511299999999999  0.51673  0.86497  1.0000
  H   H57       1.0  0.86285  0.016869999999999996  0.75434  1.0000
  H   H58       1.0  0.7494199999999999  0.011549999999999972  0.87075  1.0000
  H   H59       1.0  0.8629599999999998  0.014919999999999978  0.87016  1.0000
  H   H60       1.0  0.8649599999999998  0.8672100000000001  0.7511  1.0000
  H   H61       1.0  0.36599  0.75434  0.01687  1.0000
  H   H62       1.0  0.36827999999999994  0.8707  0.01155  1.0000
  H   H63       1.0  0.25190999999999986  0.8702100000000003  0.01492  1.0000
  H   H64       1.0  0.5167399999999996  0.7511199999999999  0.8672200000000002  1.0000
  H   H65       1.0  0.016869999999999954  0.3660000000000001  0.75433  1.0000
  H   H66       1.0  0.011560000000000027  0.36827999999999994  0.8707  1.0000
  H   H67       1.0  0.01491999999999998  0.2519100000000001  0.87022  1.0000
  H   H68       1.0  0.8672199999999999  0.51673  0.75113  1.0000
  H   H69       1.0  0.75434  0.86285  0.01687  1.0000
  H   H70       1.0  0.87075  0.74942  0.01155  1.0000
  H   H71       1.0  0.8701700000000001  0.86295  0.01492  1.0000
  H   H72       1.0  0.7511200000000001  0.8649500000000001  0.8672  1.0000
  H   H73       1.0  0.8628399999999999  0.7543100000000003  0.36598  1.0000
  H   H74       1.0  0.74941  0.8707400000000001  0.36831  1.0000
  H   H75       1.0  0.8629899999999999  0.8702100000000003  0.25188  1.0000
  H   H76       1.0  0.8649699999999999  0.75113  0.51673  1.0000
  H   H77       1.0  0.36594  0.016869999999999996  0.8628  1.0000
  H   H78       1.0  0.36832999999999994  0.011549999999999972  0.74942  1.0000
  H   H79       1.0  0.25191  0.014919999999999978  0.863  1.0000
  H   H80       1.0  0.5167400000000002  0.8671599999999999  0.86492  1.0000
  H   H81       1.0  0.016880000000000017  0.75433  0.86285  1.0000
  H   H82       1.0  0.011550000000000013  0.8707599999999999  0.74942  1.0000
  H   H83       1.0  0.01493000000000004  0.87016  0.86295  1.0000
  H   H84       1.0  0.86721  0.7511000000000001  0.86496  1.0000
  H   H85       1.0  0.75434  0.016869999999999954  0.3659900000000001  1.0000
  H   H86       1.0  0.8707099999999999  0.011549999999999998  0.36828  1.0000
  H   H87       1.0  0.87021  0.014920000000000006  0.25191  1.0000
  H   H88       1.0  0.7511300000000002  0.8672099999999999  0.51673  1.0000
  H   H89       1.0  0.8628  0.36594  0.01687  1.0000
  H   H90       1.0  0.7494199999999999  0.36832  0.01155  1.0000
  H   H91       1.0  0.863  0.25191  0.01492  1.0000
  H   H92       1.0  0.86493  0.51673  0.86716  1.0000
  H   H93       1.0  0.3659799999999999  0.86284  0.75431  1.0000
  H   H94       1.0  0.36832000000000015  0.7493899999999999  0.87075  1.0000
  H   H95       1.0  0.25189999999999996  0.8629900000000001  0.8702  1.0000
  H   H96       1.0  0.51674  0.86497  0.75113  1.0000
  H   H97       1.0  0.2543199999999999  0.36284  0.86598  1.0000
  H   H98       1.0  0.37074000000000007  0.24939000000000003  0.86832  1.0000
  H   H99       1.0  0.3702  0.363  0.75188  1.0000
  H   H100      1.0  0.25113  0.36497  0.01673  1.0000
  H   H101      1.0  0.5168699999999999  0.8659400000000002  0.3628  1.0000
  H   H102      1.0  0.5115499999999998  0.86833  0.24941  1.0000
  H   H103      1.0  0.51493  0.7519000000000002  0.36301  1.0000
  H   H104      1.0  0.36716999999999994  0.01672999999999999  0.36492  1.0000
  H   H105      1.0  0.8659899999999999  0.51687  0.25434  1.0000
  H   H106      1.0  0.86828  0.51155  0.3707  1.0000
  H   H107      1.0  0.75191  0.51492  0.37021  1.0000
  H   H108      1.0  0.01673000000000001  0.36721999999999994  0.25112  1.0000
  H   H109      1.0  0.36284999999999995  0.25434000000000007  0.51687  1.0000
  H   H110      1.0  0.24941999999999998  0.3707500000000001  0.51155  1.0000
  H   H111      1.0  0.36295999999999984  0.37015999999999993  0.51492  1.0000
  H   H112      1.0  0.36496  0.2511  0.36721  1.0000
  H   H113      1.0  0.3628399999999999  0.86598  0.25431  1.0000
  H   H114      1.0  0.24940999999999994  0.86831  0.37074  1.0000
  H   H115      1.0  0.36299  0.75188  0.37021  1.0000
  H   H116      1.0  0.36497  0.016730000000000005  0.25113  1.0000
  H   H117      1.0  0.8659399999999999  0.36279999999999996  0.51687  1.0000
  H   H118      1.0  0.8683299999999999  0.24942000000000003  0.51155  1.0000
  H   H119      1.0  0.7519099999999999  0.363  0.51492  1.0000
  H   H120      1.0  0.016740000000000022  0.36491999999999997  0.36716000000000004  1.0000
  H   H121      1.0  0.51687  0.25432999999999995  0.86599  1.0000
  H   H122      1.0  0.5115499999999998  0.37070000000000003  0.86827  1.0000
  H   H123      1.0  0.51492  0.3702199999999999  0.7519100000000002  1.0000
  H   H124      1.0  0.36721000000000004  0.25113  0.01673  1.0000
  H   H125      1.0  0.25434000000000007  0.51687  0.36285  1.0000
  H   H126      1.0  0.37074999999999997  0.51155  0.24942  1.0000
  H   H127      1.0  0.37017000000000005  0.51492  0.36295  1.0000
  H   H128      1.0  0.25112  0.3672  0.36495  1.0000
  H   H129      1.0  0.8659799999999999  0.25431  0.36284  1.0000
  H   H130      1.0  0.8683199999999999  0.37075  0.24939  1.0000
  H   H131      1.0  0.7519  0.3702  0.36299  1.0000
  H   H132      1.0  0.016729999999999984  0.25113  0.36497  1.0000
  H   H133      1.0  0.3628100000000001  0.51687  0.86594  1.0000
  H   H134      1.0  0.24942000000000003  0.51155  0.86832  1.0000
  H   H135      1.0  0.363  0.5149199999999999  0.7519100000000002  1.0000
  H   H136      1.0  0.36491999999999986  0.36716  0.01673  1.0000
  H   H137      1.0  0.25434000000000007  0.8659899999999999  0.51687  1.0000
  H   H138      1.0  0.3707100000000001  0.86828  0.51155  1.0000
  H   H139      1.0  0.37021999999999994  0.75191  0.51492  1.0000
  H   H140      1.0  0.25113  0.01672999999999999  0.36721  1.0000
  H   H141      1.0  0.51687  0.36285  0.25433  1.0000
  H   H142      1.0  0.5115499999999998  0.24942000000000003  0.37076  1.0000
  H   H143      1.0  0.51492  0.36295000000000016  0.37016  1.0000
  H   H144      1.0  0.3672  0.36496  0.2511  1.0000
  H   H145      1.0  0.9831299999999998  0.13720000000000002  0.63406  1.0000
  H   H146      1.0  0.98846  0.25059  0.63167  1.0000
  H   H147      1.0  0.9850799999999996  0.13700000000000004  0.74809  1.0000
  H   H148      1.0  0.13283000000000006  0.13507999999999998  0.48327000000000003  1.0000
  H   H149      1.0  0.24569000000000005  0.63402  0.13716  1.0000
  H   H150      1.0  0.12926000000000004  0.63168  0.25061  1.0000
  H   H151      1.0  0.12980000000000003  0.74811  0.137  1.0000
  H   H152      1.0  0.24887000000000004  0.48327  0.13503  1.0000
  H   H153      1.0  0.13716000000000006  0.9831299999999998  0.24566  1.0000
  H   H154      1.0  0.25058  0.98845  0.12925  1.0000
  H   H155      1.0  0.13705  0.98508  0.12984  1.0000
  H   H156      1.0  0.13504999999999992  0.13278999999999996  0.2489  1.0000
  H   H157      1.0  0.6340199999999997  0.24566000000000004  0.98313  1.0000
  H   H158      1.0  0.6317200000000001  0.12929999999999997  0.98845  1.0000
  H   H159      1.0  0.74809  0.12979000000000002  0.98508  1.0000
  H   H160      1.0  0.4832699999999999  0.24886999999999998  0.13278000000000006  1.0000
  H   H161      1.0  0.9831299999999997  0.634  0.24567000000000005  1.0000
  H   H162      1.0  0.9884499999999999  0.63172  0.1293  1.0000
  H   H163      1.0  0.98508  0.74809  0.12978  1.0000
  H   H164      1.0  0.13278999999999996  0.48327000000000003  0.24887  1.0000
  H   H165      1.0  0.24566999999999983  0.13715  0.98313  1.0000
  H   H166      1.0  0.1292500000000001  0.25057999999999997  0.98845  1.0000
  H   H167      1.0  0.12983999999999998  0.13705000000000003  0.98508  1.0000
  H   H168      1.0  0.24888999999999983  0.13505  0.1328  1.0000
  H   H169      1.0  0.13717  0.24569  0.63402  1.0000
  H   H170      1.0  0.25059999999999993  0.12925999999999996  0.6316900000000002  1.0000
  H   H171      1.0  0.13701999999999998  0.12979000000000002  0.74812  1.0000
  H   H172      1.0  0.13503999999999997  0.24886999999999998  0.48327000000000003  1.0000
  H   H173      1.0  0.63406  0.9831299999999998  0.1372  1.0000
  H   H174      1.0  0.63168  0.98845  0.25058  1.0000
  H   H175      1.0  0.7480999999999999  0.9850800000000001  0.137  1.0000
  H   H176      1.0  0.4832699999999999  0.13284  0.13508  1.0000
  H   H177      1.0  0.9831299999999998  0.24567  0.13714  1.0000
  H   H178      1.0  0.9884499999999999  0.12924  0.25058  1.0000
  H   H179      1.0  0.9850800000000002  0.12983999999999998  0.13705000000000006  1.0000
  H   H180      1.0  0.1328  0.24890000000000004  0.13504  1.0000
  H   H181      1.0  0.24567  0.9831300000000001  0.63401  1.0000
  H   H182      1.0  0.12929999999999994  0.98845  0.63172  1.0000
  H   H183      1.0  0.12980000000000008  0.9850799999999998  0.74809  1.0000
  H   H184      1.0  0.24887  0.13279  0.48327000000000003  1.0000
  H   H185      1.0  0.13719999999999988  0.63406  0.98313  1.0000
  H   H186      1.0  0.2505900000000001  0.63168  0.98845  1.0000
  H   H187      1.0  0.13700999999999994  0.74809  0.98508  1.0000
  H   H188      1.0  0.13508  0.4832699999999999  0.13283  1.0000
  H   H189      1.0  0.63403  0.13715999999999998  0.24569  1.0000
  H   H190      1.0  0.63169  0.25061  0.12925  1.0000
  H   H191      1.0  0.7481099999999997  0.13701  0.1298  1.0000
  H   H192      1.0  0.48326999999999987  0.13503  0.24887  1.0000
  C   C1        1.0  0.71325  0.5861  0.21634000000000003  1.0000
  C   C2        1.0  0.69051  0.63255  0.19384  1.0000
  C   C3        1.0  0.7121  0.65391  0.15059  1.0000
  C   C4        1.0  0.6901699999999998  0.69649  0.12829  1.0000
  C   C5        1.0  0.6465400000000001  0.7178  0.14919  1.0000
  C   C6        1.0  0.6248399999999998  0.69624  0.19235  1.0000
  C   C7        1.0  0.6468800000000001  0.65376  0.21477  1.0000
  C   C8        1.0  0.7127000000000001  0.71784  0.08131  1.0000
  C   C9        1.0  0.5774  0.7174  0.21378  1.0000
  C   C10       1.0  0.7145999999999998  0.71661  0.98663  1.0000
  C   C11       1.0  0.6934199999999999  0.69461  0.98261  1.0000
  C   C12       1.0  0.7156799999999999  0.6515200000000002  0.9824500000000002  1.0000
  C   C13       1.0  0.48432  0.21635  0.58611  1.0000
  C   C14       1.0  0.48310000000000003  0.19385  0.63256  1.0000
  C   C15       1.0  0.48340999999999995  0.15061000000000002  0.65393  1.0000
  C   C16       1.0  0.48507  0.12829999999999997  0.6965  1.0000
  C   C17       1.0  0.48647999999999986  0.14918999999999996  0.71779  1.0000
  C   C18       1.0  0.48656999999999967  0.19235  0.69624  1.0000
  C   C19       1.0  0.4845899999999997  0.21476000000000003  0.65376  1.0000
  C   C20       1.0  0.48815  0.08132999999999999  0.71785  1.0000
  C   C21       1.0  0.49143999999999993  0.21377  0.71738  1.0000
  C   C22       1.0  0.5821699999999996  0.9866200000000002  0.7166300000000001  1.0000
  C   C23       1.0  0.6293699999999998  0.9825999999999999  0.69463  1.0000
  C   C24       1.0  0.65037  0.9824399999999999  0.65154  1.0000
  C   C25       1.0  0.21633  0.48432000000000003  0.71323  1.0000
  C   C26       1.0  0.19383999999999998  0.4831  0.69051  1.0000
  C   C27       1.0  0.15059000000000003  0.48341  0.71209  1.0000
  C   C28       1.0  0.1283  0.48506000000000005  0.69018  1.0000
  C   C29       1.0  0.14921999999999988  0.48647999999999997  0.64656  1.0000
  C   C30       1.0  0.19236999999999985  0.48657000000000006  0.62485  1.0000
  C   C31       1.0  0.21476  0.48459  0.64688  1.0000
  C   C32       1.0  0.08133999999999991  0.4881499999999999  0.7127  1.0000
  C   C33       1.0  0.21379000000000004  0.49143000000000003  0.57741  1.0000
  C   C34       1.0  0.98663  0.5821600000000001  0.71461  1.0000
  C   C35       1.0  0.9826099999999999  0.62936  0.6934400000000001  1.0000
  C   C36       1.0  0.98245  0.65035  0.71568  1.0000
  C   C37       1.0  0.5861199999999998  0.71325  0.48432  1.0000
  C   C38       1.0  0.63257  0.69052  0.4831  1.0000
  C   C39       1.0  0.65391  0.71209  0.48341  1.0000
  C   C40       1.0  0.69648  0.69016  0.48506  1.0000
  C   C41       1.0  0.71779  0.64654  0.48648  1.0000
  C   C42       1.0  0.69626  0.62485  0.48657  1.0000
  C   C43       1.0  0.65378  0.6469  0.48459  1.0000
  C   C44       1.0  0.7178300000000001  0.71268  0.48816  1.0000
  C   C45       1.0  0.7174099999999999  0.5774100000000001  0.49143  1.0000
  C   C46       1.0  0.7166300000000001  0.71461  0.58214  1.0000
  C   C47       1.0  0.6946199999999997  0.69343  0.62935  1.0000
  C   C48       1.0  0.6515199999999999  0.71569  0.65035  1.0000
  C   C49       1.0  0.5861  0.21632999999999997  0.71325  1.0000
  C   C50       1.0  0.63255  0.19384  0.69051  1.0000
  C   C51       1.0  0.65391  0.15057999999999994  0.7121000000000002  1.0000
  C   C52       1.0  0.6964899999999997  0.12829  0.69017  1.0000
  C   C53       1.0  0.71779  0.14919000000000002  0.64654  1.0000
  C   C54       1.0  0.6962400000000001  0.19236  0.62484  1.0000
  C   C55       1.0  0.65376  0.21478000000000003  0.64688  1.0000
  C   C56       1.0  0.71784  0.08130999999999997  0.7127  1.0000
  C   C57       1.0  0.7173999999999996  0.21378  0.57739  1.0000
  C   C58       1.0  0.71661  0.9866299999999999  0.71459  1.0000
  C   C59       1.0  0.69462  0.9826099999999999  0.69342  1.0000
  C   C60       1.0  0.65153  0.98245  0.71567  1.0000
  C   C61       1.0  0.21634999999999993  0.58612  0.48431  1.0000
  C   C62       1.0  0.19385000000000002  0.63256  0.4831  1.0000
  C   C63       1.0  0.15060999999999983  0.6539300000000002  0.48341  1.0000
  C   C64       1.0  0.12829999999999997  0.69649  0.48506  1.0000
  C   C65       1.0  0.14919999999999994  0.71778  0.48648  1.0000
  C   C66       1.0  0.19234999999999985  0.69624  0.48657  1.0000
  C   C67       1.0  0.21475999999999995  0.65376  0.48459  1.0000
  C   C68       1.0  0.08132999999999996  0.71785  0.48815  1.0000
  C   C69       1.0  0.21376999999999996  0.7173800000000001  0.49143  1.0000
  C   C70       1.0  0.9866299999999998  0.71663  0.58216  1.0000
  C   C71       1.0  0.9826099999999999  0.69463  0.62936  1.0000
  C   C72       1.0  0.98245  0.65154  0.65037  1.0000
  C   C73       1.0  0.48432999999999965  0.7132300000000003  0.21632  1.0000
  C   C74       1.0  0.48311  0.6905000000000001  0.19383  1.0000
  C   C75       1.0  0.48341000000000006  0.71209  0.15058  1.0000
  C   C76       1.0  0.48505999999999966  0.69018  0.1283  1.0000
  C   C77       1.0  0.48648  0.64656  0.14921  1.0000
  C   C78       1.0  0.48656999999999967  0.62485  0.19237  1.0000
  C   C79       1.0  0.48458999999999997  0.64688  0.21476  1.0000
  C   C80       1.0  0.4881500000000001  0.7127  0.08133  1.0000
  C   C81       1.0  0.49142999999999964  0.57741  0.21379  1.0000
  C   C82       1.0  0.5821699999999999  0.71461  0.98662  1.0000
  C   C83       1.0  0.62936  0.6934400000000001  0.98261  1.0000
  C   C84       1.0  0.65035  0.7156699999999999  0.9824500000000002  1.0000
  C   C85       1.0  0.7132599999999999  0.4843100000000001  0.58612  1.0000
  C   C86       1.0  0.69053  0.4830999999999999  0.63256  1.0000
  C   C87       1.0  0.7120899999999997  0.48340999999999995  0.6539100000000001  1.0000
  C   C88       1.0  0.6901699999999998  0.48505999999999994  0.69648  1.0000
  C   C89       1.0  0.6465400000000001  0.48648  0.71778  1.0000
  C   C90       1.0  0.62485  0.48657000000000006  0.69625  1.0000
  C   C91       1.0  0.64691  0.48458999999999997  0.65378  1.0000
  C   C92       1.0  0.7126899999999998  0.48816  0.71783  1.0000
  C   C93       1.0  0.5774099999999999  0.4914300000000001  0.7174  1.0000
  C   C94       1.0  0.71461  0.58214  0.7166300000000001  1.0000
  C   C95       1.0  0.6934299999999999  0.62935  0.69463  1.0000
  C   C96       1.0  0.71569  0.65035  0.65152  1.0000
  C   C97       1.0  0.21633999999999995  0.7132499999999999  0.5861000000000001  1.0000
  C   C98       1.0  0.19383999999999993  0.6905200000000001  0.63255  1.0000
  C   C99       1.0  0.15058999999999986  0.7121000000000001  0.6539100000000001  1.0000
  C   C100      1.0  0.12829000000000002  0.69017  0.69649  1.0000
  C   C101      1.0  0.14918999999999996  0.64654  0.7178  1.0000
  C   C102      1.0  0.1923499999999999  0.62484  0.69625  1.0000
  C   C103      1.0  0.2147699999999999  0.64688  0.65376  1.0000
  C   C104      1.0  0.08132000000000011  0.71269  0.71784  1.0000
  C   C105      1.0  0.21378  0.57739  0.7174  1.0000
  C   C106      1.0  0.9866399999999999  0.71459  0.71661  1.0000
  C   C107      1.0  0.9826199999999999  0.69342  0.69461  1.0000
  C   C108      1.0  0.9824500000000002  0.71568  0.65152  1.0000
  C   C109      1.0  0.5861199999999998  0.48432  0.21634000000000003  1.0000
  C   C110      1.0  0.63257  0.4831  0.19385  1.0000
  C   C111      1.0  0.6539299999999998  0.48340999999999995  0.15061  1.0000
  C   C112      1.0  0.6965  0.48506  0.1283  1.0000
  C   C113      1.0  0.7177899999999999  0.48648  0.14919  1.0000
  C   C114      1.0  0.6962400000000001  0.48657000000000006  0.19235  1.0000
  C   C115      1.0  0.65376  0.48459  0.21476  1.0000
  C   C116      1.0  0.7178499999999998  0.48814  0.08133  1.0000
  C   C117      1.0  0.71739  0.49143000000000003  0.21376  1.0000
  C   C118      1.0  0.7166399999999997  0.5821599999999999  0.98662  1.0000
  C   C119      1.0  0.69464  0.62936  0.9826  1.0000
  C   C120      1.0  0.6515499999999997  0.65037  0.98244  1.0000
  C   C121      1.0  0.7132400000000001  0.21632  0.48432  1.0000
  C   C122      1.0  0.6905100000000001  0.19382999999999997  0.4831  1.0000
  C   C123      1.0  0.71209  0.15058999999999997  0.48341  1.0000
  C   C124      1.0  0.69018  0.12830000000000008  0.48506  1.0000
  C   C125      1.0  0.6465599999999998  0.14921  0.48648  1.0000
  C   C126      1.0  0.62485  0.19236  0.48657  1.0000
  C   C127      1.0  0.64688  0.21476  0.48459  1.0000
  C   C128      1.0  0.7126999999999999  0.08133000000000001  0.48814  1.0000
  C   C129      1.0  0.5774099999999999  0.21379  0.49143  1.0000
  C   C130      1.0  0.7146199999999996  0.9866200000000002  0.58216  1.0000
  C   C131      1.0  0.6934399999999997  0.98261  0.62936  1.0000
  C   C132      1.0  0.71568  0.98245  0.65035  1.0000
  C   C133      1.0  0.48432  0.58611  0.71326  1.0000
  C   C134      1.0  0.4830999999999998  0.6325600000000001  0.69053  1.0000
  C   C135      1.0  0.48340999999999995  0.65391  0.71209  1.0000
  C   C136      1.0  0.48507  0.69648  0.69016  1.0000
  C   C137      1.0  0.4864899999999996  0.7177799999999999  0.6465300000000003  1.0000
  C   C138      1.0  0.48656999999999995  0.69626  0.62485  1.0000
  C   C139      1.0  0.48458999999999985  0.65378  0.6469100000000001  1.0000
  C   C140      1.0  0.48816  0.71783  0.71268  1.0000
  C   C141      1.0  0.49143000000000003  0.71741  0.57741  1.0000
  C   C142      1.0  0.58215  0.7166200000000001  0.71461  1.0000
  C   C143      1.0  0.62935  0.69462  0.69343  1.0000
  C   C144      1.0  0.6503499999999998  0.6515200000000001  0.7156900000000003  1.0000
  C   C145      1.0  0.015689999999999902  0.9138800000000001  0.28365  1.0000
  C   C146      1.0  0.01689999999999995  0.86744  0.30615  1.0000
  C   C147      1.0  0.01659999999999998  0.84607  0.34939  1.0000
  C   C148      1.0  0.014940000000000078  0.8035  0.3717  1.0000
  C   C149      1.0  0.013519999999999968  0.78221  0.35081  1.0000
  C   C150      1.0  0.013430000000000063  0.80376  0.30765  1.0000
  C   C151      1.0  0.01540999999999996  0.84624  0.28524  1.0000
  C   C152      1.0  0.011859999999999923  0.78215  0.41867  1.0000
  C   C153      1.0  0.008570000000000036  0.78262  0.28623  1.0000
  C   C154      1.0  0.91784  0.78337  0.51338  1.0000
  C   C155      1.0  0.8706499999999999  0.80537  0.5174  1.0000
  C   C156      1.0  0.8496399999999998  0.84846  0.51755  1.0000
  C   C157      1.0  0.7867599999999996  0.28366  0.9139  1.0000
  C   C158      1.0  0.8094899999999997  0.30615999999999993  0.8674500000000003  1.0000
  C   C159      1.0  0.7879000000000002  0.34941  0.84609  1.0000
  C   C160      1.0  0.80983  0.37171000000000004  0.80351  1.0000
  C   C161      1.0  0.85347  0.35081  0.7822000000000001  1.0000
  C   C162      1.0  0.87516  0.3076499999999999  0.8037600000000001  1.0000
  C   C163      1.0  0.8531199999999999  0.28523  0.84624  1.0000
  C   C164      1.0  0.78731  0.41868999999999995  0.7821500000000001  1.0000
  C   C165      1.0  0.9226099999999998  0.28622  0.7826  1.0000
  C   C166      1.0  0.78541  0.51337  0.78339  1.0000
  C   C167      1.0  0.8065799999999997  0.51739  0.8053900000000002  1.0000
  C   C168      1.0  0.78433  0.51755  0.84848  1.0000
  C   C169      1.0  0.9138899999999998  0.015679999999999982  0.78675  1.0000
  C   C170      1.0  0.86744  0.01689999999999999  0.80948  1.0000
  C   C171      1.0  0.8460899999999999  0.01659000000000001  0.78791  1.0000
  C   C172      1.0  0.8035199999999999  0.014939999999999993  0.80984  1.0000
  C   C173      1.0  0.78222  0.013520000000000004  0.85346  1.0000
  C   C174      1.0  0.8037499999999996  0.013429999999999966  0.87515  1.0000
  C   C175      1.0  0.84622  0.015410000000000033  0.85309  1.0000
  C   C176      1.0  0.7821699999999998  0.011850000000000024  0.78732  1.0000
  C   C177      1.0  0.7826  0.00857  0.92259  1.0000
  C   C178      1.0  0.7833799999999996  0.9178600000000003  0.78539  1.0000
  C   C179      1.0  0.8053900000000002  0.8706499999999999  0.80657  1.0000
  C   C180      1.0  0.8484899999999997  0.8496500000000005  0.78431  1.0000
  C   C181      1.0  0.28368  0.78676  0.01568  1.0000
  C   C182      1.0  0.3061699999999999  0.80949  0.0169  1.0000
  C   C183      1.0  0.34941999999999995  0.78791  0.01659  1.0000
  C   C184      1.0  0.3717  0.80982  0.01494  1.0000
  C   C185      1.0  0.35079000000000005  0.85344  0.01352  1.0000
  C   C186      1.0  0.30763999999999986  0.87515  0.01343  1.0000
  C   C187      1.0  0.2852399999999999  0.8531200000000002  0.01541  1.0000
  C   C188      1.0  0.4186699999999999  0.7873  0.01186  1.0000
  C   C189      1.0  0.28622  0.92259  0.00857  1.0000
  C   C190      1.0  0.5133800000000001  0.7853900000000001  0.91784  1.0000
  C   C191      1.0  0.5173999999999997  0.8065600000000002  0.87064  1.0000
  C   C192      1.0  0.51756  0.78432  0.84965  1.0000
  C   C193      1.0  0.01568000000000003  0.28368  0.78677  1.0000
  C   C194      1.0  0.01689999999999995  0.30617  0.8094900000000003  1.0000
  C   C195      1.0  0.01659999999999996  0.34942  0.78791  1.0000
  C   C196      1.0  0.014949999999999878  0.3716999999999999  0.8098200000000002  1.0000
  C   C197      1.0  0.013529999999999981  0.35078999999999994  0.85344  1.0000
  C   C198      1.0  0.013439999999999981  0.30764  0.87515  1.0000
  C   C199      1.0  0.015410000000000054  0.28523999999999994  0.85312  1.0000
  C   C200      1.0  0.011860000000000018  0.41867  0.78729  1.0000
  C   C201      1.0  0.008579999999999978  0.2862100000000001  0.92259  1.0000
  C   C202      1.0  0.91784  0.5133799999999998  0.78539  1.0000
  C   C203      1.0  0.8706499999999999  0.51739  0.80656  1.0000
  C   C204      1.0  0.84966  0.51755  0.78433  1.0000
  C   C205      1.0  0.7867499999999996  0.9138800000000002  0.01569  1.0000
  C   C206      1.0  0.8094799999999996  0.86743  0.0169  1.0000
  C   C207      1.0  0.7879099999999999  0.84609  0.01659  1.0000
  C   C208      1.0  0.80984  0.80352  0.01494  1.0000
  C   C209      1.0  0.8534700000000001  0.78222  0.01352  1.0000
  C   C210      1.0  0.8751499999999998  0.80375  0.01343  1.0000
  C   C211      1.0  0.8530999999999999  0.8462200000000001  0.01541  1.0000
  C   C212      1.0  0.78732  0.7821700000000003  0.01184  1.0000
  C   C213      1.0  0.9225900000000001  0.7826  0.00857  1.0000
  C   C214      1.0  0.7854  0.78337  0.91786  1.0000
  C   C215      1.0  0.80658  0.8053699999999999  0.87065  1.0000
  C   C216      1.0  0.7843199999999998  0.8484800000000001  0.84965  1.0000
  C   C217      1.0  0.9139000000000002  0.7867499999999998  0.28367000000000003  1.0000
  C   C218      1.0  0.8674499999999999  0.80949  0.30616  1.0000
  C   C219      1.0  0.8460899999999999  0.78789  0.34942  1.0000
  C   C220      1.0  0.8035199999999999  0.80982  0.37171  1.0000
  C   C221      1.0  0.78221  0.85346  0.35081  1.0000
  C   C222      1.0  0.8037599999999999  0.87516  0.30764  1.0000
  C   C223      1.0  0.8462499999999996  0.8531200000000002  0.28522  1.0000
  C   C224      1.0  0.7821599999999996  0.7873  0.41869  1.0000
  C   C225      1.0  0.7826099999999998  0.92261  0.28622  1.0000
  C   C226      1.0  0.7834  0.78541  0.51337  1.0000
  C   C227      1.0  0.8053899999999997  0.80658  0.51739  1.0000
  C   C228      1.0  0.8484800000000001  0.78433  0.51755  1.0000
  C   C229      1.0  0.28366  0.015690000000000016  0.91388  1.0000
  C   C230      1.0  0.30616  0.01689999999999999  0.86743  1.0000
  C   C231      1.0  0.3493999999999998  0.01659000000000001  0.84607  1.0000
  C   C232      1.0  0.3717099999999998  0.014939999999999993  0.80351  1.0000
  C   C233      1.0  0.35080999999999984  0.013520000000000004  0.78222  1.0000
  C   C234      1.0  0.30765999999999993  0.013429999999999966  0.8037600000000001  1.0000
  C   C235      1.0  0.28524  0.015410000000000033  0.84624  1.0000
  C   C236      1.0  0.4186699999999999  0.01184999999999997  0.7821500000000001  1.0000
  C   C237      1.0  0.28624  0.00857  0.78262  1.0000
  C   C238      1.0  0.51338  0.91784  0.78336  1.0000
  C   C239      1.0  0.5174  0.87064  0.80537  1.0000
  C   C240      1.0  0.51756  0.8496299999999999  0.8484600000000002  1.0000
  C   C241      1.0  0.015690000000000044  0.78674  0.91389  1.0000
  C   C242      1.0  0.016910000000000126  0.8094699999999999  0.86744  1.0000
  C   C243      1.0  0.016600000000000076  0.78791  0.84609  1.0000
  C   C244      1.0  0.014939999999999983  0.8098400000000001  0.80352  1.0000
  C   C245      1.0  0.013530000000000006  0.85346  0.78221  1.0000
  C   C246      1.0  0.01343999999999991  0.87515  0.80374  1.0000
  C   C247      1.0  0.015419999999999996  0.85309  0.8462200000000002  1.0000
  C   C248      1.0  0.011849999999999934  0.7873200000000001  0.78217  1.0000
  C   C249      1.0  0.008579999999999931  0.92259  0.78259  1.0000
  C   C250      1.0  0.9178600000000001  0.7853899999999999  0.78338  1.0000
  C   C251      1.0  0.8706599999999999  0.80657  0.80538  1.0000
  C   C252      1.0  0.8496599999999996  0.7843100000000001  0.84848  1.0000
  C   C253      1.0  0.7867700000000001  0.015679999999999996  0.28368  1.0000
  C   C254      1.0  0.8094899999999999  0.01689999999999999  0.30617  1.0000
  C   C255      1.0  0.78791  0.01659000000000001  0.34941  1.0000
  C   C256      1.0  0.8098199999999999  0.014939999999999993  0.3717  1.0000
  C   C257      1.0  0.8534399999999999  0.013520000000000004  0.35079  1.0000
  C   C258      1.0  0.8751499999999998  0.013430000000000006  0.30764  1.0000
  C   C259      1.0  0.8531199999999999  0.015410000000000005  0.28524  1.0000
  C   C260      1.0  0.7872999999999999  0.011860000000000004  0.41867  1.0000
  C   C261      1.0  0.92259  0.00857  0.28622  1.0000
  C   C262      1.0  0.7853899999999998  0.9178399999999999  0.51338  1.0000
  C   C263      1.0  0.8065699999999998  0.8706400000000001  0.51739  1.0000
  C   C264      1.0  0.78433  0.84965  0.51755  1.0000
  C   C265      1.0  0.91388  0.28366  0.01568  1.0000
  C   C266      1.0  0.86744  0.30615  0.0169  1.0000
  C   C267      1.0  0.8460700000000001  0.34939  0.01659  1.0000
  C   C268      1.0  0.8035099999999996  0.3717  0.01494  1.0000
  C   C269      1.0  0.7822199999999999  0.35081000000000007  0.01352  1.0000
  C   C270      1.0  0.8037599999999999  0.30765  0.01343  1.0000
  C   C271      1.0  0.8462399999999997  0.28524  0.01541  1.0000
  C   C272      1.0  0.78215  0.41867  0.011850000000000001  1.0000
  C   C273      1.0  0.7826200000000001  0.28624  0.00857  1.0000
  C   C274      1.0  0.7833699999999999  0.51338  0.91784  1.0000
  C   C275      1.0  0.8053699999999998  0.5174000000000003  0.87064  1.0000
  C   C276      1.0  0.8484599999999997  0.51756  0.8496300000000002  1.0000
  C   C277      1.0  0.28367999999999993  0.9139000000000002  0.78675  1.0000
  C   C278      1.0  0.30616999999999994  0.86745  0.80948  1.0000
  C   C279      1.0  0.34942000000000006  0.8460899999999999  0.7879  1.0000
  C   C280      1.0  0.3717200000000001  0.8035099999999998  0.80983  1.0000
  C   C281      1.0  0.3508199999999997  0.7822  0.85346  1.0000
  C   C282      1.0  0.30765999999999993  0.80375  0.8751600000000002  1.0000
  C   C283      1.0  0.28524  0.84624  0.85311  1.0000
  C   C284      1.0  0.4186899999999997  0.7821600000000001  0.7873  1.0000
  C   C285      1.0  0.28623  0.7826  0.92261  1.0000
  C   C286      1.0  0.51337  0.78339  0.7854100000000003  1.0000
  C   C287      1.0  0.5173899999999999  0.80539  0.80658  1.0000
  C   C288      1.0  0.5175599999999999  0.84848  0.78432  1.0000
  C   C289      1.0  0.28676  0.4139  0.78366  1.0000
  C   C290      1.0  0.3094900000000001  0.36745  0.80616  1.0000
  C   C291      1.0  0.28791  0.34609000000000006  0.84941  1.0000
  C   C292      1.0  0.30984  0.30351000000000006  0.87171  1.0000
  C   C293      1.0  0.35347000000000006  0.2822  0.85081  1.0000
  C   C294      1.0  0.37517000000000006  0.3037600000000001  0.80765  1.0000
  C   C295      1.0  0.35311999999999993  0.34624  0.78522  1.0000
  C   C296      1.0  0.28730999999999973  0.28214999999999996  0.91869  1.0000
  C   C297      1.0  0.4226099999999999  0.2826  0.78622  1.0000
  C   C298      1.0  0.28541  0.28339  0.01337  1.0000
  C   C299      1.0  0.3065800000000001  0.30539  0.01739  1.0000
  C   C300      1.0  0.2843299999999999  0.34848  0.01755  1.0000
  C   C301      1.0  0.51569  0.7836500000000001  0.41389  1.0000
  C   C302      1.0  0.5169000000000001  0.80615  0.36744000000000004  1.0000
  C   C303      1.0  0.5166000000000001  0.84939  0.34607  1.0000
  C   C304      1.0  0.51494  0.8717000000000001  0.3035  1.0000
  C   C305      1.0  0.5135200000000001  0.85081  0.28221  1.0000
  C   C306      1.0  0.51343  0.80765  0.30376  1.0000
  C   C307      1.0  0.5154099999999999  0.78524  0.34624  1.0000
  C   C308      1.0  0.5118599999999999  0.9186700000000001  0.28215  1.0000
  C   C309      1.0  0.5085699999999999  0.78623  0.28262  1.0000
  C   C310      1.0  0.4178399999999998  0.013380000000000012  0.28337  1.0000
  C   C311      1.0  0.3706399999999999  0.01739999999999997  0.3053700000000001  1.0000
  C   C312      1.0  0.34963  0.017560000000000003  0.34846  1.0000
  C   C313      1.0  0.7836799999999998  0.51568  0.28677  1.0000
  C   C314      1.0  0.8061699999999999  0.5169  0.30949  1.0000
  C   C315      1.0  0.84942  0.51659  0.28791  1.0000
  C   C316      1.0  0.8717  0.51494  0.30982  1.0000
  C   C317      1.0  0.85079  0.5135199999999999  0.35344000000000003  1.0000
  C   C318      1.0  0.8076399999999999  0.51343  0.37515  1.0000
  C   C319      1.0  0.7852400000000002  0.51541  0.35312  1.0000
  C   C320      1.0  0.9186699999999998  0.5118500000000002  0.2873  1.0000
  C   C321      1.0  0.78622  0.50857  0.42259  1.0000
  C   C322      1.0  0.013379999999999974  0.41784  0.28539  1.0000
  C   C323      1.0  0.01739999999999999  0.37064  0.30656  1.0000
  C   C324      1.0  0.017549999999999996  0.3496499999999999  0.28432000000000013  1.0000
  C   C325      1.0  0.41389000000000004  0.28675  0.51568  1.0000
  C   C326      1.0  0.36744  0.30948  0.5169  1.0000
  C   C327      1.0  0.34608999999999995  0.28791000000000005  0.51659  1.0000
  C   C328      1.0  0.30353  0.30984  0.51494  1.0000
  C   C329      1.0  0.28222  0.35346  0.51352  1.0000
  C   C330      1.0  0.3037500000000001  0.37515  0.51343  1.0000
  C   C331      1.0  0.34621999999999986  0.3531000000000001  0.51541  1.0000
  C   C332      1.0  0.28218  0.2873200000000001  0.51184  1.0000
  C   C333      1.0  0.2826  0.42259  0.50857  1.0000
  C   C334      1.0  0.28337999999999997  0.28539  0.41786  1.0000
  C   C335      1.0  0.30537999999999993  0.30657  0.37065  1.0000
  C   C336      1.0  0.34848  0.28431000000000006  0.34965  1.0000
  C   C337      1.0  0.4138999999999996  0.7836700000000001  0.28675000000000006  1.0000
  C   C338      1.0  0.36745000000000005  0.80616  0.30949  1.0000
  C   C339      1.0  0.34609000000000006  0.84942  0.2879  1.0000
  C   C340      1.0  0.3035199999999999  0.87171  0.30982  1.0000
  C   C341      1.0  0.28220999999999996  0.85081  0.35346  1.0000
  C   C342      1.0  0.30376  0.80764  0.37516  1.0000
  C   C343      1.0  0.3462499999999998  0.78522  0.35312  1.0000
  C   C344      1.0  0.2821699999999998  0.9186900000000001  0.2873  1.0000
  C   C345      1.0  0.28261  0.78622  0.42261  1.0000
  C   C346      1.0  0.2833899999999999  0.013370000000000003  0.28541  1.0000
  C   C347      1.0  0.30539  0.01738999999999996  0.30658000000000013  1.0000
  C   C348      1.0  0.34848  0.017549999999999996  0.28433  1.0000
  C   C349      1.0  0.7836600000000001  0.41387999999999997  0.51569  1.0000
  C   C350      1.0  0.8061599999999998  0.36744000000000004  0.5169  1.0000
  C   C351      1.0  0.8493999999999997  0.34606999999999993  0.51659  1.0000
  C   C352      1.0  0.87171  0.30350999999999995  0.51494  1.0000
  C   C353      1.0  0.8508100000000001  0.28222  0.51352  1.0000
  C   C354      1.0  0.8076599999999994  0.3037600000000001  0.51343  1.0000
  C   C355      1.0  0.78524  0.34624  0.51541  1.0000
  C   C356      1.0  0.91867  0.28215  0.51185  1.0000
  C   C357      1.0  0.7862399999999999  0.28262  0.50857  1.0000
  C   C358      1.0  0.013379999999999974  0.28336999999999996  0.41784000000000004  1.0000
  C   C359      1.0  0.01739999999999999  0.30537000000000003  0.37064  1.0000
  C   C360      1.0  0.017559999999999985  0.34846  0.34963  1.0000
  C   C361      1.0  0.51568  0.28676999999999997  0.78368  1.0000
  C   C362      1.0  0.5168999999999999  0.30950000000000005  0.80617  1.0000
  C   C363      1.0  0.5166000000000003  0.28791000000000005  0.84942  1.0000
  C   C364      1.0  0.5149499999999998  0.30981999999999993  0.8717000000000003  1.0000
  C   C365      1.0  0.5135299999999999  0.35344000000000003  0.85078  1.0000
  C   C366      1.0  0.51344  0.37514999999999993  0.8076300000000002  1.0000
  C   C367      1.0  0.5154099999999998  0.35311999999999993  0.78524  1.0000
  C   C368      1.0  0.51186  0.2873  0.91867  1.0000
  C   C369      1.0  0.50858  0.42259  0.78621  1.0000
  C   C370      1.0  0.41784  0.28539  0.01338  1.0000
  C   C371      1.0  0.37063999999999997  0.30656  0.01739  1.0000
  C   C372      1.0  0.34964999999999996  0.28433  0.01755  1.0000
  C   C373      1.0  0.2867499999999999  0.51569  0.41388  1.0000
  C   C374      1.0  0.30948  0.5169  0.36743  1.0000
  C   C375      1.0  0.28790999999999994  0.51659  0.34609  1.0000
  C   C376      1.0  0.30983999999999995  0.51494  0.30352  1.0000
  C   C377      1.0  0.3534699999999999  0.51352  0.28222000000000014  1.0000
  C   C378      1.0  0.37515  0.51343  0.30375  1.0000
  C   C379      1.0  0.3531  0.51541  0.34622  1.0000
  C   C380      1.0  0.28732  0.51184  0.28217  1.0000
  C   C381      1.0  0.4225899999999999  0.50857  0.2826  1.0000
  C   C382      1.0  0.2853999999999999  0.41786000000000006  0.28337  1.0000
  C   C383      1.0  0.30657999999999996  0.37065  0.3053700000000001  1.0000
  C   C384      1.0  0.28432  0.34965  0.34848  1.0000
  C   C385      1.0  0.7836699999999999  0.28675000000000006  0.4139  1.0000
  C   C386      1.0  0.8061699999999998  0.30948  0.36745  1.0000
  C   C387      1.0  0.8494200000000002  0.2879  0.34609  1.0000
  C   C388      1.0  0.87171  0.30983  0.30351  1.0000
  C   C389      1.0  0.85081  0.35346  0.2822  1.0000
  C   C390      1.0  0.8076499999999999  0.37516  0.30375  1.0000
  C   C391      1.0  0.7852299999999999  0.3531100000000001  0.34624  1.0000
  C   C392      1.0  0.9186899999999998  0.28731000000000007  0.28216  1.0000
  C   C393      1.0  0.78623  0.42261  0.2826  1.0000
  C   C394      1.0  0.01336999999999996  0.28541  0.28339000000000003  1.0000
  C   C395      1.0  0.017390000000000023  0.30657999999999996  0.30539  1.0000
  C   C396      1.0  0.017549999999999972  0.28432  0.34848  1.0000
  C   C397      1.0  0.41389  0.5156800000000001  0.78366  1.0000
  C   C398      1.0  0.36743999999999993  0.5169  0.80615  1.0000
  C   C399      1.0  0.34607000000000004  0.51659  0.84939  1.0000
  C   C400      1.0  0.30350999999999984  0.51494  0.8717000000000003  1.0000
  C   C401      1.0  0.2822199999999999  0.5135199999999999  0.85081  1.0000
  C   C402      1.0  0.30377  0.5134300000000002  0.80765  1.0000
  C   C403      1.0  0.34624999999999967  0.51541  0.78524  1.0000
  C   C404      1.0  0.2821500000000001  0.51186  0.91867  1.0000
  C   C405      1.0  0.28261999999999987  0.50857  0.78624  1.0000
  C   C406      1.0  0.28337000000000007  0.41784  0.01338  1.0000
  C   C407      1.0  0.3053699999999999  0.37064  0.0174  1.0000
  C   C408      1.0  0.34846000000000005  0.34963  0.01756  1.0000
  C   C409      1.0  0.2867699999999999  0.78368  0.51568  1.0000
  C   C410      1.0  0.3095  0.80617  0.5169  1.0000
  C   C411      1.0  0.28791999999999995  0.8494099999999999  0.51659  1.0000
  C   C412      1.0  0.30982999999999966  0.8717000000000001  0.51494  1.0000
  C   C413      1.0  0.3534500000000001  0.8507899999999999  0.51352  1.0000
  C   C414      1.0  0.37514999999999965  0.80764  0.51343  1.0000
  C   C415      1.0  0.35311999999999993  0.78524  0.51541  1.0000
  C   C416      1.0  0.28730000000000006  0.91867  0.51186  1.0000
  C   C417      1.0  0.42260000000000003  0.78621  0.50857  1.0000
  C   C418      1.0  0.28539  0.013379999999999984  0.41784000000000004  1.0000
  C   C419      1.0  0.30656999999999984  0.017390000000000017  0.37064  1.0000
  C   C420      1.0  0.28433  0.017549999999999996  0.34965  1.0000
  C   C421      1.0  0.5156900000000001  0.41389  0.28674  1.0000
  C   C422      1.0  0.5169000000000001  0.36744  0.30947  1.0000
  C   C423      1.0  0.51659  0.34609  0.28791  1.0000
  C   C424      1.0  0.51494  0.30352  0.30984  1.0000
  C   C425      1.0  0.51352  0.28222  0.35347  1.0000
  C   C426      1.0  0.5134400000000001  0.30374  0.37515  1.0000
  C   C427      1.0  0.5154099999999999  0.34622  0.35309  1.0000
  C   C428      1.0  0.5118499999999998  0.28217  0.28732  1.0000
  C   C429      1.0  0.5085699999999997  0.28259  0.42259  1.0000
  C   C430      1.0  0.41785999999999984  0.28338  0.28539  1.0000
  C   C431      1.0  0.37065  0.30538  0.30657  1.0000
  C   C432      1.0  0.34965  0.34847999999999996  0.28431  1.0000
  C   C433      1.0  0.9843199999999999  0.08611999999999995  0.7163500000000002  1.0000
  C   C434      1.0  0.9831000000000005  0.13255999999999998  0.69385  1.0000
  C   C435      1.0  0.9834099999999998  0.15393  0.65061  1.0000
  C   C436      1.0  0.9850700000000001  0.1965  0.6283  1.0000
  C   C437      1.0  0.98648  0.21779000000000004  0.64919  1.0000
  C   C438      1.0  0.9865699999999998  0.19624000000000003  0.69235  1.0000
  C   C439      1.0  0.9845899999999999  0.15376  0.71476  1.0000
  C   C440      1.0  0.9881499999999999  0.21784999999999996  0.58133  1.0000
  C   C441      1.0  0.9914399999999999  0.21738000000000002  0.71376  1.0000
  C   C442      1.0  0.08215999999999991  0.2166300000000001  0.48662  1.0000
  C   C443      1.0  0.12935999999999998  0.19463000000000003  0.4826  1.0000
  C   C444      1.0  0.15036999999999998  0.15154  0.48244  1.0000
  C   C445      1.0  0.21324999999999994  0.71634  0.0861  1.0000
  C   C446      1.0  0.19050999999999987  0.6938400000000002  0.13255  1.0000
  C   C447      1.0  0.21209999999999996  0.65059  0.15391  1.0000
  C   C448      1.0  0.19016999999999995  0.62829  0.19649  1.0000
  C   C449      1.0  0.14654  0.64919  0.2178  1.0000
  C   C450      1.0  0.12483999999999996  0.69235  0.19624  1.0000
  C   C451      1.0  0.14688999999999997  0.71477  0.15376  1.0000
  C   C452      1.0  0.21269999999999994  0.58131  0.21785  1.0000
  C   C453      1.0  0.07739999999999995  0.7137800000000001  0.2174  1.0000
  C   C454      1.0  0.21459000000000003  0.48662999999999995  0.21661  1.0000
  C   C455      1.0  0.19341999999999995  0.48261000000000015  0.19461  1.0000
  C   C456      1.0  0.21568  0.48245  0.15152  1.0000
  C   C457      1.0  0.08611999999999992  0.9843200000000001  0.21325  1.0000
  C   C458      1.0  0.1325699999999999  0.9831  0.19052  1.0000
  C   C459      1.0  0.15392000000000008  0.9834099999999999  0.21209  1.0000
  C   C460      1.0  0.19648  0.9850599999999999  0.19016000000000002  1.0000
  C   C461      1.0  0.21779  0.98648  0.14654  1.0000
  C   C462      1.0  0.19625999999999993  0.98657  0.12485  1.0000
  C   C463      1.0  0.15378000000000003  0.9845899999999999  0.14691  1.0000
  C   C464      1.0  0.21782999999999997  0.98815  0.21268  1.0000
  C   C465      1.0  0.21740999999999994  0.9914300000000001  0.07741  1.0000
  C   C466      1.0  0.21661999999999992  0.08214  0.21461  1.0000
  C   C467      1.0  0.19461999999999996  0.12935  0.19343  1.0000
  C   C468      1.0  0.15151999999999993  0.15035  0.21569  1.0000
  C   C469      1.0  0.7163200000000001  0.21324  0.98432  1.0000
  C   C470      1.0  0.6938300000000001  0.19051000000000004  0.9831  1.0000
  C   C471      1.0  0.65059  0.21208999999999997  0.98341  1.0000
  C   C472      1.0  0.6282999999999999  0.19018  0.98506  1.0000
  C   C473      1.0  0.6492099999999996  0.14656  0.98648  1.0000
  C   C474      1.0  0.69236  0.12485  0.98657  1.0000
  C   C475      1.0  0.7147599999999996  0.14687999999999996  0.9845900000000002  1.0000
  C   C476      1.0  0.5813299999999999  0.21270000000000006  0.98814  1.0000
  C   C477      1.0  0.71379  0.07740999999999998  0.99142  1.0000
  C   C478      1.0  0.48663  0.21461  0.08216  1.0000
  C   C479      1.0  0.48261  0.19344  0.12936  1.0000
  C   C480      1.0  0.48244999999999993  0.21567999999999998  0.15035000000000007  1.0000
  C   C481      1.0  0.9843299999999999  0.71632  0.21323  1.0000
  C   C482      1.0  0.9831099999999999  0.69383  0.19051  1.0000
  C   C483      1.0  0.9834099999999998  0.65058  0.21209  1.0000
  C   C484      1.0  0.98506  0.6283  0.19018  1.0000
  C   C485      1.0  0.9864800000000002  0.64921  0.14656  1.0000
  C   C486      1.0  0.9865699999999998  0.69236  0.12485  1.0000
  C   C487      1.0  0.9845899999999999  0.71476  0.14688  1.0000
  C   C488      1.0  0.9881499999999999  0.58133  0.21271  1.0000
  C   C489      1.0  0.9914299999999998  0.71379  0.07741  1.0000
  C   C490      1.0  0.08215999999999994  0.48662000000000005  0.21461  1.0000
  C   C491      1.0  0.1293599999999999  0.48261000000000015  0.19344  1.0000
  C   C492      1.0  0.15035  0.48245  0.21567  1.0000
  C   C493      1.0  0.21326000000000003  0.08611999999999992  0.9843100000000002  1.0000
  C   C494      1.0  0.19053  0.13256999999999997  0.9831  1.0000
  C   C495      1.0  0.21209000000000003  0.15391  0.98341  1.0000
  C   C496      1.0  0.19016999999999992  0.19648000000000002  0.98506  1.0000
  C   C497      1.0  0.1465399999999999  0.21778000000000003  0.98648  1.0000
  C   C498      1.0  0.12485000000000006  0.19624999999999998  0.98657  1.0000
  C   C499      1.0  0.1469099999999999  0.15377999999999992  0.9845900000000002  1.0000
  C   C500      1.0  0.21268999999999993  0.21783000000000002  0.98816  1.0000
  C   C501      1.0  0.07741000000000008  0.21739999999999995  0.99143  1.0000
  C   C502      1.0  0.21459999999999999  0.21663000000000004  0.08214  1.0000
  C   C503      1.0  0.19342999999999996  0.19463000000000005  0.12935  1.0000
  C   C504      1.0  0.21567999999999998  0.15151999999999996  0.15035000000000007  1.0000
  C   C505      1.0  0.08609999999999997  0.21324999999999997  0.71633  1.0000
  C   C506      1.0  0.13256  0.19051  0.69384  1.0000
  C   C507      1.0  0.15391  0.21211000000000002  0.65058  1.0000
  C   C508      1.0  0.19648999999999997  0.19018  0.62829  1.0000
  C   C509      1.0  0.21779000000000007  0.14654000000000003  0.64919  1.0000
  C   C510      1.0  0.19624000000000005  0.12483999999999996  0.69236  1.0000
  C   C511      1.0  0.15375999999999998  0.14687999999999998  0.71477  1.0000
  C   C512      1.0  0.21783999999999998  0.2127  0.58131  1.0000
  C   C513      1.0  0.21739999999999995  0.07738999999999989  0.7137800000000002  1.0000
  C   C514      1.0  0.21660999999999994  0.21458999999999998  0.48663  1.0000
  C   C515      1.0  0.19461999999999993  0.19342  0.48261  1.0000
  C   C516      1.0  0.15152  0.21567000000000003  0.48245  1.0000
  C   C517      1.0  0.7163499999999999  0.98431  0.08612  1.0000
  C   C518      1.0  0.6938499999999997  0.9831  0.13256  1.0000
  C   C519      1.0  0.6506099999999998  0.98341  0.15393  1.0000
  C   C520      1.0  0.6283  0.98506  0.19649  1.0000
  C   C521      1.0  0.6491999999999999  0.98648  0.21778  1.0000
  C   C522      1.0  0.69235  0.98657  0.19624  1.0000
  C   C523      1.0  0.7147599999999997  0.98459  0.15376  1.0000
  C   C524      1.0  0.5813299999999999  0.98815  0.21785  1.0000
  C   C525      1.0  0.7137699999999999  0.9914300000000001  0.21738  1.0000
  C   C526      1.0  0.48662  0.08215999999999998  0.21663  1.0000
  C   C527      1.0  0.4826  0.12936  0.19463  1.0000
  C   C528      1.0  0.48244  0.15037  0.15154000000000006  1.0000
  C   C529      1.0  0.9843199999999999  0.21326  0.08611  1.0000
  C   C530      1.0  0.9831  0.19053  0.13256  1.0000
  C   C531      1.0  0.9834099999999998  0.21208999999999997  0.15391  1.0000
  C   C532      1.0  0.9850699999999999  0.19015999999999997  0.19648  1.0000
  C   C533      1.0  0.98648  0.14653  0.21778  1.0000
  C   C534      1.0  0.9865699999999998  0.12485  0.19626  1.0000
  C   C535      1.0  0.9845899999999999  0.14691  0.15378  1.0000
  C   C536      1.0  0.9881599999999999  0.21267999999999998  0.21783  1.0000
  C   C537      1.0  0.99143  0.07741  0.21741  1.0000
  C   C538      1.0  0.08215  0.21460999999999997  0.21662000000000003  1.0000
  C   C539      1.0  0.12935  0.19343000000000002  0.19462  1.0000
  C   C540      1.0  0.15034999999999996  0.2156900000000001  0.15152  1.0000
  C   C541      1.0  0.21323999999999999  0.9843200000000001  0.71632  1.0000
  C   C542      1.0  0.19050999999999987  0.9831  0.69383  1.0000
  C   C543      1.0  0.21209999999999996  0.9834099999999999  0.65059  1.0000
  C   C544      1.0  0.19019  0.9850599999999999  0.6283  1.0000
  C   C545      1.0  0.14656  0.9864700000000001  0.64921  1.0000
  C   C546      1.0  0.1248600000000001  0.98657  0.69236  1.0000
  C   C547      1.0  0.14689000000000002  0.9845900000000001  0.71476  1.0000
  C   C548      1.0  0.2127099999999999  0.9881400000000001  0.58133  1.0000
  C   C549      1.0  0.07741999999999993  0.9914300000000001  0.7137800000000002  1.0000
  C   C550      1.0  0.21460999999999997  0.08216000000000001  0.48662  1.0000
  C   C551      1.0  0.19343999999999997  0.12936000000000003  0.48261  1.0000
  C   C552      1.0  0.21568000000000018  0.15035  0.48245  1.0000
  C   C553      1.0  0.08612000000000007  0.7163399999999999  0.98432  1.0000
  C   C554      1.0  0.13257000000000013  0.6938499999999999  0.9831  1.0000
  C   C555      1.0  0.15393999999999997  0.65061  0.98341  1.0000
  C   C556      1.0  0.19649999999999987  0.6283  0.98506  1.0000
  C   C557      1.0  0.21778999999999993  0.64919  0.98648  1.0000
  C   C558      1.0  0.19624000000000005  0.6923500000000001  0.98657  1.0000
  C   C559      1.0  0.15376  0.7147599999999998  0.9845900000000002  1.0000
  C   C560      1.0  0.21786000000000003  0.58133  0.98815  1.0000
  C   C561      1.0  0.2173900000000001  0.71376  0.99143  1.0000
  C   C562      1.0  0.21662999999999996  0.48662  0.08216  1.0000
  C   C563      1.0  0.19463  0.4826  0.12936  1.0000
  C   C564      1.0  0.1515399999999999  0.4824399999999999  0.15037  1.0000
  C   C565      1.0  0.7163300000000001  0.0861  0.21325  1.0000
  C   C566      1.0  0.69384  0.13255  0.19052  1.0000
  C   C567      1.0  0.6505799999999998  0.15391  0.2121  1.0000
  C   C568      1.0  0.6282899999999999  0.19649  0.19017  1.0000
  C   C569      1.0  0.64919  0.21780000000000002  0.14654  1.0000
  C   C570      1.0  0.69235  0.19625  0.12484  1.0000
  C   C571      1.0  0.7147699999999998  0.15376  0.14688  1.0000
  C   C572      1.0  0.58132  0.21784  0.21269  1.0000
  C   C573      1.0  0.7137699999999999  0.2174  0.07739  1.0000
  C   C574      1.0  0.48663  0.21661  0.21459000000000003  1.0000
  C   C575      1.0  0.48261  0.19461  0.19342  1.0000
  C   C576      1.0  0.48244999999999993  0.15152  0.21568  1.0000
  O   O1        1.0  0.69148  0.56754  0.25527  1.0000
  O   O2        1.0  0.75242  0.56829  0.19434  1.0000
  O   O3        1.0  0.75024  0.69414  0.06281  1.0000
  O   O4        1.0  0.69234  0.75768  0.06309  1.0000
  O   O5        1.0  0.55849  0.75575  0.19149000000000002  1.0000
  O   O6        1.0  0.5592799999999999  0.69491  0.25251  1.0000
  O   O7        1.0  0.69121  0.75401  0.99163  1.0000
  O   O8        1.0  0.75426  0.69558  0.98592  1.0000
  O   O9        1.0  0.4857099999999999  0.25527  0.56754  1.0000
  O   O10       1.0  0.48492999999999997  0.19437000000000001  0.56833  1.0000
  O   O11       1.0  0.4927999999999999  0.06285000000000002  0.69416  1.0000
  O   O12       1.0  0.4868799999999999  0.06309000000000001  0.75768  1.0000
  O   O13       1.0  0.49426999999999977  0.1914799999999999  0.7557300000000002  1.0000
  O   O14       1.0  0.49331  0.25248999999999994  0.6949  1.0000
  O   O15       1.0  0.56313  0.99162  0.75403  1.0000
  O   O16       1.0  0.5642699999999999  0.9859100000000001  0.69561  1.0000
  O   O17       1.0  0.25525000000000003  0.48571999999999993  0.69146  1.0000
  O   O18       1.0  0.19433999999999998  0.4849399999999999  0.7524  1.0000
  O   O19       1.0  0.06280999999999998  0.4928  0.75024  1.0000
  O   O20       1.0  0.0631400000000001  0.4868799999999999  0.69236  1.0000
  O   O21       1.0  0.19151000000000004  0.49426  0.55853  1.0000
  O   O22       1.0  0.25251000000000007  0.4932899999999999  0.55927  1.0000
  O   O23       1.0  0.99163  0.56317  0.69123  1.0000
  O   O24       1.0  0.9858999999999999  0.56422  0.75427  1.0000
  O   O25       1.0  0.5675899999999998  0.69149  0.48571  1.0000
  O   O26       1.0  0.5682899999999997  0.75242  0.48494  1.0000
  O   O27       1.0  0.6941399999999998  0.7502200000000002  0.49281  1.0000
  O   O28       1.0  0.7576599999999997  0.69233  0.48689  1.0000
  O   O29       1.0  0.75576  0.5584800000000002  0.49426  1.0000
  O   O30       1.0  0.6949300000000002  0.5593099999999998  0.4933000000000001  1.0000
  O   O31       1.0  0.7540299999999999  0.69121  0.56313  1.0000
  O   O32       1.0  0.6955899999999997  0.75427  0.56423  1.0000
  O   O33       1.0  0.56755  0.25527  0.69147  1.0000
  O   O34       1.0  0.5682999999999998  0.19433999999999993  0.7524200000000002  1.0000
  O   O35       1.0  0.69414  0.06279999999999998  0.75025  1.0000
  O   O36       1.0  0.7576800000000001  0.06309999999999999  0.69234  1.0000
  O   O37       1.0  0.7557499999999999  0.19149000000000002  0.55849  1.0000
  O   O38       1.0  0.69491  0.25251  0.55927  1.0000
  O   O39       1.0  0.7540199999999999  0.9916299999999999  0.6912  1.0000
  O   O40       1.0  0.6955799999999996  0.9859200000000001  0.75425  1.0000
  O   O41       1.0  0.25527000000000005  0.56754  0.4857  1.0000
  O   O42       1.0  0.19436999999999985  0.5683400000000002  0.48493  1.0000
  O   O43       1.0  0.06285000000000003  0.6941599999999999  0.4928  1.0000
  O   O44       1.0  0.06309999999999995  0.75768  0.48688  1.0000
  O   O45       1.0  0.19148999999999997  0.75573  0.49427  1.0000
  O   O46       1.0  0.2524999999999999  0.6949000000000002  0.49331  1.0000
  O   O47       1.0  0.9916199999999997  0.75403  0.56312  1.0000
  O   O48       1.0  0.9859100000000002  0.69561  0.56427  1.0000
  O   O49       1.0  0.4857199999999997  0.69146  0.25525  1.0000
  O   O50       1.0  0.48493999999999987  0.7524100000000002  0.19434  1.0000
  O   O51       1.0  0.4928099999999999  0.75024  0.06279  1.0000
  O   O52       1.0  0.48688  0.69236  0.06314  1.0000
  O   O53       1.0  0.49427000000000004  0.55853  0.19151  1.0000
  O   O54       1.0  0.49329999999999996  0.55927  0.25251  1.0000
  O   O55       1.0  0.5631799999999999  0.69122  0.99162  1.0000
  O   O56       1.0  0.5642399999999999  0.75427  0.9859  1.0000
  O   O57       1.0  0.6914999999999999  0.4857000000000001  0.56759  1.0000
  O   O58       1.0  0.75243  0.4849300000000001  0.56829  1.0000
  O   O59       1.0  0.75023  0.49280999999999986  0.6941300000000002  1.0000
  O   O60       1.0  0.6923300000000001  0.48688999999999993  0.75766  1.0000
  O   O61       1.0  0.5584899999999999  0.49426  0.75575  1.0000
  O   O62       1.0  0.5593099999999999  0.4933  0.69493  1.0000
  O   O63       1.0  0.6912199999999998  0.56313  0.75404  1.0000
  O   O64       1.0  0.7542700000000001  0.56423  0.69559  1.0000
  O   O65       1.0  0.2552699999999999  0.69148  0.56755  1.0000
  O   O66       1.0  0.19434999999999983  0.75243  0.56829  1.0000
  O   O67       1.0  0.06280999999999998  0.75024  0.69414  1.0000
  O   O68       1.0  0.06310000000000004  0.69234  0.75768  1.0000
  O   O69       1.0  0.19148999999999985  0.5584800000000002  0.75576  1.0000
  O   O70       1.0  0.2525099999999999  0.55928  0.69491  1.0000
  O   O71       1.0  0.99163  0.6912000000000001  0.75401  1.0000
  O   O72       1.0  0.9859199999999995  0.7542500000000001  0.69557  1.0000
  O   O73       1.0  0.5675500000000001  0.48571000000000003  0.25526  1.0000
  O   O74       1.0  0.5683299999999997  0.4849300000000001  0.19437  1.0000
  O   O75       1.0  0.69416  0.49279999999999996  0.06284  1.0000
  O   O76       1.0  0.7576799999999999  0.48686999999999997  0.06309  1.0000
  O   O77       1.0  0.7557399999999999  0.49427  0.19148  1.0000
  O   O78       1.0  0.6948999999999999  0.4933100000000001  0.25249  1.0000
  O   O79       1.0  0.7540399999999999  0.5631300000000001  0.99161  1.0000
  O   O80       1.0  0.6956100000000001  0.56427  0.9859  1.0000
  O   O81       1.0  0.6914699999999997  0.25524  0.48572  1.0000
  O   O82       1.0  0.75241  0.19434  0.48494  1.0000
  O   O83       1.0  0.7502399999999999  0.06279999999999998  0.4928  1.0000
  O   O84       1.0  0.6923600000000001  0.06313999999999999  0.48687  1.0000
  O   O85       1.0  0.5585300000000001  0.19150999999999999  0.49426  1.0000
  O   O86       1.0  0.5592799999999998  0.25251  0.4933000000000001  1.0000
  O   O87       1.0  0.6912299999999999  0.99162  0.56317  1.0000
  O   O88       1.0  0.75428  0.9859  0.56423  1.0000
  O   O89       1.0  0.4857099999999998  0.56759  0.6915  1.0000
  O   O90       1.0  0.48494  0.56828  0.75243  1.0000
  O   O91       1.0  0.49282  0.69413  0.7502300000000002  1.0000
  O   O92       1.0  0.4868999999999999  0.7576599999999999  0.69233  1.0000
  O   O93       1.0  0.4942699999999999  0.75576  0.55848  1.0000
  O   O94       1.0  0.49330999999999975  0.6949299999999999  0.55931  1.0000
  O   O95       1.0  0.56314  0.75403  0.69121  1.0000
  O   O96       1.0  0.5642399999999997  0.69559  0.75427  1.0000
  O   O97       1.0  0.014300000000000044  0.93246  0.24473  1.0000
  O   O98       1.0  0.015080000000000073  0.9316599999999999  0.30563  1.0000
  O   O99       1.0  0.0072100000000000055  0.80583  0.43715  1.0000
  O   O100      1.0  0.013130000000000001  0.74231  0.43692  1.0000
  O   O101      1.0  0.005729999999999959  0.7442700000000001  0.30852  1.0000
  O   O102      1.0  0.006700000000000024  0.8051  0.24751  1.0000
  O   O103      1.0  0.9368799999999999  0.74597  0.50838  1.0000
  O   O104      1.0  0.9357400000000002  0.80439  0.51409  1.0000
  O   O105      1.0  0.8085299999999996  0.24473000000000003  0.93246  1.0000
  O   O106      1.0  0.74759  0.30566  0.93171  1.0000
  O   O107      1.0  0.7497599999999999  0.43719  0.80585  1.0000
  O   O108      1.0  0.8076599999999999  0.43690999999999997  0.74232  1.0000
  O   O109      1.0  0.94152  0.30851  0.74425  1.0000
  O   O110      1.0  0.9407300000000002  0.24748999999999996  0.80509  1.0000
  O   O111      1.0  0.8088000000000001  0.50837  0.74599  1.0000
  O   O112      1.0  0.74575  0.51408  0.80442  1.0000
  O   O113      1.0  0.9324200000000001  0.014299999999999967  0.8085  1.0000
  O   O114      1.0  0.93171  0.015070000000000005  0.74758  1.0000
  O   O115      1.0  0.8058699999999999  0.007189999999999985  0.74978  1.0000
  O   O116      1.0  0.7423400000000002  0.013109999999999953  0.80767  1.0000
  O   O117      1.0  0.74425  0.0057399999999999465  0.94151  1.0000
  O   O118      1.0  0.8050700000000001  0.0066999999999999855  0.94069  1.0000
  O   O119      1.0  0.7459800000000001  0.93687  0.80878  1.0000
  O   O120      1.0  0.8044199999999999  0.9357700000000001  0.74573  1.0000
  O   O121      1.0  0.24475999999999984  0.80853  0.01428  1.0000
  O   O122      1.0  0.30566999999999994  0.74759  0.01506  1.0000
  O   O123      1.0  0.43720000000000003  0.74976  0.0072  1.0000
  O   O124      1.0  0.4368699999999999  0.80764  0.01312  1.0000
  O   O125      1.0  0.30849999999999994  0.94147  0.00574  1.0000
  O   O126      1.0  0.24749  0.94073  0.00671  1.0000
  O   O127      1.0  0.5083799999999999  0.80877  0.93683  1.0000
  O   O128      1.0  0.51411  0.7457300000000002  0.93578  1.0000
  O   O129      1.0  0.014279999999999994  0.24475999999999998  0.80854  1.0000
  O   O130      1.0  0.015070000000000035  0.30567  0.74759  1.0000
  O   O131      1.0  0.007199999999999969  0.43721000000000004  0.74975  1.0000
  O   O132      1.0  0.013130000000000001  0.43686  0.80764  1.0000
  O   O133      1.0  0.005739999999999996  0.3084899999999999  0.9414700000000003  1.0000
  O   O134      1.0  0.006709999999999895  0.24749000000000002  0.9407300000000001  1.0000
  O   O135      1.0  0.9368299999999997  0.5083800000000003  0.80878  1.0000
  O   O136      1.0  0.9357699999999999  0.5141  0.74573  1.0000
  O   O137      1.0  0.8085099999999996  0.93241  0.014300000000000002  1.0000
  O   O138      1.0  0.7475799999999999  0.93171  0.015070000000000004  1.0000
  O   O139      1.0  0.7497799999999997  0.8058700000000002  0.00719  1.0000
  O   O140      1.0  0.8076699999999997  0.74234  0.013110000000000002  1.0000
  O   O141      1.0  0.94152  0.74425  0.00574  1.0000
  O   O142      1.0  0.94069  0.80507  0.0067  1.0000
  O   O143      1.0  0.80879  0.7459600000000001  0.93687  1.0000
  O   O144      1.0  0.74574  0.8044100000000003  0.93577  1.0000
  O   O145      1.0  0.9324599999999995  0.80852  0.24473  1.0000
  O   O146      1.0  0.93171  0.74758  0.30566  1.0000
  O   O147      1.0  0.8058599999999997  0.74975  0.4372  1.0000
  O   O148      1.0  0.7423299999999998  0.80766  0.4369  1.0000
  O   O149      1.0  0.7442600000000001  0.9415099999999998  0.30851  1.0000
  O   O150      1.0  0.8050999999999999  0.94073  0.24749000000000004  1.0000
  O   O151      1.0  0.74599  0.8088  0.50837  1.0000
  O   O152      1.0  0.8044299999999999  0.74575  0.51408  1.0000
  O   O153      1.0  0.24474000000000004  0.014300000000000021  0.93246  1.0000
  O   O154      1.0  0.30563999999999997  0.015079999999999984  0.93166  1.0000
  O   O155      1.0  0.43716  0.007199999999999965  0.80584  1.0000
  O   O156      1.0  0.43690999999999997  0.013119999999999988  0.74232  1.0000
  O   O157      1.0  0.30851999999999996  0.005729999999999967  0.74427  1.0000
  O   O158      1.0  0.24750999999999987  0.006689999999999951  0.8051  1.0000
  O   O159      1.0  0.5083900000000001  0.93688  0.74596  1.0000
  O   O160      1.0  0.5141  0.93573  0.80439  1.0000
  O   O161      1.0  0.014299999999999948  0.8085000000000002  0.93241  1.0000
  O   O162      1.0  0.015069999999999846  0.74757  0.9317200000000002  1.0000
  O   O163      1.0  0.007189999999999979  0.74977  0.80587  1.0000
  O   O164      1.0  0.013109999999999927  0.80767  0.7423400000000002  1.0000
  O   O165      1.0  0.005739999999999901  0.9415200000000001  0.74424  1.0000
  O   O166      1.0  0.006709999999999918  0.9406800000000001  0.80507  1.0000
  O   O167      1.0  0.9368699999999999  0.8087900000000001  0.74597  1.0000
  O   O168      1.0  0.9357700000000001  0.74573  0.80441  1.0000
  O   O169      1.0  0.8085399999999998  0.014279999999999994  0.24476000000000006  1.0000
  O   O170      1.0  0.7475899999999999  0.015059999999999997  0.30566  1.0000
  O   O171      1.0  0.74976  0.007199999999999992  0.4372  1.0000
  O   O172      1.0  0.8076399999999999  0.013130000000000022  0.43686  1.0000
  O   O173      1.0  0.9414799999999999  0.005740000000000001  0.30849  1.0000
  O   O174      1.0  0.94073  0.0066999999999999855  0.24749000000000004  1.0000
  O   O175      1.0  0.80878  0.93683  0.50838  1.0000
  O   O176      1.0  0.7457299999999998  0.93577  0.5141  1.0000
  O   O177      1.0  0.9324599999999997  0.24474000000000004  0.01429  1.0000
  O   O178      1.0  0.9316699999999999  0.30563  0.015070000000000004  1.0000
  O   O179      1.0  0.80584  0.4371500000000001  0.0072  1.0000
  O   O180      1.0  0.7423199999999999  0.43691  0.01312  1.0000
  O   O181      1.0  0.74427  0.30852  0.00573  1.0000
  O   O182      1.0  0.8050999999999999  0.24751000000000004  0.00669  1.0000
  O   O183      1.0  0.7459699999999999  0.50839  0.93687  1.0000
  O   O184      1.0  0.8044  0.5141  0.93573  1.0000
  O   O185      1.0  0.24475000000000005  0.93245  0.8085200000000001  1.0000
  O   O186      1.0  0.30567  0.9317100000000001  0.74757  1.0000
  O   O187      1.0  0.43720000000000003  0.80586  0.74975  1.0000
  O   O188      1.0  0.4369100000000001  0.74232  0.80766  1.0000
  O   O189      1.0  0.30851999999999996  0.7442399999999999  0.9415200000000002  1.0000
  O   O190      1.0  0.24749999999999997  0.8050899999999999  0.94072  1.0000
  O   O191      1.0  0.50838  0.7459899999999999  0.8088000000000001  1.0000
  O   O192      1.0  0.5140900000000002  0.80443  0.7457500000000001  1.0000
  O   O193      1.0  0.3085299999999999  0.43246  0.74473  1.0000
  O   O194      1.0  0.24758999999999998  0.4317099999999999  0.80566  1.0000
  O   O195      1.0  0.24976999999999985  0.30586  0.93719  1.0000
  O   O196      1.0  0.30765999999999993  0.24232000000000006  0.93691  1.0000
  O   O197      1.0  0.44151999999999963  0.24425000000000002  0.80851  1.0000
  O   O198      1.0  0.44073  0.30509  0.74749  1.0000
  O   O199      1.0  0.3088  0.24599  0.00837  1.0000
  O   O200      1.0  0.24574999999999997  0.30442  0.01408  1.0000
  O   O201      1.0  0.5142999999999998  0.74473  0.43246  1.0000
  O   O202      1.0  0.5150699999999998  0.80563  0.43167  1.0000
  O   O203      1.0  0.50721  0.9371499999999999  0.30583  1.0000
  O   O204      1.0  0.51313  0.93691  0.24231000000000005  1.0000
  O   O205      1.0  0.50573  0.80852  0.24427000000000004  1.0000
  O   O206      1.0  0.5067  0.74751  0.3051  1.0000
  O   O207      1.0  0.43687  0.008379999999999999  0.24597  1.0000
  O   O208      1.0  0.43573999999999996  0.01408999999999998  0.30439000000000005  1.0000
  O   O209      1.0  0.7447599999999998  0.51428  0.30854  1.0000
  O   O210      1.0  0.80567  0.51506  0.24759  1.0000
  O   O211      1.0  0.9372  0.5072  0.24976  1.0000
  O   O212      1.0  0.9368699999999999  0.51312  0.30764  1.0000
  O   O213      1.0  0.8085  0.50574  0.44147  1.0000
  O   O214      1.0  0.74749  0.50671  0.44073  1.0000
  O   O215      1.0  0.008380000000000049  0.43682999999999994  0.30877  1.0000
  O   O216      1.0  0.01409999999999997  0.43578000000000017  0.24573  1.0000
  O   O217      1.0  0.43241999999999997  0.30851000000000006  0.51429  1.0000
  O   O218      1.0  0.43171000000000004  0.24758  0.51506  1.0000
  O   O219      1.0  0.3058699999999999  0.24978  0.50719  1.0000
  O   O220      1.0  0.24234000000000003  0.30767  0.51311  1.0000
  O   O221      1.0  0.2442499999999999  0.44151999999999997  0.50574  1.0000
  O   O222      1.0  0.30508  0.44068999999999997  0.5067  1.0000
  O   O223      1.0  0.24597999999999998  0.30879  0.43687  1.0000
  O   O224      1.0  0.30440999999999996  0.24573  0.43577  1.0000
  O   O225      1.0  0.43246  0.74473  0.30853  1.0000
  O   O226      1.0  0.43171000000000004  0.80566  0.24758  1.0000
  O   O227      1.0  0.3058600000000001  0.9372  0.24975  1.0000
  O   O228      1.0  0.24232999999999977  0.9368999999999998  0.30766  1.0000
  O   O229      1.0  0.24426000000000014  0.8085099999999998  0.44151  1.0000
  O   O230      1.0  0.3051  0.74749  0.44073  1.0000
  O   O231      1.0  0.24598999999999996  0.008369999999999992  0.3088  1.0000
  O   O232      1.0  0.3044200000000001  0.014079999999999999  0.24575  1.0000
  O   O233      1.0  0.74474  0.43245999999999996  0.5143  1.0000
  O   O234      1.0  0.80564  0.43166000000000004  0.51507  1.0000
  O   O235      1.0  0.93716  0.30584  0.5072  1.0000
  O   O236      1.0  0.9369100000000002  0.24231999999999998  0.51312  1.0000
  O   O237      1.0  0.8085199999999999  0.24426999999999996  0.50573  1.0000
  O   O238      1.0  0.7475099999999995  0.3051  0.50669  1.0000
  O   O239      1.0  0.00838  0.24595999999999998  0.43688000000000005  1.0000
  O   O240      1.0  0.014099999999999948  0.30439000000000005  0.43573  1.0000
  O   O241      1.0  0.5142800000000001  0.30854  0.74475  1.0000
  O   O242      1.0  0.5150699999999998  0.24759000000000003  0.80566  1.0000
  O   O243      1.0  0.5072  0.24975999999999998  0.9372  1.0000
  O   O244      1.0  0.51313  0.30763999999999997  0.93686  1.0000
  O   O245      1.0  0.50574  0.44147000000000003  0.80849  1.0000
  O   O246      1.0  0.50671  0.44073000000000007  0.74749  1.0000
  O   O247      1.0  0.43682999999999994  0.30878  0.00837  1.0000
  O   O248      1.0  0.43576999999999994  0.24573  0.0141  1.0000
  O   O249      1.0  0.30851  0.5143  0.43241  1.0000
  O   O250      1.0  0.24758  0.51507  0.43171  1.0000
  O   O251      1.0  0.24978000000000003  0.50719  0.30587  1.0000
  O   O252      1.0  0.3076699999999997  0.51311  0.24234  1.0000
  O   O253      1.0  0.44152  0.50574  0.24425  1.0000
  O   O254      1.0  0.44069  0.5067  0.30507  1.0000
  O   O255      1.0  0.30878999999999995  0.43687  0.24596  1.0000
  O   O256      1.0  0.24574  0.43576999999999994  0.30441  1.0000
  O   O257      1.0  0.74474  0.30852  0.43245  1.0000
  O   O258      1.0  0.8056599999999997  0.24756999999999996  0.43171  1.0000
  O   O259      1.0  0.93719  0.24975999999999998  0.30586  1.0000
  O   O260      1.0  0.93691  0.30766  0.24232  1.0000
  O   O261      1.0  0.80852  0.4415200000000001  0.24424  1.0000
  O   O262      1.0  0.7474999999999999  0.44072  0.3050900000000001  1.0000
  O   O263      1.0  0.008370000000000011  0.30879999999999996  0.24599  1.0000
  O   O264      1.0  0.014080000000000016  0.24574999999999997  0.30443  1.0000
  O   O265      1.0  0.43245999999999973  0.51429  0.74474  1.0000
  O   O266      1.0  0.4316700000000003  0.5150699999999999  0.80563  1.0000
  O   O267      1.0  0.30583999999999995  0.5072000000000001  0.93716  1.0000
  O   O268      1.0  0.24232000000000004  0.51313  0.93691  1.0000
  O   O269      1.0  0.24426999999999993  0.50573  0.8085200000000001  1.0000
  O   O270      1.0  0.30511  0.5066900000000001  0.74751  1.0000
  O   O271      1.0  0.24596999999999994  0.43687  0.00839  1.0000
  O   O272      1.0  0.30438999999999994  0.43573  0.0141  1.0000
  O   O273      1.0  0.30854000000000004  0.74476  0.51428  1.0000
  O   O274      1.0  0.24759999999999974  0.80566  0.51506  1.0000
  O   O275      1.0  0.24976000000000004  0.9372  0.5072  1.0000
  O   O276      1.0  0.30765000000000003  0.93686  0.51312  1.0000
  O   O277      1.0  0.44148000000000004  0.80849  0.50574  1.0000
  O   O278      1.0  0.44073  0.74749  0.5067  1.0000
  O   O279      1.0  0.3087799999999999  0.008379999999999973  0.4368300000000001  1.0000
  O   O280      1.0  0.24573  0.014099999999999986  0.43577  1.0000
  O   O281      1.0  0.5143  0.43240999999999996  0.3085  1.0000
  O   O282      1.0  0.5150699999999998  0.43171999999999994  0.24757  1.0000
  O   O283      1.0  0.50719  0.30587  0.24977  1.0000
  O   O284      1.0  0.5131099999999998  0.24234  0.30767  1.0000
  O   O285      1.0  0.50574  0.24424  0.44152  1.0000
  O   O286      1.0  0.5066999999999999  0.30507  0.44068  1.0000
  O   O287      1.0  0.4368699999999999  0.24597000000000008  0.30879  1.0000
  O   O288      1.0  0.43576999999999994  0.30441  0.24573  1.0000
  O   O289      1.0  0.9857099999999996  0.06753999999999998  0.7552700000000001  1.0000
  O   O290      1.0  0.9849299999999999  0.06833999999999998  0.69437  1.0000
  O   O291      1.0  0.9928  0.19417  0.56285  1.0000
  O   O292      1.0  0.98688  0.25769  0.56308  1.0000
  O   O293      1.0  0.9942699999999999  0.25573  0.69148  1.0000
  O   O294      1.0  0.9933099999999997  0.19489999999999996  0.75249  1.0000
  O   O295      1.0  0.06312999999999992  0.25403  0.4916200000000001  1.0000
  O   O296      1.0  0.06426999999999997  0.19561000000000003  0.48591  1.0000
  O   O297      1.0  0.19147999999999998  0.75527  0.06754  1.0000
  O   O298      1.0  0.25242000000000003  0.69434  0.06829  1.0000
  O   O299      1.0  0.25023999999999996  0.56281  0.19414  1.0000
  O   O300      1.0  0.19234  0.56309  0.25768  1.0000
  O   O301      1.0  0.05849000000000004  0.69148  0.25575  1.0000
  O   O302      1.0  0.059279999999999965  0.75251  0.19491  1.0000
  O   O303      1.0  0.19120000000000004  0.49163000000000007  0.25401  1.0000
  O   O304      1.0  0.25424999999999975  0.48591999999999996  0.19558  1.0000
  O   O305      1.0  0.0675899999999999  0.9857000000000001  0.19149000000000002  1.0000
  O   O306      1.0  0.06829000000000002  0.98493  0.25242  1.0000
  O   O307      1.0  0.1941399999999998  0.9928100000000001  0.25022  1.0000
  O   O308      1.0  0.25766000000000006  0.9868899999999999  0.19233000000000003  1.0000
  O   O309      1.0  0.25576000000000004  0.99426  0.05848  1.0000
  O   O310      1.0  0.19492999999999994  0.9933000000000001  0.05931  1.0000
  O   O311      1.0  0.2540299999999999  0.06312999999999999  0.19121000000000002  1.0000
  O   O312      1.0  0.19558999999999999  0.06422999999999998  0.25427  1.0000
  O   O313      1.0  0.75525  0.19146999999999997  0.98572  1.0000
  O   O314      1.0  0.6943400000000001  0.25241  0.98494  1.0000
  O   O315      1.0  0.5628099999999999  0.25023999999999996  0.9928  1.0000
  O   O316      1.0  0.5631399999999998  0.19235999999999998  0.9868800000000002  1.0000
  O   O317      1.0  0.6915099999999998  0.05853000000000004  0.99426  1.0000
  O   O318      1.0  0.7525099999999998  0.059270000000000024  0.99329  1.0000
  O   O319      1.0  0.49162  0.19123  0.06317  1.0000
  O   O320      1.0  0.4859  0.25427  0.06422  1.0000
  O   O321      1.0  0.98572  0.75524  0.19146  1.0000
  O   O322      1.0  0.9849399999999994  0.69433  0.25241  1.0000
  O   O323      1.0  0.9928099999999999  0.56279  0.25024  1.0000
  O   O324      1.0  0.98688  0.56314  0.19236  1.0000
  O   O325      1.0  0.9942699999999999  0.69151  0.05853000000000001  1.0000
  O   O326      1.0  0.9932999999999996  0.75251  0.05927  1.0000
  O   O327      1.0  0.06317000000000002  0.49162  0.19122  1.0000
  O   O328      1.0  0.06423  0.4859  0.25427  1.0000
  O   O329      1.0  0.19150000000000006  0.06758999999999998  0.9857  1.0000
  O   O330      1.0  0.25242999999999993  0.06829  0.98493  1.0000
  O   O331      1.0  0.2502299999999999  0.1941299999999999  0.9928100000000002  1.0000
  O   O332      1.0  0.19232999999999997  0.25766  0.98689  1.0000
  O   O333      1.0  0.058489999999999855  0.25575000000000003  0.99426  1.0000
  O   O334      1.0  0.059310000000000015  0.19493000000000002  0.9933  1.0000
  O   O335      1.0  0.19121  0.25404  0.06313  1.0000
  O   O336      1.0  0.25427  0.19559  0.06423  1.0000
  O   O337      1.0  0.06754999999999996  0.19148  0.7552700000000001  1.0000
  O   O338      1.0  0.0683  0.25242000000000003  0.69434  1.0000
  O   O339      1.0  0.19414000000000003  0.2502499999999999  0.5628  1.0000
  O   O340      1.0  0.25767999999999996  0.19233999999999998  0.5631  1.0000
  O   O341      1.0  0.25575000000000003  0.05849000000000001  0.69149  1.0000
  O   O342      1.0  0.19491  0.059270000000000024  0.75251  1.0000
  O   O343      1.0  0.25400999999999985  0.19120000000000004  0.49163  1.0000
  O   O344      1.0  0.19558  0.25425  0.48592  1.0000
  O   O345      1.0  0.7552699999999999  0.9857000000000001  0.06754  1.0000
  O   O346      1.0  0.6943700000000002  0.9849199999999999  0.06834  1.0000
  O   O347      1.0  0.5628500000000001  0.9928  0.19416  1.0000
  O   O348      1.0  0.5630999999999999  0.9868799999999999  0.25768  1.0000
  O   O349      1.0  0.6914899999999999  0.9942700000000001  0.25573  1.0000
  O   O350      1.0  0.7525  0.99331  0.1949  1.0000
  O   O351      1.0  0.49162  0.06312  0.25404  1.0000
  O   O352      1.0  0.48591  0.06427  0.19561  1.0000
  O   O353      1.0  0.9856999999999999  0.1915  0.06759  1.0000
  O   O354      1.0  0.9849399999999999  0.25243  0.06828  1.0000
  O   O355      1.0  0.9928099999999999  0.25023  0.19413  1.0000
  O   O356      1.0  0.98689  0.19232999999999997  0.25766  1.0000
  O   O357      1.0  0.9942599999999999  0.058480000000000004  0.25576  1.0000
  O   O358      1.0  0.9932999999999998  0.05932  0.19493  1.0000
  O   O359      1.0  0.06313  0.19120999999999996  0.25403  1.0000
  O   O360      1.0  0.06423000000000001  0.25427  0.19559  1.0000
  O   O361      1.0  0.1914699999999999  0.98572  0.75524  1.0000
  O   O362      1.0  0.2524099999999999  0.9849400000000004  0.69434  1.0000
  O   O363      1.0  0.25024999999999964  0.9928  0.5628  1.0000
  O   O364      1.0  0.1923599999999999  0.9868700000000001  0.5631400000000001  1.0000
  O   O365      1.0  0.05853  0.99426  0.69151  1.0000
  O   O366      1.0  0.059279999999999965  0.9933000000000001  0.75251  1.0000
  O   O367      1.0  0.19122999999999993  0.06316999999999998  0.4916200000000001  1.0000
  O   O368      1.0  0.25427  0.06423000000000001  0.4859  1.0000
  O   O369      1.0  0.06754999999999989  0.7552600000000002  0.9857100000000002  1.0000
  O   O370      1.0  0.06833999999999991  0.6943700000000002  0.98493  1.0000
  O   O371      1.0  0.19417  0.5628499999999999  0.9928  1.0000
  O   O372      1.0  0.2576899999999998  0.56309  0.9868800000000002  1.0000
  O   O373      1.0  0.2557400000000001  0.69148  0.99427  1.0000
  O   O374      1.0  0.19490000000000005  0.75249  0.99331  1.0000
  O   O375      1.0  0.25403  0.49161  0.06313  1.0000
  O   O376      1.0  0.19561  0.48590000000000005  0.06427  1.0000
  O   O377      1.0  0.7552599999999999  0.06755  0.19148  1.0000
  O   O378      1.0  0.69434  0.06829000000000005  0.25243  1.0000
  O   O379      1.0  0.56281  0.19413999999999998  0.25024  1.0000
  O   O380      1.0  0.5630999999999998  0.25768  0.19234  1.0000
  O   O381      1.0  0.6914900000000002  0.25576  0.05848  1.0000
  O   O382      1.0  0.7524999999999998  0.19491  0.05928  1.0000
  O   O383      1.0  0.49163  0.25401  0.1912  1.0000
  O   O384      1.0  0.4859200000000001  0.19557  0.25425  1.0000
