data_image0
_chemical_formula_structural       Cu12H232C360N32O48
_chemical_formula_sum              "Cu12 H232 C360 N32 O48"
_cell_length_a       20.98004
_cell_length_b       20.97467
_cell_length_c       40.72165
_cell_angle_alpha    104.99585
_cell_angle_beta     104.98717
_cell_angle_gamma    89.28599999999999

_space_group_name_H-M_alt    "P 1"
_space_group_IT_number       1

loop_
  _space_group_symop_operation_xyz
  'x, y, z'

loop_
  _atom_site_type_symbol
  _atom_site_label
  _atom_site_symmetry_multiplicity
  _atom_site_fract_x
  _atom_site_fract_y
  _atom_site_fract_z
  _atom_site_occupancy
  Cu  Cu1       1.0  0.68673  0.7594699999999999  0.82699  1.0000
  Cu  Cu2       1.0  0.3465900000000001  0.81965  0.79274  1.0000
  Cu  Cu3       1.0  0.5310899999999998  0.7559099999999997  0.81405  1.0000
  Cu  Cu4       1.0  0.31584  0.89152  0.32771  1.0000
  Cu  Cu5       1.0  0.21992  0.19669  0.29206  1.0000
  Cu  Cu6       1.0  0.30517  0.03229999999999996  0.31389  1.0000
  Cu  Cu7       1.0  0.24059  0.31382  0.17307  1.0000
  Cu  Cu8       1.0  0.17935999999999996  0.6531799999999999  0.20695  1.0000
  Cu  Cu9       1.0  0.2446  0.46907  0.18596  1.0000
  Cu  Cu10      1.0  0.10875  0.68283  0.67234  1.0000
  Cu  Cu11      1.0  0.8033599999999999  0.78019  0.70813  1.0000
  Cu  Cu12      1.0  0.9659599999999999  0.69255  0.6859  1.0000
  H   H1        1.0  0.8539899999999998  0.03103000000000001  0.13343  1.0000
  H   H2        1.0  0.48718  0.0227  0.28892  1.0000
  H   H3        1.0  0.7385099999999998  0.00549  0.09846  1.0000
  H   H4        1.0  0.8228399999999999  0.92875  0.13528  1.0000
  H   H5        1.0  0.12817  0.006440000000000004  0.25661  1.0000
  H   H6        1.0  0.11652999999999997  0.8087499999999997  0.26796  1.0000
  H   H7        1.0  0.41321  0.82057  0.24321  1.0000
  H   H8        1.0  0.60184  0.8092399999999998  0.12459  1.0000
  H   H9        1.0  0.59161  0.90356  0.88773  1.0000
  H   H10       1.0  0.5442699999999998  0.7840099999999998  0.9214499999999999  1.0000
  H   H11       1.0  0.35702999999999996  0.21991999999999995  0.23680999999999996  1.0000
  H   H12       1.0  0.73948  0.9482599999999999  0.20902  1.0000
  H   H13       1.0  0.5691599999999999  0.005469999999999992  0.25376  1.0000
  H   H14       1.0  0.49386  0.8028999999999998  0.20694  1.0000
  H   H15       1.0  0.99958  0.79454  0.23308999999999996  1.0000
  H   H16       1.0  0.43340999999999996  0.20776  0.19842  1.0000
  H   H17       1.0  0.74824  0.74445  0.92974  1.0000
  H   H18       1.0  0.63543  0.95768  0.95156  1.0000
  H   H19       1.0  0.43971  0.99965  0.19287  1.0000
  H   H20       1.0  0.80008  0.716  0.87666  1.0000
  H   H21       1.0  0.52018  0.8262099999999999  0.15968  1.0000
  H   H22       1.0  0.78387  0.8241699999999998  0.80333  1.0000
  H   H23       1.0  0.39615999999999996  0.89543  0.90087  1.0000
  H   H24       1.0  0.54813  0.026820000000000004  0.19749  1.0000
  H   H25       1.0  0.90171  0.8156199999999999  0.80429  1.0000
  H   H26       1.0  0.92184  0.7044800000000001  0.88196  1.0000
  H   H27       1.0  0.65924  0.96273  0.24463999999999997  1.0000
  H   H28       1.0  0.5290999999999999  0.14796  0.10587  1.0000
  H   H29       1.0  0.63108  0.01457999999999999  0.16326  1.0000
  H   H30       1.0  0.61208  0.8859999999999999  0.03717  1.0000
  H   H31       1.0  0.9405599999999998  0.94254  0.16993  1.0000
  H   H32       1.0  0.4378  0.9524499999999999  0.96414  1.0000
  H   H33       1.0  0.77809  0.81207  0.19973  1.0000
  H   H34       1.0  0.8957  0.82513  0.23443  1.0000
  H   H35       1.0  0.10829999999999998  0.72292  0.77283  1.0000
  H   H36       1.0  0.7601699999999999  0.74195  0.04201  1.0000
  H   H37       1.0  0.36600999999999995  0.013600000000000011  0.23278000000000001  1.0000
  H   H38       1.0  0.44603  0.16132  0.14076  1.0000
  H   H39       1.0  0.48604  0.9439199999999999  0.01482  1.0000
  H   H40       1.0  0.20691  0.82404  0.8809100000000001  1.0000
  H   H41       1.0  0.8777  0.17848999999999998  0.24211  1.0000
  H   H42       1.0  0.67952  0.17264  0.16864  1.0000
  H   H43       1.0  0.20626  0.75435  0.75599  1.0000
  H   H44       1.0  0.30089  0.8543699999999999  0.8586799999999999  1.0000
  H   H45       1.0  0.6518  0.04034999999999995  0.9993199999999999  1.0000
  H   H46       1.0  0.06313  0.10271  0.18969  1.0000
  H   H47       1.0  0.7712600000000001  0.7722500000000001  0.9948400000000001  1.0000
  H   H48       1.0  0.6341699999999999  0.9155399999999999  0.10178  1.0000
  H   H49       1.0  0.79491  0.19809999999999997  0.2037  1.0000
  H   H50       1.0  0.78355  0.7731299999999998  0.10696  1.0000
  H   H51       1.0  0.69175  0.08864999999999999  0.0632  1.0000
  H   H52       1.0  0.009910000000000023  0.99359  0.22274  1.0000
  H   H53       1.0  0.9483  0.08266000000000001  0.15205  1.0000
  H   H54       1.0  0.99341  0.20144  0.27889  1.0000
  H   H55       1.0  0.52542  0.99279  0.07851  1.0000
  H   H56       1.0  0.56615  0.8103099999999999  0.98649  1.0000
  H   H57       1.0  0.04381999999999997  0.8199999999999997  0.79394  1.0000
  H   H58       1.0  0.98452  0.76023  0.77447  1.0000
  H   H59       1.0  0.35302  0.028100000000000024  0.63374  1.0000
  H   H60       1.0  0.5165  0.54948  0.78876  1.0000
  H   H61       1.0  0.34286  0.10914000000000004  0.59881  1.0000
  H   H62       1.0  0.4568  0.06154999999999997  0.63493  1.0000
  H   H63       1.0  0.49972999999999995  0.87757  0.75718  1.0000
  H   H64       1.0  0.7082799999999998  0.90068  0.76809  1.0000
  H   H65       1.0  0.67292  0.57826  0.74283  1.0000
  H   H66       1.0  0.56528  0.27217  0.62395  1.0000
  H   H67       1.0  0.23155999999999993  0.04552999999999996  0.38856  1.0000
  H   H68       1.0  0.3868  0.12848000000000004  0.42133  1.0000
  H   H69       1.0  0.26952  0.62928  0.73781  1.0000
  H   H70       1.0  0.51079  0.21813999999999995  0.70855  1.0000
  H   H71       1.0  0.4986  0.43263999999999997  0.75343  1.0000
  H   H72       1.0  0.65429  0.46172  0.70642  1.0000
  H   H73       1.0  0.68773  0.9828  0.73312  1.0000
  H   H74       1.0  0.2421  0.51565  0.69863  1.0000
  H   H75       1.0  0.43375  0.93234  0.42925  1.0000
  H   H76       1.0  0.24290999999999993  0.06657999999999996  0.45263999999999993  1.0000
  H   H77       1.0  0.44406  0.50263  0.69213  1.0000
  H   H78       1.0  0.41171  0.8263299999999999  0.37732  1.0000
  H   H79       1.0  0.58381  0.38860999999999996  0.65923  1.0000
  H   H80       1.0  0.23046999999999998  0.76974  0.30417  1.0000
  H   H81       1.0  0.25290999999999997  0.2537  0.4004  1.0000
  H   H82       1.0  0.42092999999999997  0.39818  0.69735  1.0000
  H   H83       1.0  0.24055999999999997  0.6530099999999998  0.30481  1.0000
  H   H84       1.0  0.42877999999999994  0.70974  0.38231  1.0000
  H   H85       1.0  0.53241  0.33359  0.74435  1.0000
  H   H86       1.0  0.20794  0.32639  0.60666  1.0000
  H   H87       1.0  0.39814  0.2810000000000001  0.66391  1.0000
  H   H88       1.0  0.40055999999999997  0.1747  0.53692  1.0000
  H   H89       1.0  0.47723999999999994  0.97872  0.66992  1.0000
  H   H90       1.0  0.26117  0.27608  0.46405  1.0000
  H   H91       1.0  0.63728  0.17052000000000003  0.69913  1.0000
  H   H92       1.0  0.65867  0.08799000000000001  0.73421  1.0000
  H   H93       1.0  0.30037  0.4149999999999999  0.27324  1.0000
  H   H94       1.0  0.5493  0.031359999999999943  0.5414  1.0000
  H   H95       1.0  0.47094  0.61529  0.73249  1.0000
  H   H96       1.0  0.23012  0.44431999999999994  0.64077  1.0000
  H   H97       1.0  0.32055999999999996  0.27874  0.51532  1.0000
  H   H98       1.0  0.30550000000000005  0.4226  0.38112  1.0000
  H   H99       1.0  0.31611000000000006  0.11173000000000002  0.74288  1.0000
  H   H100      1.0  0.24646999999999997  0.23727  0.66985  1.0000
  H   H101      1.0  0.25239  0.30039  0.2561  1.0000
  H   H102      1.0  0.25292  0.30673  0.3585  1.0000
  H   H103      1.0  0.20817  0.09808999999999996  0.49988  1.0000
  H   H104      1.0  0.3332  0.87336  0.68932  1.0000
  H   H105      1.0  0.47157999999999994  0.9736599999999999  0.4944  1.0000
  H   H106      1.0  0.43585  0.21709999999999996  0.60153  1.0000
  H   H107      1.0  0.25706  0.15634999999999996  0.70481  1.0000
  H   H108      1.0  0.58338  0.07275000000000001  0.60637  1.0000
  H   H109      1.0  0.22351999999999994  0.1212  0.56375  1.0000
  H   H110      1.0  0.47856999999999994  0.9624099999999999  0.72339  1.0000
  H   H111      1.0  0.31841  0.9518  0.65217  1.0000
  H   H112      1.0  0.32871999999999996  0.03210000000000005  0.77946  1.0000
  H   H113      1.0  0.33541000000000004  0.30230999999999997  0.57904  1.0000
  H   H114      1.0  0.4263  0.1709  0.48638  1.0000
  H   H115      1.0  0.22565  0.5003099999999999  0.29364  1.0000
  H   H116      1.0  0.26683  0.5408  0.27474  1.0000
  H   H117      1.0  0.96897  0.14635  0.86655  1.0000
  H   H118      1.0  0.9765599999999999  0.51127  0.71084  1.0000
  H   H119      1.0  0.9943399999999999  0.2618999999999999  0.9015  1.0000
  H   H120      1.0  0.07163000000000008  0.17581000000000002  0.86489  1.0000
  H   H121      1.0  0.99271  0.8701799999999998  0.74323  1.0000
  H   H122      1.0  0.19017999999999996  0.88176  0.73174  1.0000
  H   H123      1.0  0.17866  0.58508  0.75637  1.0000
  H   H124      1.0  0.19050999999999993  0.39730000000000004  0.8753900000000001  1.0000
  H   H125      1.0  0.09632  0.408  0.11203000000000002  1.0000
  H   H126      1.0  0.21703999999999998  0.45565999999999995  0.07869  1.0000
  H   H127      1.0  0.78068  0.64334  0.76313  1.0000
  H   H128      1.0  0.051579999999999994  0.2591799999999999  0.79117  1.0000
  H   H129      1.0  0.99361  0.4296499999999999  0.74621  1.0000
  H   H130      1.0  0.1962099999999999  0.5047  0.79281  1.0000
  H   H131      1.0  0.20448000000000008  0.9988199999999998  0.76647  1.0000
  H   H132      1.0  0.7925299999999998  0.56709  0.80161  1.0000
  H   H133      1.0  0.25608  0.25159  0.07046  1.0000
  H   H134      1.0  0.04198  0.36461  0.04819  1.0000
  H   H135      1.0  0.0005800000000000226  0.56009  0.80713  1.0000
  H   H136      1.0  0.2838899999999999  0.20032  0.12348000000000002  1.0000
  H   H137      1.0  0.17291000000000004  0.47886  0.84025  1.0000
  H   H138      1.0  0.17578  0.21641999999999997  0.19682  1.0000
  H   H139      1.0  0.10405  0.6039599999999999  0.0993  1.0000
  H   H140      1.0  0.9731599999999999  0.45205  0.8025  1.0000
  H   H141      1.0  0.18426  0.09852  0.19578  1.0000
  H   H142      1.0  0.29554  0.07849  0.11818  1.0000
  H   H143      1.0  0.03636  0.33942999999999995  0.75553  1.0000
  H   H144      1.0  0.85174  0.4710799999999999  0.8940099999999999  1.0000
  H   H145      1.0  0.98515  0.36896  0.83667  1.0000
  H   H146      1.0  0.11405  0.38726999999999995  0.96278  1.0000
  H   H147      1.0  0.057179999999999925  0.058180000000000065  0.83006  1.0000
  H   H148      1.0  0.047110000000000006  0.5625399999999999  0.03594  1.0000
  H   H149      1.0  0.18811000000000003  0.22031999999999988  0.8003  1.0000
  H   H150      1.0  0.17449999999999988  0.10283  0.76547  1.0000
  H   H151      1.0  0.27576  0.8920799999999999  0.22697000000000003  1.0000
  H   H152      1.0  0.25834000000000007  0.23938000000000012  0.9582700000000001  1.0000
  H   H153      1.0  0.9869499999999999  0.6336799999999999  0.76719  1.0000
  H   H154      1.0  0.83866  0.55432  0.85919  1.0000
  H   H155      1.0  0.056110000000000014  0.51436  0.98514  1.0000
  H   H156      1.0  0.17565  0.7928  0.11879  1.0000
  H   H157      1.0  0.82174  0.12234  0.75784  1.0000
  H   H158      1.0  0.82711  0.32064  0.8313  1.0000
  H   H159      1.0  0.24401  0.79425  0.24384  1.0000
  H   H160      1.0  0.14523  0.69898  0.14108  1.0000
  H   H161      1.0  0.95947  0.34886  0.00072  1.0000
  H   H162      1.0  0.8973  0.9370099999999999  0.81041  1.0000
  H   H163      1.0  0.22753  0.22832999999999995  0.00534  1.0000
  H   H164      1.0  0.08457000000000009  0.36462  0.89815  1.0000
  H   H165      1.0  0.8018099999999999  0.20517000000000005  0.79628  1.0000
  H   H166      1.0  0.22721999999999987  0.21544  0.8933099999999999  1.0000
  H   H167      1.0  0.9111699999999998  0.30877  0.9368300000000002  1.0000
  H   H168      1.0  0.0054699999999999974  0.98857  0.77694  1.0000
  H   H169      1.0  0.9175  0.05193999999999993  0.84796  1.0000
  H   H170      1.0  0.7984699999999999  0.006549999999999967  0.72115  1.0000
  H   H171      1.0  0.0073699999999999035  0.4748199999999998  0.9214499999999999  1.0000
  H   H172      1.0  0.18977000000000002  0.43352999999999997  0.013609999999999999  1.0000
  H   H173      1.0  0.18014  0.9561499999999998  0.20613  1.0000
  H   H174      1.0  0.23927999999999996  0.01623  0.22533  1.0000
  H   H175      1.0  0.97141  0.64686  0.36654  1.0000
  H   H176      1.0  0.4501899999999999  0.48298  0.21134999999999998  1.0000
  H   H177      1.0  0.8902799999999998  0.657  0.40141  1.0000
  H   H178      1.0  0.93843  0.54312  0.36502  1.0000
  H   H179      1.0  0.12249999999999998  0.50078  0.24293  1.0000
  H   H180      1.0  0.09969000000000001  0.29213  0.23185000000000003  1.0000
  H   H181      1.0  0.42217999999999994  0.32673  0.25753  1.0000
  H   H182      1.0  0.7279699999999999  0.43494999999999995  0.37611  1.0000
  H   H183      1.0  0.95509  0.7683699999999999  0.61177  1.0000
  H   H184      1.0  0.87201  0.61295  0.57871  1.0000
  H   H185      1.0  0.37057  0.7312299999999999  0.26229  1.0000
  H   H186      1.0  0.78178  0.48919  0.29138  1.0000
  H   H187      1.0  0.5669799999999998  0.50147  0.24664  1.0000
  H   H188      1.0  0.53875  0.34574999999999995  0.29385  1.0000
  H   H189      1.0  0.017339999999999994  0.31238  0.26668  1.0000
  H   H190      1.0  0.48395  0.7586199999999999  0.30165  1.0000
  H   H191      1.0  0.06800000000000002  0.56626  0.57049  1.0000
  H   H192      1.0  0.9339299999999999  0.75717  0.54772  1.0000
  H   H193      1.0  0.49747  0.55638  0.30759  1.0000
  H   H194      1.0  0.17411  0.5875899999999998  0.62295  1.0000
  H   H195      1.0  0.6115  0.41677  0.34099  1.0000
  H   H196      1.0  0.23066  0.7687399999999999  0.69624  1.0000
  H   H197      1.0  0.74693  0.7473699999999999  0.60002  1.0000
  H   H198      1.0  0.60145  0.57948  0.30273  1.0000
  H   H199      1.0  0.34709  0.75929  0.69509  1.0000
  H   H200      1.0  0.29046  0.57097  0.61756  1.0000
  H   H201      1.0  0.66623  0.46785  0.25572  1.0000
  H   H202      1.0  0.67332  0.7921999999999999  0.39367  1.0000
  H   H203      1.0  0.71849  0.6019299999999999  0.33629  1.0000
  H   H204      1.0  0.8252000000000003  0.59915  0.46299000000000007  1.0000
  H   H205      1.0  0.021240000000000002  0.5228999999999999  0.33004  1.0000
  H   H206      1.0  0.7245199999999999  0.73914  0.53637  1.0000
  H   H207      1.0  0.8296899999999999  0.36251  0.30072  1.0000
  H   H208      1.0  0.9123  0.34132  0.2657  1.0000
  H   H209      1.0  0.5847  0.69946  0.72651  1.0000
  H   H210      1.0  0.9684999999999999  0.4503599999999999  0.45849  1.0000
  H   H211      1.0  0.38509  0.5293599999999999  0.26699  1.0000
  H   H212      1.0  0.55547  0.77031  0.35944  1.0000
  H   H213      1.0  0.7215500000000001  0.6794799999999999  0.48515  1.0000
  H   H214      1.0  0.57785  0.6944999999999999  0.61872  1.0000
  H   H215      1.0  0.88742  0.6836699999999998  0.25742  1.0000
  H   H216      1.0  0.7623199999999999  0.7535  0.33042  1.0000
  H   H217      1.0  0.69939  0.74723  0.74385  1.0000
  H   H218      1.0  0.69374  0.74687  0.64154  1.0000
  H   H219      1.0  0.90211  0.79172  0.50026  1.0000
  H   H220      1.0  0.12595  0.66695  0.31058  1.0000
  H   H221      1.0  0.026410000000000017  0.52847  0.50535  1.0000
  H   H222      1.0  0.7828899999999999  0.5638599999999999  0.39838  1.0000
  H   H223      1.0  0.84323  0.74296  0.29548  1.0000
  H   H224      1.0  0.92713  0.41624999999999995  0.39352  1.0000
  H   H225      1.0  0.87854  0.7764299999999998  0.43638  1.0000
  H   H226      1.0  0.03743  0.52174  0.27661  1.0000
  H   H227      1.0  0.04790000000000001  0.68149  0.34792  1.0000
  H   H228      1.0  0.9666299999999998  0.6710699999999999  0.22064  1.0000
  H   H229      1.0  0.6975599999999998  0.66469  0.42142  1.0000
  H   H230      1.0  0.8293  0.57354  0.51365  1.0000
  H   H231      1.0  0.4999899999999999  0.77482  0.70564  1.0000
  H   H232      1.0  0.4591199999999999  0.73458  0.72479  1.0000
  C   C1        1.0  0.8163  0.06299  0.14125  1.0000
  C   C2        1.0  0.48996999999999996  0.97456  0.27136  1.0000
  C   C3        1.0  0.75103  0.048240000000000005  0.12124999999999998  1.0000
  C   C4        1.0  0.83949  0.9062299999999999  0.15698  1.0000
  C   C5        1.0  0.09947  0.9601200000000002  0.2509  1.0000
  C   C6        1.0  0.09298  0.84887  0.25791  1.0000
  C   C7        1.0  0.67697  0.87634  0.16463  1.0000
  C   C8        1.0  0.39345  0.9358899999999999  0.28767  1.0000
  C   C9        1.0  0.44741999999999993  0.8607399999999998  0.24514000000000002  1.0000
  C   C10       1.0  0.79333  0.86984  0.16539  1.0000
  C   C11       1.0  0.71042  0.84623  0.10875999999999998  1.0000
  C   C12       1.0  0.20058  0.9175  0.28299  1.0000
  C   C13       1.0  0.61417  0.84296  0.15085  1.0000
  C   C14       1.0  0.5585099999999998  0.9149499999999998  0.9047899999999999  1.0000
  C   C15       1.0  0.14928999999999992  0.77212  0.82862  1.0000
  C   C16       1.0  0.64469  0.7618899999999998  0.92135  1.0000
  C   C17       1.0  0.59359  0.78073  0.9377099999999999  1.0000
  C   C18       1.0  0.37582  0.17200999999999997  0.22731  1.0000
  C   C19       1.0  0.6916  0.9212199999999998  0.19832  1.0000
  C   C20       1.0  0.53567  0.96446  0.25151  1.0000
  C   C21       1.0  0.49243  0.85123  0.22472  1.0000
  C   C22       1.0  0.54028  0.95877  0.96316  1.0000
  C   C23       1.0  0.027130000000000015  0.84137  0.23861  1.0000
  C   C24       1.0  0.44501999999999997  0.9229099999999999  0.26811  1.0000
  C   C25       1.0  0.9267899999999999  0.8845899999999999  0.20464  1.0000
  C   C26       1.0  0.41789  0.16471  0.20532  1.0000
  C   C27       1.0  0.4427499999999999  0.1028  0.19311  1.0000
  C   C28       1.0  0.70856  0.75822  0.94239  1.0000
  C   C29       1.0  0.5826099999999999  0.9457599999999999  0.9406299999999999  1.0000
  C   C30       1.0  0.49099  0.09525  0.1718  1.0000
  C   C31       1.0  0.7005099999999999  0.08718  0.13109  1.0000
  C   C32       1.0  0.42232  0.04816  0.2027  1.0000
  C   C33       1.0  0.8254999999999998  0.7375799999999999  0.8616099999999999  1.0000
  C   C34       1.0  0.56862  0.8522399999999999  0.17093  1.0000
  C   C35       1.0  0.09306  0.75751  0.84094  1.0000
  C   C36       1.0  0.46534  0.85742  0.8526  1.0000
  C   C37       1.0  0.6703600000000001  0.7933699999999999  0.9956200000000001  1.0000
  C   C38       1.0  0.81591  0.79795  0.82034  1.0000
  C   C39       1.0  0.03587999999999996  0.15378999999999998  0.23669999999999997  1.0000
  C   C40       1.0  0.4484  0.9097899999999999  0.91223  1.0000
  C   C41       1.0  0.63216  0.7506900000000001  0.88248  1.0000
  C   C42       1.0  0.90339  0.12903  0.19397  1.0000
  C   C43       1.0  0.12975  0.9080699999999998  0.26377  1.0000
  C   C44       1.0  0.58543  0.08082000000000002  0.1325  1.0000
  C   C45       1.0  0.5436199999999999  0.05367  0.17754  1.0000
  C   C46       1.0  0.92226  0.7593699999999999  0.8436699999999999  1.0000
  C   C47       1.0  0.5652  0.98826  0.00148  1.0000
  C   C48       1.0  0.8823099999999999  0.79338  0.82127  1.0000
  C   C49       1.0  0.9964  0.8928599999999999  0.22524000000000002  1.0000
  C   C50       1.0  0.6116999999999999  0.04434  0.0757  1.0000
  C   C51       1.0  0.8924099999999999  0.73127  0.86435  1.0000
  C   C52       1.0  0.6459999999999999  0.92946  0.21822000000000003  1.0000
  C   C53       1.0  0.9926399999999996  0.7531999999999998  0.8470999999999999  1.0000
  C   C54       1.0  0.8344  0.11594  0.17197  1.0000
  C   C55       1.0  0.53311  0.12211  0.12622  1.0000
  C   C56       1.0  0.59052  0.046659999999999986  0.15833  1.0000
  C   C57       1.0  0.64855  0.85963  0.05208  1.0000
  C   C58       1.0  0.9051899999999999  0.91378  0.1765  1.0000
  C   C59       1.0  0.47232999999999997  0.94104  0.94788  1.0000
  C   C60       1.0  0.8141299999999999  0.8400699999999999  0.19323  1.0000
  C   C61       1.0  0.88005  0.84744  0.21251000000000003  1.0000
  C   C62       1.0  0.14945999999999995  0.75209  0.79299  1.0000
  C   C63       1.0  0.7330699999999999  0.7807399999999999  0.05492  1.0000
  C   C64       1.0  0.38053  0.055589999999999994  0.2248  1.0000
  C   C65       1.0  0.48665999999999987  0.12936  0.14581  1.0000
  C   C66       1.0  0.5838699999999999  0.89456  0.20531  1.0000
  C   C67       1.0  0.68399  0.8111999999999999  0.03436  1.0000
  C   C68       1.0  0.53057  0.97663  0.02498  1.0000
  C   C69       1.0  0.20508999999999997  0.8086399999999998  0.85303  1.0000
  C   C70       1.0  0.91801  0.16288  0.23014  1.0000
  C   C71       1.0  0.3146  0.12477  0.26241  1.0000
  C   C72       1.0  0.7179  0.14134  0.16117  1.0000
  C   C73       1.0  0.20418000000000006  0.7701199999999998  0.78331  1.0000
  C   C74       1.0  0.35757  0.11762  0.23774  1.0000
  C   C75       1.0  0.25697  0.8254699999999999  0.84091  1.0000
  C   C76       1.0  0.5369900000000001  0.9031600000000001  0.22725  1.0000
  C   C77       1.0  0.62409  0.02874  0.01643  1.0000
  C   C78       1.0  0.02213  0.11939  0.20088  1.0000
  C   C79       1.0  0.72115  0.7736100000000002  0.9789000000000001  1.0000
  C   C80       1.0  0.49116  0.89562  0.89019  1.0000
  C   C81       1.0  0.6613299999999999  0.87709  0.08864  1.0000
  C   C82       1.0  0.7832299999999999  0.15506  0.18106  1.0000
  C   C83       1.0  0.74608  0.7976499999999999  0.09145  1.0000
  C   C84       1.0  0.10544999999999999  0.16826  0.25831  1.0000
  C   C85       1.0  0.6469099999999999  0.056499999999999995  0.0526  1.0000
  C   C86       1.0  0.03347999999999998  0.9525699999999997  0.23190999999999998  1.0000
  C   C87       1.0  0.95727  0.10764  0.17994  1.0000
  C   C88       1.0  0.9828799999999999  0.17539  0.25107  1.0000
  C   C89       1.0  0.55297  0.0036800000000000005  0.06119  1.0000
  C   C90       1.0  0.60633  0.7961599999999999  0.97423  1.0000
  C   C91       1.0  0.32885  0.07349999999999998  0.64172  1.0000
  C   C92       1.0  0.54712  0.52926  0.77115  1.0000
  C   C93       1.0  0.3231399999999999  0.11911999999999998  0.62175  1.0000
  C   C94       1.0  0.50077  0.06662000000000003  0.6567  1.0000
  C   C95       1.0  0.54024  0.9006099999999999  0.75136  1.0000
  C   C96       1.0  0.6582  0.91423  0.75808  1.0000
  C   C97       1.0  0.53829  0.23669  0.66411  1.0000
  C   C98       1.0  0.60226  0.64197  0.78782  1.0000
  C   C99       1.0  0.63469  0.54599  0.74483  1.0000
  C   C100      1.0  0.54543  0.12110999999999997  0.66496  1.0000
  C   C101      1.0  0.51222  0.14775999999999997  0.60831  1.0000
  C   C102      1.0  0.6158400000000002  0.8307699999999999  0.78297  1.0000
  C   C103      1.0  0.5579399999999999  0.2858199999999999  0.65029  1.0000
  C   C104      1.0  0.23775  0.09584999999999995  0.40534  1.0000
  C   C105      1.0  0.30608  0.4291  0.32899  1.0000
  C   C106      1.0  0.4082799999999999  0.027770000000000027  0.42115  1.0000
  C   C107      1.0  0.40628  0.09518000000000004  0.43753  1.0000
  C   C108      1.0  0.30743  0.60085  0.72784  1.0000
  C   C109      1.0  0.52721  0.25547  0.69788  1.0000
  C   C110      1.0  0.53735  0.4639499999999999  0.75119  1.0000
  C   C111      1.0  0.62378  0.48079  0.7243  1.0000
  C   C112      1.0  0.25361000000000006  0.17298999999999998  0.46360000000000007  1.0000
  C   C113      1.0  0.6464399999999999  0.9609  0.73877  1.0000
  C   C114      1.0  0.5955900000000001  0.57108  0.76798  1.0000
  C   C115      1.0  0.56948  0.027219999999999935  0.70468  1.0000
  C   C116      1.0  0.29222  0.53733  0.70554  1.0000
  C   C117      1.0  0.34147  0.49994  0.69296  1.0000
  C   C118      1.0  0.43301999999999996  0.9845900000000001  0.44204000000000004  1.0000
  C   C119      1.0  0.24361999999999998  0.10809999999999999  0.44132999999999994  1.0000
  C   C120      1.0  0.32722  0.4303699999999999  0.67175  1.0000
  C   C121      1.0  0.29396  0.17936999999999995  0.63181  1.0000
  C   C122      1.0  0.40569999999999995  0.52966  0.70236  1.0000
  C   C123      1.0  0.37515  0.78605  0.36219  1.0000
  C   C124      1.0  0.56895  0.35123999999999994  0.67044  1.0000
  C   C125      1.0  0.33326999999999996  0.49752999999999986  0.34143  1.0000
  C   C126      1.0  0.24218  0.13625  0.35248  1.0000
  C   C127      1.0  0.45163  0.07545  0.49529  1.0000
  C   C128      1.0  0.27381  0.75478  0.32108  1.0000
  C   C129      1.0  0.33111  0.94758  0.73668  1.0000
  C   C130      1.0  0.2504  0.21308999999999997  0.41211  1.0000
  C   C131      1.0  0.37997  0.001570000000000012  0.38242  1.0000
  C   C132      1.0  0.31561  0.03821  0.69446  1.0000
  C   C133      1.0  0.60513  0.8830699999999999  0.76406  1.0000
  C   C134      1.0  0.30139  0.29615  0.63317  1.0000
  C   C135      1.0  0.37403  0.38302  0.67761  1.0000
  C   C136      1.0  0.33584  0.67123  0.34411  1.0000
  C   C137      1.0  0.2628  0.18641999999999997  0.50199  1.0000
  C   C138      1.0  0.2796  0.68918  0.32183  1.0000
  C   C139      1.0  0.58164  0.9783099999999999  0.72549  1.0000
  C   C140      1.0  0.28092  0.21341999999999994  0.57635  1.0000
  C   C141      1.0  0.38442  0.7217  0.36477  1.0000
  C   C142      1.0  0.53912  0.32072  0.71786  1.0000
  C   C143      1.0  0.34498  0.60405  0.34749  1.0000
  C   C144      1.0  0.30698  0.08562999999999997  0.67261  1.0000
  C   C145      1.0  0.25423  0.34256999999999993  0.62681  1.0000
  C   C146      1.0  0.3614  0.3168  0.65881  1.0000
  C   C147      1.0  0.44189999999999996  0.15318999999999994  0.55179  1.0000
  C   C148      1.0  0.5125  0.02060999999999998  0.67644  1.0000
  C   C149      1.0  0.25578  0.22528  0.44794000000000006  1.0000
  C   C150      1.0  0.60283  0.12807999999999997  0.6928  1.0000
  C   C151      1.0  0.61453  0.08164999999999997  0.71232  1.0000
  C   C152      1.0  0.29094999999999993  0.39372  0.29332  1.0000
  C   C153      1.0  0.52358  0.07139999999999998  0.55442  1.0000
  C   C154      1.0  0.42091999999999996  0.59317  0.7247  1.0000
  C   C155      1.0  0.26701  0.40872  0.64602  1.0000
  C   C156      1.0  0.56115  0.37003  0.70491  1.0000
  C   C157      1.0  0.47257  0.10013  0.534  1.0000
  C   C158      1.0  0.29803  0.24421  0.52548  1.0000
  C   C159      1.0  0.2934  0.39715  0.3532  1.0000
  C   C160      1.0  0.31858  0.059440000000000014  0.73072  1.0000
  C   C161      1.0  0.38948  0.69642  0.76292  1.0000
  C   C162      1.0  0.27035  0.19156000000000004  0.66212  1.0000
  C   C163      1.0  0.26322  0.32938  0.28342  1.0000
  C   C164      1.0  0.3723  0.62904  0.73815  1.0000
  C   C165      1.0  0.26438  0.33326  0.34087  1.0000
  C   C166      1.0  0.57447  0.43866  0.72687  1.0000
  C   C167      1.0  0.23711  0.14254  0.51704  1.0000
  C   C168      1.0  0.32913  0.9257199999999999  0.70075  1.0000
  C   C169      1.0  0.45438999999999996  0.008049999999999967  0.47852  1.0000
  C   C170      1.0  0.24208  0.14822999999999995  0.39029  1.0000
  C   C171      1.0  0.46113  0.17686  0.58833  1.0000
  C   C172      1.0  0.27705  0.14580999999999997  0.68197  1.0000
  C   C173      1.0  0.54335  0.0948  0.59092  1.0000
  C   C174      1.0  0.33741  0.8993999999999999  0.75814  1.0000
  C   C175      1.0  0.24545000000000003  0.15548000000000003  0.55323  1.0000
  C   C176      1.0  0.52874  0.94789  0.73239  1.0000
  C   C177      1.0  0.32147  0.97022  0.6801  1.0000
  C   C178      1.0  0.32616999999999996  0.015149999999999985  0.7515  1.0000
  C   C179      1.0  0.30721  0.25762  0.56173  1.0000
  C   C180      1.0  0.42771999999999993  0.1185  0.47403  1.0000
  C   C181      1.0  0.93694  0.18397000000000002  0.8587300000000001  1.0000
  C   C182      1.0  0.02466000000000001  0.50852  0.72842  1.0000
  C   C183      1.0  0.95159  0.24927999999999992  0.87872  1.0000
  C   C184      1.0  0.09388000000000009  0.15916999999999998  0.84308  1.0000
  C   C185      1.0  0.03903000000000001  0.89887  0.74891  1.0000
  C   C186      1.0  0.1501  0.9053199999999999  0.74183  1.0000
  C   C187      1.0  0.12360000000000002  0.32179  0.83542  1.0000
  C   C188      1.0  0.06322999999999997  0.60467  0.71176  1.0000
  C   C189      1.0  0.13844000000000004  0.55101  0.75453  1.0000
  C   C190      1.0  0.13029000000000007  0.20533  0.83467  1.0000
  C   C191      1.0  0.15398999999999993  0.28845999999999994  0.8913099999999999  1.0000
  C   C192      1.0  0.082  0.7973599999999998  0.71694  1.0000
  C   C193      1.0  0.15672000000000003  0.38477  0.84915  1.0000
  C   C194      1.0  0.08503  0.44131  0.09506  1.0000
  C   C195      1.0  0.22711999999999996  0.85079  0.17112  1.0000
  C   C196      1.0  0.23894999999999997  0.35524  0.07877  1.0000
  C   C197      1.0  0.22008  0.40629999999999994  0.06239000000000001  1.0000
  C   C198      1.0  0.82848  0.6244299999999998  0.77271  1.0000
  C   C199      1.0  0.07850000000000008  0.30714  0.8018  1.0000
  C   C200      1.0  0.03463999999999996  0.46308  0.74842  1.0000
  C   C201      1.0  0.14785999999999994  0.5062099999999999  0.77508  1.0000
  C   C202      1.0  0.04115  0.45997  0.03681  1.0000
  C   C203      1.0  0.15767  0.9712699999999999  0.76107  1.0000
  C   C204      1.0  0.07630999999999999  0.55335  0.73152  1.0000
  C   C205      1.0  0.11484  0.07177999999999993  0.79519  1.0000
  C   C206      1.0  0.83561  0.58242  0.79469  1.0000
  C   C207      1.0  0.89743  0.55745  0.80691  1.0000
  C   C208      1.0  0.24235999999999994  0.29125  0.05778  1.0000
  C   C209      1.0  0.05408  0.41742  0.05923  1.0000
  C   C210      1.0  0.9048299999999998  0.50927  0.82822  1.0000
  C   C211      1.0  0.91259  0.29975999999999986  0.8688899999999999  1.0000
  C   C212      1.0  0.9521499999999999  0.5776  0.7973  1.0000
  C   C213      1.0  0.26234  0.17484999999999995  0.13853  1.0000
  C   C214      1.0  0.1470499999999999  0.43032  0.82906  1.0000
  C   C215      1.0  0.24187  0.90702  0.15885  1.0000
  C   C216      1.0  0.14286  0.53468  0.14723  1.0000
  C   C217      1.0  0.20684999999999998  0.32928  0.00451  1.0000
  C   C218      1.0  0.20198  0.18439999999999998  0.17979  1.0000
  C   C219      1.0  0.84615  0.9641899999999999  0.76337  1.0000
  C   C220      1.0  0.08992  0.55168  0.08779  1.0000
  C   C221      1.0  0.24980999999999992  0.36785  0.11758000000000002  1.0000
  C   C222      1.0  0.87096  0.09676000000000005  0.80604  1.0000
  C   C223      1.0  0.09101000000000001  0.8684099999999999  0.73603  1.0000
  C   C224      1.0  0.91901  0.41483  0.86747  1.0000
  C   C225      1.0  0.9463  0.45656  0.82245  1.0000
  C   C226      1.0  0.24055  0.078  0.1564  1.0000
  C   C227      1.0  0.011710000000000024  0.4352599999999999  0.9985  1.0000
  C   C228      1.0  0.20653999999999997  0.11794999999999997  0.17882  1.0000
  C   C229      1.0  0.10629000000000009  0.0021099999999999995  0.7745  1.0000
  C   C230      1.0  0.9556499999999999  0.38860999999999984  0.9242699999999999  1.0000
  C   C231      1.0  0.26869999999999994  0.10792999999999998  0.13577  1.0000
  C   C232      1.0  0.06983999999999994  0.35275999999999996  0.78189  1.0000
  C   C233      1.0  0.24661  0.007559999999999994  0.15288  1.0000
  C   C234      1.0  0.884  0.16578000000000007  0.82802  1.0000
  C   C235      1.0  0.87772  0.4671499999999999  0.87372  1.0000
  C   C236      1.0  0.95319  0.40962999999999994  0.84163  1.0000
  C   C237      1.0  0.14046  0.3507  0.94794  1.0000
  C   C238      1.0  0.08596999999999992  0.09347999999999997  0.82346  1.0000
  C   C239      1.0  0.058679999999999996  0.52793  0.05214  1.0000
  C   C240      1.0  0.15991999999999992  0.18438  0.80678  1.0000
  C   C241      1.0  0.15221000000000004  0.11846999999999992  0.7874  1.0000
  C   C242      1.0  0.24676  0.85081  0.20679  1.0000
  C   C243      1.0  0.2194799999999999  0.2662900000000001  0.94527  1.0000
  C   C244      1.0  0.9449099999999999  0.61935  0.77519  1.0000
  C   C245      1.0  0.8705799999999999  0.5136399999999999  0.8541599999999999  1.0000
  C   C246      1.0  0.10458999999999999  0.41498  0.79471  1.0000
  C   C247      1.0  0.1889099999999999  0.3154199999999999  0.9657599999999998  1.0000
  C   C248      1.0  0.023429999999999954  0.46980999999999995  0.97499  1.0000
  C   C249      1.0  0.19082  0.79485  0.1467  1.0000
  C   C250      1.0  0.83714  0.08206000000000001  0.76987  1.0000
  C   C251      1.0  0.8756699999999998  0.68528  0.73759  1.0000
  C   C252      1.0  0.8584399999999999  0.28228999999999993  0.8388  1.0000
  C   C253      1.0  0.22856999999999988  0.79617  0.21649999999999997  1.0000
  C   C254      1.0  0.8829599999999999  0.6424999999999998  0.76231  1.0000
  C   C255      1.0  0.17389999999999997  0.7430499999999999  0.15885  1.0000
  C   C256      1.0  0.09590999999999994  0.46178  0.77269  1.0000
  C   C257      1.0  0.97116  0.37643  0.98357  1.0000
  C   C258      1.0  0.88058  0.97798  0.79918  1.0000
  C   C259      1.0  0.22664  0.27854999999999996  0.02127  1.0000
  C   C260      1.0  0.1044  0.50869  0.10971  1.0000
  C   C261      1.0  0.12305999999999995  0.33763000000000004  0.91137  1.0000
  C   C262      1.0  0.8448199999999999  0.21692000000000003  0.81893  1.0000
  C   C263      1.0  0.20262000000000005  0.25301000000000007  0.9087200000000001  1.0000
  C   C264      1.0  0.83194  0.89468  0.74175  1.0000
  C   C265      1.0  0.9434199999999999  0.35352999999999996  0.94741  1.0000
  C   C266      1.0  0.04658000000000001  0.9649899999999999  0.76784  1.0000
  C   C267      1.0  0.89235  0.042880000000000015  0.82008  1.0000
  C   C268      1.0  0.82454  0.01715  0.74898  1.0000
  C   C269      1.0  0.99643  0.4472899999999999  0.9387699999999999  1.0000
  C   C270      1.0  0.20426  0.39340999999999987  0.02587  1.0000
  C   C271      1.0  0.9260099999999999  0.67102  0.35852  1.0000
  C   C272      1.0  0.47063  0.45255  0.22902  1.0000
  C   C273      1.0  0.8803799999999999  0.67673  0.37848  1.0000
  C   C274      1.0  0.9333799999999999  0.49918999999999997  0.34323  1.0000
  C   C275      1.0  0.09939000000000003  0.46027  0.24871000000000001  1.0000
  C   C276      1.0  0.08604  0.34218999999999994  0.24187  1.0000
  C   C277      1.0  0.76336  0.46169  0.33585  1.0000
  C   C278      1.0  0.35813  0.39757  0.21256  1.0000
  C   C279      1.0  0.45426  0.36504  0.25547  1.0000
  C   C280      1.0  0.87892  0.45446  0.33493  1.0000
  C   C281      1.0  0.85226  0.48751999999999995  0.3916  1.0000
  C   C282      1.0  0.16931  0.38533  0.21706  1.0000
  C   C283      1.0  0.71429  0.44223999999999997  0.34976  1.0000
  C   C284      1.0  0.9047499999999999  0.76216  0.59501  1.0000
  C   C285      1.0  0.571  0.69377  0.6708  1.0000
  C   C286      1.0  0.97258  0.59148  0.57871  1.0000
  C   C287      1.0  0.9051699999999999  0.59352  0.56242  1.0000
  C   C288      1.0  0.39892999999999995  0.6931099999999999  0.27211  1.0000
  C   C289      1.0  0.7445  0.47283  0.30209  1.0000
  C   C290      1.0  0.53592  0.4626  0.24895000000000003  1.0000
  C   C291      1.0  0.51949  0.37616999999999995  0.27594  1.0000
  C   C292      1.0  0.82755  0.7463299999999999  0.53675  1.0000
  C   C293      1.0  0.03928000000000001  0.35378  0.26113  1.0000
  C   C294      1.0  0.42900999999999995  0.40408  0.23231  1.0000
  C   C295      1.0  0.9728599999999998  0.43059  0.29525  1.0000
  C   C296      1.0  0.46238999999999997  0.7083899999999999  0.29454  1.0000
  C   C297      1.0  0.49985999999999997  0.65912  0.30704  1.0000
  C   C298      1.0  0.015729999999999997  0.56693  0.55776  1.0000
  C   C299      1.0  0.89244  0.7563200000000001  0.55902  1.0000
  C   C300      1.0  0.56937  0.67327  0.32836  1.0000
  C   C301      1.0  0.8201799999999999  0.70597  0.36844  1.0000
  C   C302      1.0  0.47036  0.59475  0.29743  1.0000
  C   C303      1.0  0.21434  0.62425  0.63801  1.0000
  C   C304      1.0  0.64884  0.43141  0.3297  1.0000
  C   C305      1.0  0.50256  0.66664  0.65833  1.0000
  C   C306      1.0  0.86386  0.75766  0.64778  1.0000
  C   C307      1.0  0.9246499999999999  0.54824  0.50461  1.0000
  C   C308      1.0  0.24556  0.72556  0.67917  1.0000
  C   C309      1.0  0.05152999999999999  0.66895  0.26332  1.0000
  C   C310      1.0  0.78748  0.7497099999999999  0.58826  1.0000
  C   C311      1.0  0.99869  0.61946  0.61748  1.0000
  C   C312      1.0  0.96122  0.68443  0.30576  1.0000
  C   C313      1.0  0.11708000000000003  0.39547999999999994  0.23598000000000002  1.0000
  C   C314      1.0  0.7034599999999999  0.69868  0.36714  1.0000
  C   C315      1.0  0.6166099999999999  0.62633  0.32253  1.0000
  C   C316      1.0  0.32896  0.6639699999999998  0.65577  1.0000
  C   C317      1.0  0.8139  0.7371499999999999  0.49834  1.0000
  C   C318      1.0  0.31101999999999996  0.7200799999999999  0.67816  1.0000
  C   C319      1.0  0.02176  0.41854  0.27446  1.0000
  C   C320      1.0  0.78635  0.71911  0.42393999999999993  1.0000
  C   C321      1.0  0.27857  0.61525  0.6352  1.0000
  C   C322      1.0  0.6792  0.46109999999999995  0.2822  1.0000
  C   C323      1.0  0.39609  0.655  0.65233  1.0000
  C   C324      1.0  0.9138999999999998  0.6929700000000001  0.32765  1.0000
  C   C325      1.0  0.65713  0.7459299999999999  0.3735  1.0000
  C   C326      1.0  0.68276  0.63874  0.34142  1.0000
  C   C327      1.0  0.8467699999999999  0.55785  0.4481200000000001  1.0000
  C   C328      1.0  0.9793999999999999  0.48755999999999994  0.3235  1.0000
  C   C329      1.0  0.7753  0.74433  0.55245  1.0000
  C   C330      1.0  0.87205  0.39705999999999997  0.30708  1.0000
  C   C331      1.0  0.9185199999999999  0.38544999999999996  0.28759  1.0000
  C   C332      1.0  0.60618  0.7088399999999999  0.70649  1.0000
  C   C333      1.0  0.9285299999999999  0.47613  0.44548  1.0000
  C   C334      1.0  0.40699  0.57949  0.27497  1.0000
  C   C335      1.0  0.59104  0.73337  0.3542  1.0000
  C   C336      1.0  0.62998  0.43914  0.29523  1.0000
  C   C337      1.0  0.89985  0.52721  0.46591  1.0000
  C   C338      1.0  0.75599  0.70198  0.47491999999999995  1.0000
  C   C339      1.0  0.60313  0.70647  0.64667  1.0000
  C   C340      1.0  0.93977  0.68134  0.26949  1.0000
  C   C341      1.0  0.30343  0.61047  0.23687  1.0000
  C   C342      1.0  0.80799  0.72961  0.33815  1.0000
  C   C343      1.0  0.67056  0.73647  0.7165  1.0000
  C   C344      1.0  0.37085999999999997  0.62809  0.26161  1.0000
  C   C345      1.0  0.66705  0.73542  0.65911  1.0000
  C   C346      1.0  0.56138  0.42561  0.2733  1.0000
  C   C347      1.0  0.85759  0.7628199999999999  0.48318  1.0000
  C   C348      1.0  0.07356  0.67097  0.29925  1.0000
  C   C349      1.0  0.99209  0.54558  0.52129  1.0000
  C   C350      1.0  0.85232  0.7578899999999997  0.61004  1.0000
  C   C351      1.0  0.82314  0.5386  0.41158  1.0000
  C   C352      1.0  0.85373  0.7228999999999999  0.3183  1.0000
  C   C353      1.0  0.9051399999999997  0.45633  0.40898  1.0000
  C   C354      1.0  0.09951000000000002  0.6627299999999999  0.24172  1.0000
  C   C355      1.0  0.8443799999999999  0.75452  0.44698  1.0000
  C   C356      1.0  0.052059999999999974  0.4716  0.26763  1.0000
  C   C357      1.0  0.029240000000000002  0.6785699999999999  0.32001  1.0000
  C   C358      1.0  0.9838799999999998  0.67374  0.24860999999999997  1.0000
  C   C359      1.0  0.74232  0.6928500000000001  0.43866  1.0000
  C   C360      1.0  0.88171  0.57213  0.52593  1.0000
  N   N1        1.0  0.028520000000000063  0.76813  0.82572  1.0000
  N   N2        1.0  0.7872999999999999  0.77045  0.83991  1.0000
  N   N3        1.0  0.03351000000000002  0.7331299999999998  0.87316  1.0000
  N   N4        1.0  0.004660000000000045  0.79664  0.79751  1.0000
  N   N5        1.0  0.2566999999999999  0.8070599999999999  0.80659  1.0000
  N   N6        1.0  0.09642000000000008  0.7372700000000002  0.8698400000000001  1.0000
  N   N7        1.0  0.72582  0.86426  0.14604  1.0000
  N   N8        1.0  0.63323  0.07250999999999998  0.11241  1.0000
  N   N9        1.0  0.30846  0.5471300000000001  0.32609  1.0000
  N   N10       1.0  0.32055  0.80294  0.34068  1.0000
  N   N11       1.0  0.39032  0.5887099999999998  0.37369  1.0000
  N   N12       1.0  0.25255  0.54321  0.29757  1.0000
  N   N13       1.0  0.24890999999999996  0.29967  0.30651  1.0000
  N   N14       1.0  0.38208  0.5226  0.37044  1.0000
  N   N15       1.0  0.5317  0.16938  0.64557  1.0000
  N   N16       1.0  0.2894  0.2283  0.61313  1.0000
  N   N17       1.0  0.23146000000000003  0.9715899999999998  0.17415  1.0000
  N   N18       1.0  0.22947  0.21305999999999997  0.16023  1.0000
  N   N19       1.0  0.26665  0.9666899999999999  0.12678  1.0000
  N   N20       1.0  0.20292  0.99545  0.20236  1.0000
  N   N21       1.0  0.19191  0.74348  0.1932  1.0000
  N   N22       1.0  0.26223  0.90372  0.12999  1.0000
  N   N23       1.0  0.13602  0.27292  0.8540100000000002  1.0000
  N   N24       1.0  0.92726  0.36705  0.88758  1.0000
  N   N25       1.0  0.4529599999999999  0.69181  0.67358  1.0000
  N   N26       1.0  0.19748  0.6786699999999999  0.65965  1.0000
  N   N27       1.0  0.41149  0.6092199999999999  0.62632  1.0000
  N   N28       1.0  0.45691999999999994  0.7483100000000001  0.70183  1.0000
  N   N29       1.0  0.7004799999999999  0.7507800000000001  0.6935  1.0000
  N   N30       1.0  0.47759  0.6174  0.62953  1.0000
  N   N31       1.0  0.8306699999999999  0.46809  0.35433  1.0000
  N   N32       1.0  0.7713099999999999  0.7105699999999999  0.38716  1.0000
  O   O1        1.0  0.15286999999999998  0.14621  0.24475  1.0000
  O   O2        1.0  0.36179999999999995  0.88616  0.28999  1.0000
  O   O3        1.0  0.38394  0.9965899999999999  0.30008  1.0000
  O   O4        1.0  0.50573  0.84585  0.83308  1.0000
  O   O5        1.0  0.23498  0.9617099999999998  0.27826  1.0000
  O   O6        1.0  0.40435  0.8380899999999999  0.84239  1.0000
  O   O7        1.0  0.22305999999999998  0.8789099999999999  0.3031  1.0000
  O   O8        1.0  0.29422999999999994  0.07311999999999998  0.26842  1.0000
  O   O9        1.0  0.29985  0.18391  0.27526  1.0000
  O   O10       1.0  0.5741599999999998  0.7585  0.8652299999999999  1.0000
  O   O11       1.0  0.12004  0.20373999999999998  0.29033  1.0000
  O   O12       1.0  0.68268  0.7366000000000001  0.8698199999999999  1.0000
  O   O13       1.0  0.33671  0.83731  0.74325  1.0000
  O   O14       1.0  0.6539999999999998  0.67607  0.7899  1.0000
  O   O15       1.0  0.55445  0.66373  0.80074  1.0000
  O   O16       1.0  0.23440999999999995  0.07623  0.33322  1.0000
  O   O17       1.0  0.5677799999999998  0.7908199999999999  0.77837  1.0000
  O   O18       1.0  0.2508  0.18683  0.34194  1.0000
  O   O19       1.0  0.6749  0.8282699999999998  0.80259  1.0000
  O   O20       1.0  0.44655999999999996  0.72373  0.76832  1.0000
  O   O21       1.0  0.3437500000000001  0.72317  0.77657  1.0000
  O   O22       1.0  0.35484  0.04218000000000001  0.36508  1.0000
  O   O23       1.0  0.34276  0.91788  0.79139  1.0000
  O   O24       1.0  0.38126999999999994  0.9383799999999999  0.36992  1.0000
  O   O25       1.0  0.85442  0.84723  0.7552  1.0000
  O   O26       1.0  0.11275999999999999  0.63744  0.71005  1.0000
  O   O27       1.0  0.002530000000000018  0.61295  0.69856  1.0000
  O   O28       1.0  0.15502  0.49448  0.16684  1.0000
  O   O29       1.0  0.038219999999999976  0.7624  0.72161  1.0000
  O   O30       1.0  0.16173  0.59585  0.15729  1.0000
  O   O31       1.0  0.12105999999999999  0.77516  0.69702  1.0000
  O   O32       1.0  0.9273399999999999  0.7051799999999999  0.73139  1.0000
  O   O33       1.0  0.81672  0.7005099999999999  0.7249  1.0000
  O   O34       1.0  0.24189  0.42588999999999994  0.13479  1.0000
  O   O35       1.0  0.79607  0.87998  0.70981  1.0000
  O   O36       1.0  0.26365999999999995  0.3173599999999999  0.13027  1.0000
  O   O37       1.0  0.16175  0.66371  0.25646  1.0000
  O   O38       1.0  0.32391  0.34586  0.21035  1.0000
  O   O39       1.0  0.33651  0.4456399999999999  0.1998  1.0000
  O   O40       1.0  0.92377  0.7648699999999998  0.66712  1.0000
  O   O41       1.0  0.20906  0.43366  0.22176  1.0000
  O   O42       1.0  0.8130399999999999  0.7493499999999998  0.65818  1.0000
  O   O43       1.0  0.17171  0.32647  0.19724  1.0000
  O   O44       1.0  0.27651  0.5532  0.23159  1.0000
  O   O45       1.0  0.27626  0.6560299999999999  0.22324  1.0000
  O   O46       1.0  0.95795  0.64441  0.63479  1.0000
  O   O47       1.0  0.08047  0.6570399999999998  0.20846  1.0000
  O   O48       1.0  0.06184999999999998  0.61815  0.62997  1.0000
