data_image0
_chemical_formula_structural       Zn32H208C352O104
_chemical_formula_sum              "Zn32 H208 C352 O104"
_cell_length_a       16.61921
_cell_length_b       24.59417
_cell_length_c       33.864929999999994
_cell_angle_alpha    90.0
_cell_angle_beta     89.94405000000002
_cell_angle_gamma    90.0

_space_group_name_H-M_alt    "P 1"
_space_group_IT_number       1

loop_
  _space_group_symop_operation_xyz
  'x, y, z'

loop_
  _atom_site_type_symbol
  _atom_site_label
  _atom_site_symmetry_multiplicity
  _atom_site_fract_x
  _atom_site_fract_y
  _atom_site_fract_z
  _atom_site_occupancy
  Zn  Zn1       1.0  0.89467  0.77142  0.84836  1.0000
  Zn  Zn2       1.0  0.04901  0.28165  0.06822  1.0000
  Zn  Zn3       1.0  0.03908  0.68995  0.84838  1.0000
  Zn  Zn4       1.0  0.93801  0.19413999999999998  0.10829  1.0000
  Zn  Zn5       1.0  0.394  0.72854  0.6519  1.0000
  Zn  Zn6       1.0  0.5492  0.21815  0.4314899999999999  1.0000
  Zn  Zn7       1.0  0.53831  0.81063  0.65179  1.0000
  Zn  Zn8       1.0  0.43825000000000003  0.30538  0.39132  1.0000
  Zn  Zn9       1.0  0.60533  0.77142  0.15164  1.0000
  Zn  Zn10      1.0  0.4509800000000001  0.28165  0.9317799999999998  1.0000
  Zn  Zn11      1.0  0.46091000000000004  0.68995  0.15161  1.0000
  Zn  Zn12      1.0  0.56198  0.19415  0.89171  1.0000
  Zn  Zn13      1.0  0.10599  0.72854  0.3481  1.0000
  Zn  Zn14      1.0  0.9508  0.21815  0.5685  1.0000
  Zn  Zn15      1.0  0.96168  0.81063  0.34821  1.0000
  Zn  Zn16      1.0  0.06173999999999999  0.30538  0.60868  1.0000
  Zn  Zn17      1.0  0.10533000000000002  0.22857999999999998  0.15164  1.0000
  Zn  Zn18      1.0  0.95098  0.7183499999999999  0.9317799999999998  1.0000
  Zn  Zn19      1.0  0.96092  0.31005  0.15161  1.0000
  Zn  Zn20      1.0  0.06198  0.8058599999999999  0.89171  1.0000
  Zn  Zn21      1.0  0.60599  0.27147  0.3481  1.0000
  Zn  Zn22      1.0  0.4508  0.78185  0.5685  1.0000
  Zn  Zn23      1.0  0.46168  0.18937  0.34821  1.0000
  Zn  Zn24      1.0  0.5617400000000002  0.69462  0.60868  1.0000
  Zn  Zn25      1.0  0.39467000000000013  0.22857999999999998  0.84836  1.0000
  Zn  Zn26      1.0  0.54901  0.7183499999999999  0.06822  1.0000
  Zn  Zn27      1.0  0.53908  0.31005  0.84838  1.0000
  Zn  Zn28      1.0  0.43801  0.8058599999999999  0.10829  1.0000
  Zn  Zn29      1.0  0.894  0.27147  0.6519  1.0000
  Zn  Zn30      1.0  0.0492  0.78185  0.4314899999999999  1.0000
  Zn  Zn31      1.0  0.03831  0.18937  0.65179  1.0000
  Zn  Zn32      1.0  0.93825  0.69462  0.39132  1.0000
  H   H1        1.0  0.82558  0.14256  0.00819  1.0000
  H   H2        1.0  0.7758  0.10633  0.9437  1.0000
  H   H3        1.0  0.9750199999999999  0.18208  0.8843199999999998  1.0000
  H   H4        1.0  0.02294  0.21989999999999998  0.9484899999999999  1.0000
  H   H5        1.0  0.7787200000000002  0.11405  0.87269  1.0000
  H   H6        1.0  0.76604  0.027499999999999997  0.83901  1.0000
  H   H7        1.0  0.80881  0.93047  0.8349  1.0000
  H   H8        1.0  0.02131  0.9675399999999997  0.90156  1.0000
  H   H9        1.0  0.9767400000000002  0.06394  0.9077699999999999  1.0000
  H   H10       1.0  0.97597  0.08789999999999999  0.82578  1.0000
  H   H11       1.0  0.77499  0.19722  0.83461  1.0000
  H   H12       1.0  0.74025  0.66966  0.97033  1.0000
  H   H13       1.0  0.60721  0.62865  0.98746  1.0000
  H   H14       1.0  0.50947  0.68965  0.87863  1.0000
  H   H15       1.0  0.6431  0.72963  0.8615499999999998  1.0000
  H   H16       1.0  0.46542  0.62827  0.97626  1.0000
  H   H17       1.0  0.3961000000000001  0.60055  0.87313  1.0000
  H   H18       1.0  0.38522  0.7064699999999999  0.97394  1.0000
  H   H19       1.0  0.015179999999999999  0.13082  0.7621  1.0000
  H   H20       1.0  0.81424  0.23985  0.77051  1.0000
  H   H21       1.0  0.27785  0.64812  0.84395  1.0000
  H   H22       1.0  0.26972  0.75596  0.94378  1.0000
  H   H23       1.0  0.56125  0.47649  0.86715  1.0000
  H   H24       1.0  0.55456  0.5753  0.88281  1.0000
  H   H25       1.0  0.41054  0.53981  0.9852299999999999  1.0000
  H   H26       1.0  0.42167  0.44102  0.97074  1.0000
  H   H27       1.0  0.3269  0.3563299999999999  0.49176  1.0000
  H   H28       1.0  0.27722  0.39339  0.55606  1.0000
  H   H29       1.0  0.47612  0.31771  0.61562  1.0000
  H   H30       1.0  0.5242300000000002  0.27957  0.5515  1.0000
  H   H31       1.0  0.27985  0.38543  0.6273  1.0000
  H   H32       1.0  0.26592  0.47151  0.66096  1.0000
  H   H33       1.0  0.30719  0.5688  0.66548  1.0000
  H   H34       1.0  0.52129  0.53338  0.59928  1.0000
  H   H35       1.0  0.47786  0.43683  0.59256  1.0000
  H   H36       1.0  0.47712  0.41238  0.67391  1.0000
  H   H37       1.0  0.27604  0.30304  0.66606  1.0000
  H   H38       1.0  0.23995000000000002  0.8300399999999999  0.53018  1.0000
  H   H39       1.0  0.10716  0.87114  0.51292  1.0000
  H   H40       1.0  0.0085  0.8103499999999998  0.62173  1.0000
  H   H41       1.0  0.14181000000000005  0.7705799999999999  0.63906  1.0000
  H   H42       1.0  0.9650300000000002  0.87114  0.52381  1.0000
  H   H43       1.0  0.89675  0.8997899999999998  0.62704  1.0000
  H   H44       1.0  0.8837  0.79325  0.52665  1.0000
  H   H45       1.0  0.5166800000000003  0.3701  0.7377  1.0000
  H   H46       1.0  0.31538  0.26123  0.73037  1.0000
  H   H47       1.0  0.77847  0.85293  0.65687  1.0000
  H   H48       1.0  0.7682900000000003  0.74422  0.55761  1.0000
  H   H49       1.0  0.061250000000000006  0.023319999999999994  0.63252  1.0000
  H   H50       1.0  0.05418000000000001  0.92444  0.61699  1.0000
  H   H51       1.0  0.91017  0.95983  0.51474  1.0000
  H   H52       1.0  0.92165  0.058679999999999996  0.52902  1.0000
  H   H53       1.0  0.6744100000000002  0.14256  0.9918  1.0000
  H   H54       1.0  0.72419  0.10633  0.0563  1.0000
  H   H55       1.0  0.52498  0.18208  0.11568  1.0000
  H   H56       1.0  0.47705  0.21989999999999998  0.05151  1.0000
  H   H57       1.0  0.72127  0.11405  0.12731  1.0000
  H   H58       1.0  0.73395  0.027499999999999997  0.16099  1.0000
  H   H59       1.0  0.69118  0.93047  0.16509  1.0000
  H   H60       1.0  0.47868  0.9675399999999997  0.09844  1.0000
  H   H61       1.0  0.52325  0.06394  0.09223  1.0000
  H   H62       1.0  0.52403  0.08789999999999999  0.17421  1.0000
  H   H63       1.0  0.725  0.19722  0.16539  1.0000
  H   H64       1.0  0.7597400000000002  0.66966  0.02966  1.0000
  H   H65       1.0  0.8927900000000002  0.62865  0.01254  1.0000
  H   H66       1.0  0.9905200000000001  0.68965  0.12137  1.0000
  H   H67       1.0  0.85689  0.72963  0.13845  1.0000
  H   H68       1.0  0.03458  0.62827  0.02374  1.0000
  H   H69       1.0  0.10389  0.60055  0.12687  1.0000
  H   H70       1.0  0.11477  0.7064699999999999  0.02606  1.0000
  H   H71       1.0  0.48482000000000003  0.13082  0.23789000000000002  1.0000
  H   H72       1.0  0.68575  0.23985  0.22949  1.0000
  H   H73       1.0  0.22214  0.64812  0.15605  1.0000
  H   H74       1.0  0.23028  0.75596  0.05621999999999999  1.0000
  H   H75       1.0  0.93874  0.47649  0.13285  1.0000
  H   H76       1.0  0.94543  0.5753  0.11719  1.0000
  H   H77       1.0  0.08945  0.53981  0.014770000000000002  1.0000
  H   H78       1.0  0.07833  0.44102  0.02926  1.0000
  H   H79       1.0  0.17309  0.3563299999999999  0.50824  1.0000
  H   H80       1.0  0.22278  0.39339  0.44393  1.0000
  H   H81       1.0  0.02387  0.31771  0.38438  1.0000
  H   H82       1.0  0.97576  0.27957  0.4485  1.0000
  H   H83       1.0  0.22014  0.38543  0.3727  1.0000
  H   H84       1.0  0.23408  0.47151  0.33904  1.0000
  H   H85       1.0  0.1928  0.5688  0.33452  1.0000
  H   H86       1.0  0.9787099999999999  0.53338  0.40071  1.0000
  H   H87       1.0  0.02214  0.43683  0.40743  1.0000
  H   H88       1.0  0.02287  0.41238  0.32609  1.0000
  H   H89       1.0  0.22396000000000005  0.30304  0.33393  1.0000
  H   H90       1.0  0.26005  0.8300399999999999  0.46982  1.0000
  H   H91       1.0  0.39283  0.87114  0.48707999999999996  1.0000
  H   H92       1.0  0.4915  0.8103499999999998  0.37827  1.0000
  H   H93       1.0  0.35819  0.7705799999999999  0.36093  1.0000
  H   H94       1.0  0.53496  0.87114  0.47618999999999995  1.0000
  H   H95       1.0  0.60324  0.8997899999999998  0.37295  1.0000
  H   H96       1.0  0.61629  0.79325  0.47335  1.0000
  H   H97       1.0  0.98331  0.3701  0.2622999999999999  1.0000
  H   H98       1.0  0.18461  0.26123  0.26961999999999997  1.0000
  H   H99       1.0  0.72152  0.85293  0.34313  1.0000
  H   H100      1.0  0.73171  0.74422  0.44239  1.0000
  H   H101      1.0  0.43874000000000013  0.023319999999999994  0.36748  1.0000
  H   H102      1.0  0.44582  0.92444  0.38301  1.0000
  H   H103      1.0  0.58983  0.95983  0.48525  1.0000
  H   H104      1.0  0.57835  0.058679999999999996  0.47098  1.0000
  H   H105      1.0  0.17441  0.85745  0.9918  1.0000
  H   H106      1.0  0.22419  0.8936699999999999  0.0563  1.0000
  H   H107      1.0  0.02498  0.81792  0.11568  1.0000
  H   H108      1.0  0.97705  0.78011  0.05151  1.0000
  H   H109      1.0  0.22127  0.88595  0.12731  1.0000
  H   H110      1.0  0.23395000000000005  0.9725  0.16099  1.0000
  H   H111      1.0  0.19118  0.06954  0.16509  1.0000
  H   H112      1.0  0.9786800000000001  0.03246  0.09844  1.0000
  H   H113      1.0  0.02325  0.93607  0.09223  1.0000
  H   H114      1.0  0.02403  0.91211  0.17421  1.0000
  H   H115      1.0  0.22501  0.8027799999999999  0.16539  1.0000
  H   H116      1.0  0.25974  0.3303499999999999  0.02966  1.0000
  H   H117      1.0  0.39279  0.37135  0.01253  1.0000
  H   H118      1.0  0.49052000000000007  0.31035  0.12137  1.0000
  H   H119      1.0  0.35689  0.27037  0.13845  1.0000
  H   H120      1.0  0.53457  0.37172999999999995  0.02374  1.0000
  H   H121      1.0  0.6038900000000001  0.39945  0.12687  1.0000
  H   H122      1.0  0.61477  0.29353  0.02606  1.0000
  H   H123      1.0  0.9848200000000001  0.86918  0.23789000000000002  1.0000
  H   H124      1.0  0.18575  0.76016  0.22949  1.0000
  H   H125      1.0  0.72214  0.35188  0.15605  1.0000
  H   H126      1.0  0.7302800000000003  0.24404  0.05621999999999999  1.0000
  H   H127      1.0  0.43874000000000013  0.52352  0.13285  1.0000
  H   H128      1.0  0.44543000000000005  0.42471  0.11719  1.0000
  H   H129      1.0  0.58945  0.46019  0.014770000000000002  1.0000
  H   H130      1.0  0.57833  0.55899  0.02926  1.0000
  H   H131      1.0  0.67309  0.64367  0.50824  1.0000
  H   H132      1.0  0.72278  0.60661  0.44393  1.0000
  H   H133      1.0  0.52387  0.68229  0.38438  1.0000
  H   H134      1.0  0.4757600000000001  0.7204299999999999  0.4485  1.0000
  H   H135      1.0  0.72014  0.61457  0.3727  1.0000
  H   H136      1.0  0.73408  0.52849  0.33904  1.0000
  H   H137      1.0  0.6928  0.43119999999999997  0.33452  1.0000
  H   H138      1.0  0.47870000000000007  0.46662  0.40071  1.0000
  H   H139      1.0  0.52213  0.56317  0.40743  1.0000
  H   H140      1.0  0.52287  0.58763  0.32609  1.0000
  H   H141      1.0  0.72396  0.69696  0.33393  1.0000
  H   H142      1.0  0.7600500000000002  0.16996  0.46982  1.0000
  H   H143      1.0  0.89283  0.12886  0.48707999999999996  1.0000
  H   H144      1.0  0.9914999999999999  0.18965  0.37827  1.0000
  H   H145      1.0  0.8581900000000002  0.22942  0.36093  1.0000
  H   H146      1.0  0.03497  0.12887  0.47618999999999995  1.0000
  H   H147      1.0  0.10324000000000003  0.10021  0.37295  1.0000
  H   H148      1.0  0.11630000000000003  0.20675  0.47335  1.0000
  H   H149      1.0  0.4833200000000001  0.6299  0.2622999999999999  1.0000
  H   H150      1.0  0.68461  0.7387799999999999  0.26961999999999997  1.0000
  H   H151      1.0  0.22152  0.14708  0.34313  1.0000
  H   H152      1.0  0.23171  0.25578  0.44239  1.0000
  H   H153      1.0  0.93874  0.9766799999999998  0.36748  1.0000
  H   H154      1.0  0.94581  0.07557  0.38301  1.0000
  H   H155      1.0  0.08983  0.04017  0.48525  1.0000
  H   H156      1.0  0.07835000000000002  0.94132  0.47098  1.0000
  H   H157      1.0  0.32558  0.85745  0.00819  1.0000
  H   H158      1.0  0.2758  0.8936699999999999  0.9437  1.0000
  H   H159      1.0  0.47502  0.81792  0.8843199999999998  1.0000
  H   H160      1.0  0.52294  0.78011  0.9484899999999999  1.0000
  H   H161      1.0  0.27872  0.88595  0.87269  1.0000
  H   H162      1.0  0.26604  0.9725  0.83901  1.0000
  H   H163      1.0  0.30881  0.06954  0.8349  1.0000
  H   H164      1.0  0.52132  0.03246  0.90156  1.0000
  H   H165      1.0  0.47674  0.93607  0.9077699999999999  1.0000
  H   H166      1.0  0.47597  0.91211  0.82578  1.0000
  H   H167      1.0  0.27499  0.8027799999999999  0.83461  1.0000
  H   H168      1.0  0.24025000000000007  0.3303499999999999  0.97033  1.0000
  H   H169      1.0  0.10721  0.37135  0.98746  1.0000
  H   H170      1.0  0.009470000000000001  0.31035  0.87863  1.0000
  H   H171      1.0  0.1431  0.27037  0.8615499999999998  1.0000
  H   H172      1.0  0.96542  0.37172999999999995  0.97626  1.0000
  H   H173      1.0  0.8961000000000001  0.39945  0.87313  1.0000
  H   H174      1.0  0.8852200000000002  0.29353  0.97394  1.0000
  H   H175      1.0  0.5151800000000002  0.86918  0.7621  1.0000
  H   H176      1.0  0.31424  0.76016  0.77051  1.0000
  H   H177      1.0  0.77785  0.35188  0.84395  1.0000
  H   H178      1.0  0.76972  0.24404  0.94378  1.0000
  H   H179      1.0  0.061250000000000006  0.52352  0.86715  1.0000
  H   H180      1.0  0.05456  0.42471  0.88281  1.0000
  H   H181      1.0  0.91054  0.46019  0.9852299999999999  1.0000
  H   H182      1.0  0.9216600000000003  0.55899  0.97074  1.0000
  H   H183      1.0  0.8269  0.64367  0.49176  1.0000
  H   H184      1.0  0.77721  0.60661  0.55606  1.0000
  H   H185      1.0  0.9761200000000001  0.68229  0.61562  1.0000
  H   H186      1.0  0.02423000000000001  0.7204299999999999  0.5515  1.0000
  H   H187      1.0  0.77985  0.61457  0.6273  1.0000
  H   H188      1.0  0.76592  0.52849  0.66096  1.0000
  H   H189      1.0  0.80719  0.43119999999999997  0.66548  1.0000
  H   H190      1.0  0.02129  0.46662  0.59928  1.0000
  H   H191      1.0  0.9778600000000001  0.56317  0.59256  1.0000
  H   H192      1.0  0.97712  0.58763  0.67391  1.0000
  H   H193      1.0  0.77604  0.69696  0.66606  1.0000
  H   H194      1.0  0.73995  0.16996  0.53018  1.0000
  H   H195      1.0  0.60716  0.12886  0.51292  1.0000
  H   H196      1.0  0.5084900000000002  0.18965  0.62173  1.0000
  H   H197      1.0  0.6418  0.22942  0.63906  1.0000
  H   H198      1.0  0.46503000000000005  0.12887  0.52381  1.0000
  H   H199      1.0  0.39675  0.10021  0.62704  1.0000
  H   H200      1.0  0.3837  0.20675  0.52665  1.0000
  H   H201      1.0  0.01668  0.6299  0.7377  1.0000
  H   H202      1.0  0.81538  0.7387799999999999  0.73037  1.0000
  H   H203      1.0  0.27847  0.14708  0.65687  1.0000
  H   H204      1.0  0.26829  0.25578  0.55761  1.0000
  H   H205      1.0  0.56125  0.9766799999999998  0.63252  1.0000
  H   H206      1.0  0.55418  0.07557  0.61699  1.0000
  H   H207      1.0  0.41017  0.04017  0.51474  1.0000
  H   H208      1.0  0.42165  0.94132  0.52902  1.0000
  C   C1        1.0  0.9571400000000002  0.20325  0.02117  1.0000
  C   C2        1.0  0.9281  0.18274  0.98231  1.0000
  C   C3        1.0  0.8578300000000002  0.15089  0.9809000000000001  1.0000
  C   C4        1.0  0.83034  0.13086  0.94501  1.0000
  C   C5        1.0  0.87302  0.14098  0.90995  1.0000
  C   C6        1.0  0.9422800000000002  0.17331999999999997  0.91141  1.0000
  C   C7        1.0  0.96945  0.19446  0.9472800000000001  1.0000
  C   C8        1.0  0.8449700000000002  0.11239  0.8726  1.0000
  C   C9        1.0  0.8691200000000002  0.05252  0.8731499999999999  1.0000
  C   C10       1.0  0.8217  0.01433  0.85299  1.0000
  C   C11       1.0  0.84567  0.9601999999999999  0.85027  1.0000
  C   C12       1.0  0.91879  0.94334  0.86708  1.0000
  C   C13       1.0  0.96566  0.9811099999999999  0.88789  1.0000
  C   C14       1.0  0.9405  0.03499  0.89123  1.0000
  C   C15       1.0  0.87249  0.13954  0.8344399999999997  1.0000
  C   C16       1.0  0.94101  0.1216  0.81408  1.0000
  C   C17       1.0  0.82789  0.18297  0.81877  1.0000
  C   C18       1.0  0.78124  0.72349  0.90509  1.0000
  C   C19       1.0  0.69997  0.70169  0.91489  1.0000
  C   C20       1.0  0.68918  0.67354  0.9505700000000001  1.0000
  C   C21       1.0  0.61517  0.65066  0.95983  1.0000
  C   C22       1.0  0.54998  0.6552399999999999  0.93375  1.0000
  C   C23       1.0  0.56015  0.68468  0.89862  1.0000
  C   C24       1.0  0.6346600000000002  0.70749  0.88905  1.0000
  C   C25       1.0  0.47275  0.62487  0.94402  1.0000
  C   C26       1.0  0.39875  0.6507099999999999  0.92546  1.0000
  C   C27       1.0  0.36846  0.63449  0.8886599999999999  1.0000
  C   C28       1.0  0.36181  0.6940899999999999  0.94534  1.0000
  C   C29       1.0  0.9382300000000002  0.20901  0.7224499999999999  1.0000
  C   C30       1.0  0.91717  0.18779  0.76231  1.0000
  C   C31       1.0  0.96319  0.14542  0.77843  1.0000
  C   C32       1.0  0.8497100000000002  0.20696999999999996  0.78305  1.0000
  C   C33       1.0  0.19376  0.73135  0.87516  1.0000
  C   C34       1.0  0.26661  0.70502  0.89191  1.0000
  C   C35       1.0  0.30243  0.6609999999999999  0.87217  1.0000
  C   C36       1.0  0.29716  0.7217  0.9286  1.0000
  C   C37       1.0  0.94567  0.8857599999999999  0.86333  1.0000
  C   C38       1.0  0.49751000000000006  0.39332999999999996  0.9086399999999998  1.0000
  C   C39       1.0  0.49196  0.45247  0.91793  1.0000
  C   C40       1.0  0.52865  0.49073999999999995  0.89298  1.0000
  C   C41       1.0  0.52394  0.54602  0.90164  1.0000
  C   C42       1.0  0.48081000000000024  0.56447  0.93468  1.0000
  C   C43       1.0  0.44362  0.52608  0.95933  1.0000
  C   C44       1.0  0.44973000000000013  0.47066  0.9513199999999999  1.0000
  C   C45       1.0  0.45754000000000006  0.29616  0.47867  1.0000
  C   C46       1.0  0.4293  0.31667  0.51765  1.0000
  C   C47       1.0  0.359  0.34838  0.51911  1.0000
  C   C48       1.0  0.33163000000000004  0.36873999999999996  0.55493  1.0000
  C   C49       1.0  0.37433  0.35881  0.58997  1.0000
  C   C50       1.0  0.44352  0.32635  0.5884999999999999  1.0000
  C   C51       1.0  0.47077000000000013  0.30505  0.5526399999999999  1.0000
  C   C52       1.0  0.34610000000000013  0.3874  0.62735  1.0000
  C   C53       1.0  0.36958000000000013  0.44742  0.62686  1.0000
  C   C54       1.0  0.32148  0.48518  0.64709  1.0000
  C   C55       1.0  0.34463  0.53944  0.65003  1.0000
  C   C56       1.0  0.41768  0.55694  0.6334  1.0000
  C   C57       1.0  0.46543  0.51954  0.61266  1.0000
  C   C58       1.0  0.441  0.46549  0.60906  1.0000
  C   C59       1.0  0.37377  0.36055  0.6656  1.0000
  C   C60       1.0  0.44232  0.3787  0.68579  1.0000
  C   C61       1.0  0.32912000000000013  0.31738  0.68166  1.0000
  C   C62       1.0  0.28089  0.7767399999999999  0.59541  1.0000
  C   C63       1.0  0.19936000000000006  0.7982399999999998  0.58565  1.0000
  C   C64       1.0  0.18872000000000005  0.82622  0.5499  1.0000
  C   C65       1.0  0.11478  0.84903  0.54052  1.0000
  C   C66       1.0  0.04934  0.84446  0.5665  1.0000
  C   C67       1.0  0.059280000000000006  0.81519  0.60172  1.0000
  C   C68       1.0  0.1338  0.79251  0.61145  1.0000
  C   C69       1.0  0.9722400000000001  0.87482  0.55605  1.0000
  C   C70       1.0  0.89821  0.84931  0.57486  1.0000
  C   C71       1.0  0.8685700000000002  0.86587  0.61175  1.0000
  C   C72       1.0  0.86077  0.80588  0.55532  1.0000
  C   C73       1.0  0.43979  0.29213  0.77793  1.0000
  C   C74       1.0  0.41855  0.31321  0.73806  1.0000
  C   C75       1.0  0.46461  0.35532  0.72157  1.0000
  C   C76       1.0  0.35095  0.29388  0.7175499999999999  1.0000
  C   C77       1.0  0.69331  0.76971  0.6263  1.0000
  C   C78       1.0  0.76629  0.79559  0.60922  1.0000
  C   C79       1.0  0.8026  0.83969  0.62862  1.0000
  C   C80       1.0  0.79624  0.7785299999999999  0.57247  1.0000
  C   C81       1.0  0.44315  0.61484  0.63724  1.0000
  C   C82       1.0  0.99751  0.10644  0.59111  1.0000
  C   C83       1.0  0.9917900000000001  0.0473  0.58183  1.0000
  C   C84       1.0  0.02845  0.00904  0.60678  1.0000
  C   C85       1.0  0.02363  0.95375  0.59819  1.0000
  C   C86       1.0  0.9804300000000001  0.9352699999999998  0.56522  1.0000
  C   C87       1.0  0.94329  0.97363  0.54058  1.0000
  C   C88       1.0  0.94953  0.02907  0.54851  1.0000
  C   C89       1.0  0.54286  0.20325  0.9788299999999999  1.0000
  C   C90       1.0  0.57189  0.18274  0.01769  1.0000
  C   C91       1.0  0.6421600000000001  0.15089  0.01909  1.0000
  C   C92       1.0  0.66965  0.13086  0.05499  1.0000
  C   C93       1.0  0.6269700000000002  0.14098  0.09004  1.0000
  C   C94       1.0  0.55771  0.17331999999999997  0.08858  1.0000
  C   C95       1.0  0.5305400000000001  0.19446  0.05271  1.0000
  C   C96       1.0  0.65503  0.11239  0.1274  1.0000
  C   C97       1.0  0.63087  0.05252  0.12684  1.0000
  C   C98       1.0  0.6782900000000002  0.01433  0.14701  1.0000
  C   C99       1.0  0.65432  0.9601999999999999  0.14973  1.0000
  C   C100      1.0  0.5812  0.94334  0.13292  1.0000
  C   C101      1.0  0.53433  0.9811099999999999  0.11211  1.0000
  C   C102      1.0  0.55949  0.03499  0.10877  1.0000
  C   C103      1.0  0.6275  0.13954  0.16556  1.0000
  C   C104      1.0  0.55898  0.1216  0.18592  1.0000
  C   C105      1.0  0.6721000000000003  0.18297  0.18122  1.0000
  C   C106      1.0  0.7187500000000001  0.72349  0.09491  1.0000
  C   C107      1.0  0.80002  0.70169  0.08510999999999999  1.0000
  C   C108      1.0  0.8108200000000002  0.67354  0.049429999999999995  1.0000
  C   C109      1.0  0.88482  0.65066  0.04016  1.0000
  C   C110      1.0  0.9500200000000002  0.6552399999999999  0.06625  1.0000
  C   C111      1.0  0.93984  0.68468  0.10138  1.0000
  C   C112      1.0  0.86533  0.70749  0.11095  1.0000
  C   C113      1.0  0.02724  0.62487  0.05598  1.0000
  C   C114      1.0  0.10125  0.6507099999999999  0.07453  1.0000
  C   C115      1.0  0.13153  0.63449  0.11134  1.0000
  C   C116      1.0  0.13818  0.6940899999999999  0.05466  1.0000
  C   C117      1.0  0.56176  0.20901  0.27755  1.0000
  C   C118      1.0  0.58282  0.18779  0.23768  1.0000
  C   C119      1.0  0.5368  0.14542  0.22157  1.0000
  C   C120      1.0  0.65028  0.20696999999999996  0.21695  1.0000
  C   C121      1.0  0.30623  0.73135  0.12484  1.0000
  C   C122      1.0  0.23339000000000001  0.70502  0.10809  1.0000
  C   C123      1.0  0.19756  0.6609999999999999  0.12782  1.0000
  C   C124      1.0  0.20283000000000007  0.7217  0.07139  1.0000
  C   C125      1.0  0.55432  0.8857599999999999  0.13667  1.0000
  C   C126      1.0  0.00248  0.39332999999999996  0.09135  1.0000
  C   C127      1.0  0.008040000000000002  0.45247  0.08206  1.0000
  C   C128      1.0  0.9713500000000002  0.49073999999999995  0.10701  1.0000
  C   C129      1.0  0.9760500000000001  0.54602  0.09836  1.0000
  C   C130      1.0  0.01919  0.56447  0.06532  1.0000
  C   C131      1.0  0.05637  0.52608  0.04067  1.0000
  C   C132      1.0  0.05026  0.47066  0.04868  1.0000
  C   C133      1.0  0.04245  0.29616  0.52132  1.0000
  C   C134      1.0  0.07069  0.31667  0.48233999999999994  1.0000
  C   C135      1.0  0.14100000000000004  0.34838  0.48088999999999993  1.0000
  C   C136      1.0  0.16837000000000005  0.36873999999999996  0.44507  1.0000
  C   C137      1.0  0.12566  0.35881  0.41002  1.0000
  C   C138      1.0  0.05648  0.32635  0.4115  1.0000
  C   C139      1.0  0.029230000000000003  0.30505  0.44735  1.0000
  C   C140      1.0  0.1539  0.3874  0.37265  1.0000
  C   C141      1.0  0.13042  0.44742  0.37314  1.0000
  C   C142      1.0  0.17851  0.48518  0.3529  1.0000
  C   C143      1.0  0.15537  0.53944  0.34997  1.0000
  C   C144      1.0  0.08232  0.55694  0.36659  1.0000
  C   C145      1.0  0.03456  0.51954  0.38734  1.0000
  C   C146      1.0  0.05899  0.46549  0.39094  1.0000
  C   C147      1.0  0.12622  0.36055  0.33439  1.0000
  C   C148      1.0  0.05767  0.3787  0.31421  1.0000
  C   C149      1.0  0.17088  0.31738  0.31833  1.0000
  C   C150      1.0  0.2191  0.7767399999999999  0.40458  1.0000
  C   C151      1.0  0.30063  0.7982399999999998  0.41435  1.0000
  C   C152      1.0  0.31128  0.82622  0.45009999999999994  1.0000
  C   C153      1.0  0.38522  0.84903  0.45948  1.0000
  C   C154      1.0  0.45065  0.84446  0.43349  1.0000
  C   C155      1.0  0.44072  0.81519  0.39828  1.0000
  C   C156      1.0  0.36620000000000014  0.79251  0.38855  1.0000
  C   C157      1.0  0.52775  0.87482  0.44395  1.0000
  C   C158      1.0  0.60178  0.84931  0.4251299999999999  1.0000
  C   C159      1.0  0.6314200000000001  0.86587  0.38824  1.0000
  C   C160      1.0  0.63922  0.80588  0.44468  1.0000
  C   C161      1.0  0.06021  0.29213  0.22206  1.0000
  C   C162      1.0  0.08145  0.31321  0.26194  1.0000
  C   C163      1.0  0.03539000000000001  0.35532  0.27842999999999996  1.0000
  C   C164      1.0  0.14905000000000004  0.29388  0.28245  1.0000
  C   C165      1.0  0.80669  0.76971  0.3737  1.0000
  C   C166      1.0  0.7337  0.79559  0.39077  1.0000
  C   C167      1.0  0.6973900000000002  0.83969  0.37138  1.0000
  C   C168      1.0  0.7037500000000002  0.7785299999999999  0.42752  1.0000
  C   C169      1.0  0.05685  0.61484  0.36275  1.0000
  C   C170      1.0  0.50248  0.10644  0.40888  1.0000
  C   C171      1.0  0.5082  0.0473  0.41817  1.0000
  C   C172      1.0  0.47154  0.00904  0.39321  1.0000
  C   C173      1.0  0.47637  0.95375  0.40181  1.0000
  C   C174      1.0  0.51956  0.9352699999999998  0.43477  1.0000
  C   C175      1.0  0.55671  0.97363  0.45941  1.0000
  C   C176      1.0  0.55046  0.02907  0.45149  1.0000
  C   C177      1.0  0.04286  0.79675  0.9788299999999999  1.0000
  C   C178      1.0  0.07189  0.8172699999999999  0.01769  1.0000
  C   C179      1.0  0.14216  0.84911  0.01909  1.0000
  C   C180      1.0  0.16965000000000005  0.86914  0.05499  1.0000
  C   C181      1.0  0.12697  0.85903  0.09004  1.0000
  C   C182      1.0  0.05771  0.82668  0.08858  1.0000
  C   C183      1.0  0.030540000000000005  0.80555  0.05271  1.0000
  C   C184      1.0  0.15503  0.8876099999999998  0.1274  1.0000
  C   C185      1.0  0.13087  0.9474899999999998  0.12684  1.0000
  C   C186      1.0  0.17829  0.9856799999999999  0.14701  1.0000
  C   C187      1.0  0.15432  0.0398  0.14973  1.0000
  C   C188      1.0  0.08121  0.056659999999999995  0.13292  1.0000
  C   C189      1.0  0.03433  0.01889  0.11211  1.0000
  C   C190      1.0  0.05950000000000001  0.96501  0.10877  1.0000
  C   C191      1.0  0.12751  0.8604599999999999  0.16556  1.0000
  C   C192      1.0  0.05898  0.8783999999999998  0.18592  1.0000
  C   C193      1.0  0.1721  0.81703  0.18122  1.0000
  C   C194      1.0  0.21875000000000003  0.27651  0.09491  1.0000
  C   C195      1.0  0.30002  0.29832  0.08510999999999999  1.0000
  C   C196      1.0  0.31082  0.32646  0.049429999999999995  1.0000
  C   C197      1.0  0.38482  0.34934  0.04016  1.0000
  C   C198      1.0  0.45002  0.34476  0.06625  1.0000
  C   C199      1.0  0.43984  0.31532  0.10138  1.0000
  C   C200      1.0  0.3653300000000001  0.29251  0.11095  1.0000
  C   C201      1.0  0.52724  0.37512999999999996  0.05598  1.0000
  C   C202      1.0  0.60124  0.34929  0.07453  1.0000
  C   C203      1.0  0.63153  0.36552  0.11134  1.0000
  C   C204      1.0  0.63818  0.30591  0.05466  1.0000
  C   C205      1.0  0.06176  0.79099  0.27755  1.0000
  C   C206      1.0  0.08283  0.8122099999999999  0.23768  1.0000
  C   C207      1.0  0.036810000000000016  0.8545899999999998  0.22157  1.0000
  C   C208      1.0  0.15028  0.7930399999999999  0.21695  1.0000
  C   C209      1.0  0.80623  0.26865  0.12484  1.0000
  C   C210      1.0  0.73339  0.29499  0.10808  1.0000
  C   C211      1.0  0.69756  0.33901  0.12782  1.0000
  C   C212      1.0  0.70283  0.2783  0.07139  1.0000
  C   C213      1.0  0.054320000000000014  0.11424  0.13667  1.0000
  C   C214      1.0  0.50248  0.60667  0.09135  1.0000
  C   C215      1.0  0.50803  0.54754  0.08206  1.0000
  C   C216      1.0  0.47135  0.50926  0.10701  1.0000
  C   C217      1.0  0.47605  0.45398  0.09836  1.0000
  C   C218      1.0  0.5191800000000001  0.43553  0.06532  1.0000
  C   C219      1.0  0.55637  0.47392  0.04067  1.0000
  C   C220      1.0  0.5502600000000002  0.52934  0.04868  1.0000
  C   C221      1.0  0.5424500000000002  0.70384  0.52132  1.0000
  C   C222      1.0  0.57069  0.68333  0.48233999999999994  1.0000
  C   C223      1.0  0.641  0.65162  0.48088999999999993  1.0000
  C   C224      1.0  0.66837  0.63126  0.44507  1.0000
  C   C225      1.0  0.6256600000000002  0.64119  0.41002  1.0000
  C   C226      1.0  0.55648  0.67365  0.4115  1.0000
  C   C227      1.0  0.5292300000000001  0.69495  0.44735  1.0000
  C   C228      1.0  0.65389  0.6126  0.37265  1.0000
  C   C229      1.0  0.6304200000000001  0.55258  0.37314  1.0000
  C   C230      1.0  0.67851  0.51482  0.3529  1.0000
  C   C231      1.0  0.65537  0.46055999999999997  0.34997  1.0000
  C   C232      1.0  0.58231  0.44306  0.36659  1.0000
  C   C233      1.0  0.53456  0.48046999999999995  0.38734  1.0000
  C   C234      1.0  0.55899  0.53451  0.39094  1.0000
  C   C235      1.0  0.62622  0.63946  0.33439  1.0000
  C   C236      1.0  0.55767  0.6213  0.31421  1.0000
  C   C237      1.0  0.67088  0.6826199999999999  0.31833  1.0000
  C   C238      1.0  0.7191  0.22326  0.40458  1.0000
  C   C239      1.0  0.8006300000000002  0.20176  0.41435  1.0000
  C   C240      1.0  0.81128  0.17379  0.45009999999999994  1.0000
  C   C241      1.0  0.88521  0.15097  0.45948  1.0000
  C   C242      1.0  0.95065  0.15554  0.43349  1.0000
  C   C243      1.0  0.94072  0.18481  0.39828  1.0000
  C   C244      1.0  0.8662  0.20749  0.38855  1.0000
  C   C245      1.0  0.02775  0.12518  0.44395  1.0000
  C   C246      1.0  0.10178  0.15069  0.4251299999999999  1.0000
  C   C247      1.0  0.13142  0.13413  0.38824  1.0000
  C   C248      1.0  0.13922000000000007  0.19412  0.44468  1.0000
  C   C249      1.0  0.56021  0.7078699999999999  0.22206  1.0000
  C   C250      1.0  0.58145  0.68679  0.26194  1.0000
  C   C251      1.0  0.53539  0.64468  0.27842999999999996  1.0000
  C   C252      1.0  0.64905  0.70612  0.28245  1.0000
  C   C253      1.0  0.30669  0.23029  0.3737  1.0000
  C   C254      1.0  0.23370000000000005  0.20440999999999998  0.39077  1.0000
  C   C255      1.0  0.19740000000000005  0.16031  0.37138  1.0000
  C   C256      1.0  0.20375  0.22147  0.42752  1.0000
  C   C257      1.0  0.55685  0.38516  0.36275  1.0000
  C   C258      1.0  0.00248  0.8935599999999999  0.40888  1.0000
  C   C259      1.0  0.00821  0.9527  0.41817  1.0000
  C   C260      1.0  0.97154  0.99096  0.39321  1.0000
  C   C261      1.0  0.9763700000000001  0.04624999999999999  0.40181  1.0000
  C   C262      1.0  0.019560000000000008  0.06473  0.43477  1.0000
  C   C263      1.0  0.05671  0.02637  0.45941  1.0000
  C   C264      1.0  0.05047  0.9709299999999998  0.45149  1.0000
  C   C265      1.0  0.45714  0.79675  0.02117  1.0000
  C   C266      1.0  0.4281  0.8172699999999999  0.98231  1.0000
  C   C267      1.0  0.35783  0.84911  0.9809000000000001  1.0000
  C   C268      1.0  0.33034  0.86914  0.94501  1.0000
  C   C269      1.0  0.37302  0.85903  0.90995  1.0000
  C   C270      1.0  0.44228  0.82668  0.91141  1.0000
  C   C271      1.0  0.4694600000000001  0.80555  0.9472800000000001  1.0000
  C   C272      1.0  0.34497  0.8876099999999998  0.8726  1.0000
  C   C273      1.0  0.36912  0.9474899999999998  0.8731499999999999  1.0000
  C   C274      1.0  0.3217000000000001  0.9856799999999999  0.85299  1.0000
  C   C275      1.0  0.3456700000000001  0.0398  0.85027  1.0000
  C   C276      1.0  0.41879  0.056659999999999995  0.86708  1.0000
  C   C277      1.0  0.46566  0.01889  0.88789  1.0000
  C   C278      1.0  0.4405  0.96501  0.89123  1.0000
  C   C279      1.0  0.37249  0.8604599999999999  0.8344399999999997  1.0000
  C   C280      1.0  0.44102  0.8783999999999998  0.81408  1.0000
  C   C281      1.0  0.32789  0.81703  0.81877  1.0000
  C   C282      1.0  0.28124  0.27651  0.90509  1.0000
  C   C283      1.0  0.19997  0.29832  0.91489  1.0000
  C   C284      1.0  0.18918  0.32646  0.9505700000000001  1.0000
  C   C285      1.0  0.11517  0.34934  0.95983  1.0000
  C   C286      1.0  0.04998  0.34476  0.93375  1.0000
  C   C287      1.0  0.06015  0.31532  0.89862  1.0000
  C   C288      1.0  0.13466000000000006  0.29251  0.88905  1.0000
  C   C289      1.0  0.9727500000000001  0.37512999999999996  0.94402  1.0000
  C   C290      1.0  0.8987500000000003  0.34929  0.92546  1.0000
  C   C291      1.0  0.86846  0.36552  0.8886599999999999  1.0000
  C   C292      1.0  0.8618100000000002  0.30591  0.94534  1.0000
  C   C293      1.0  0.43823  0.79099  0.7224499999999999  1.0000
  C   C294      1.0  0.41717  0.8122099999999999  0.76231  1.0000
  C   C295      1.0  0.46319  0.8545899999999998  0.77843  1.0000
  C   C296      1.0  0.34972  0.7930399999999999  0.78305  1.0000
  C   C297      1.0  0.69376  0.26865  0.87516  1.0000
  C   C298      1.0  0.76661  0.29499  0.89191  1.0000
  C   C299      1.0  0.80243  0.33901  0.87217  1.0000
  C   C300      1.0  0.79716  0.2783  0.9286  1.0000
  C   C301      1.0  0.4456700000000001  0.11424  0.86333  1.0000
  C   C302      1.0  0.99752  0.60667  0.9086399999999998  1.0000
  C   C303      1.0  0.9919600000000001  0.54754  0.91793  1.0000
  C   C304      1.0  0.028650000000000012  0.50926  0.89298  1.0000
  C   C305      1.0  0.02395  0.45398  0.90164  1.0000
  C   C306      1.0  0.98081  0.43553  0.93468  1.0000
  C   C307      1.0  0.94362  0.47392  0.95933  1.0000
  C   C308      1.0  0.94973  0.52934  0.9513199999999999  1.0000
  C   C309      1.0  0.95754  0.70384  0.47867  1.0000
  C   C310      1.0  0.9293000000000002  0.68333  0.51765  1.0000
  C   C311      1.0  0.85899  0.65162  0.51911  1.0000
  C   C312      1.0  0.83163  0.63126  0.55493  1.0000
  C   C313      1.0  0.87433  0.64119  0.58997  1.0000
  C   C314      1.0  0.94351  0.67365  0.5884999999999999  1.0000
  C   C315      1.0  0.9707700000000001  0.69495  0.5526399999999999  1.0000
  C   C316      1.0  0.8461  0.6126  0.62735  1.0000
  C   C317      1.0  0.8695700000000001  0.55258  0.62686  1.0000
  C   C318      1.0  0.82148  0.51482  0.64709  1.0000
  C   C319      1.0  0.84463  0.46055999999999997  0.65003  1.0000
  C   C320      1.0  0.9176800000000003  0.44306  0.6334  1.0000
  C   C321      1.0  0.96543  0.48046999999999995  0.61266  1.0000
  C   C322      1.0  0.941  0.53451  0.60906  1.0000
  C   C323      1.0  0.87377  0.63946  0.6656  1.0000
  C   C324      1.0  0.94232  0.6213  0.68579  1.0000
  C   C325      1.0  0.82912  0.6826199999999999  0.68166  1.0000
  C   C326      1.0  0.78089  0.22326  0.59541  1.0000
  C   C327      1.0  0.69936  0.20176  0.58565  1.0000
  C   C328      1.0  0.68871  0.17379  0.5499  1.0000
  C   C329      1.0  0.61478  0.15097  0.54052  1.0000
  C   C330      1.0  0.54934  0.15554  0.5665  1.0000
  C   C331      1.0  0.55928  0.18481  0.60172  1.0000
  C   C332      1.0  0.63379  0.20749  0.61145  1.0000
  C   C333      1.0  0.47224  0.12518  0.55605  1.0000
  C   C334      1.0  0.39821  0.15069  0.57486  1.0000
  C   C335      1.0  0.36857  0.13413  0.61175  1.0000
  C   C336      1.0  0.3607700000000001  0.19412  0.55532  1.0000
  C   C337      1.0  0.93979  0.7078699999999999  0.77793  1.0000
  C   C338      1.0  0.91855  0.68679  0.73806  1.0000
  C   C339      1.0  0.9646000000000001  0.64468  0.72157  1.0000
  C   C340      1.0  0.85094  0.70612  0.7175499999999999  1.0000
  C   C341      1.0  0.19331000000000007  0.23029  0.6263  1.0000
  C   C342      1.0  0.26629  0.20440999999999998  0.60922  1.0000
  C   C343      1.0  0.3026000000000001  0.16031  0.62862  1.0000
  C   C344      1.0  0.29624  0.22147  0.57247  1.0000
  C   C345      1.0  0.9431400000000002  0.38516  0.63724  1.0000
  C   C346      1.0  0.49751000000000006  0.8935599999999999  0.59111  1.0000
  C   C347      1.0  0.49179  0.9527  0.58183  1.0000
  C   C348      1.0  0.52845  0.99096  0.60678  1.0000
  C   C349      1.0  0.52362  0.04624999999999999  0.59819  1.0000
  C   C350      1.0  0.4804300000000002  0.06473  0.56522  1.0000
  C   C351      1.0  0.44329000000000013  0.02637  0.54058  1.0000
  C   C352      1.0  0.44953  0.9709299999999998  0.54851  1.0000
  O   O1        1.0  0.8931500000000002  0.8515499999999999  0.8511899999999998  1.0000
  O   O2        1.0  0.9326600000000003  0.17716  0.051399999999999994  1.0000
  O   O3        1.0  0.00368  0.24497999999999998  0.02147  1.0000
  O   O4        1.0  0.51996  0.38099  0.87358  1.0000
  O   O5        1.0  0.47952  0.35983  0.93633  1.0000
  O   O6        1.0  0.8332800000000002  0.7222  0.93294  1.0000
  O   O7        1.0  0.79323  0.7411599999999999  0.87004  1.0000
  O   O8        1.0  0.89328  0.24575999999999998  0.70726  1.0000
  O   O9        1.0  0.00028000000000000003  0.18766  0.70615  1.0000
  O   O10       1.0  0.17386  0.77821  0.88882  1.0000
  O   O11       1.0  0.15537  0.70575  0.84818  1.0000
  O   O12       1.0  0.98712  0.74644  0.88033  1.0000
  O   O13       1.0  0.01914  0.8753499999999997  0.87236  1.0000
  O   O14       1.0  0.3894300000000001  0.64851  0.64889  1.0000
  O   O15       1.0  0.42893  0.32029  0.44844  1.0000
  O   O16       1.0  0.5073  0.25625  0.47830999999999996  1.0000
  O   O17       1.0  0.0199  0.11875  0.62614  1.0000
  O   O18       1.0  0.97974  0.14009  0.5634999999999999  1.0000
  O   O19       1.0  0.33297  0.77807  0.5675  1.0000
  O   O20       1.0  0.2929  0.75923  0.63051  1.0000
  O   O21       1.0  0.3933000000000001  0.25662  0.7936  1.0000
  O   O22       1.0  0.50337  0.31216  0.7937  1.0000
  O   O23       1.0  0.6733  0.7225399999999998  0.61322  1.0000
  O   O24       1.0  0.65494  0.79626  0.6528399999999999  1.0000
  O   O25       1.0  0.48621000000000003  0.75387  0.62021  1.0000
  O   O26       1.0  0.51663  0.62623  0.62884  1.0000
  O   O27       1.0  0.60684  0.8515499999999999  0.14881  1.0000
  O   O28       1.0  0.56733  0.17716  0.9485999999999999  1.0000
  O   O29       1.0  0.4963099999999999  0.24497999999999998  0.97853  1.0000
  O   O30       1.0  0.9800300000000001  0.38099  0.12641  1.0000
  O   O31       1.0  0.02047  0.35983  0.06367  1.0000
  O   O32       1.0  0.66671  0.7222  0.06705  1.0000
  O   O33       1.0  0.70676  0.7411599999999999  0.12996  1.0000
  O   O34       1.0  0.60672  0.24575999999999998  0.29273  1.0000
  O   O35       1.0  0.49971  0.18766  0.29384  1.0000
  O   O36       1.0  0.32614  0.77821  0.11117  1.0000
  O   O37       1.0  0.34462  0.70575  0.15182  1.0000
  O   O38       1.0  0.5128700000000003  0.74644  0.11965999999999999  1.0000
  O   O39       1.0  0.48085  0.8753499999999997  0.12764  1.0000
  O   O40       1.0  0.11057  0.64851  0.3511  1.0000
  O   O41       1.0  0.07106000000000003  0.32029  0.55156  1.0000
  O   O42       1.0  0.9926899999999999  0.25625  0.5216799999999999  1.0000
  O   O43       1.0  0.48009  0.11875  0.37386  1.0000
  O   O44       1.0  0.52025  0.14009  0.4365  1.0000
  O   O45       1.0  0.16702  0.77807  0.4325  1.0000
  O   O46       1.0  0.20709  0.75923  0.36949  1.0000
  O   O47       1.0  0.1067  0.25662  0.20639  1.0000
  O   O48       1.0  0.9966199999999998  0.31216  0.20629  1.0000
  O   O49       1.0  0.8267  0.7225399999999998  0.38678  1.0000
  O   O50       1.0  0.84505  0.79626  0.34715  1.0000
  O   O51       1.0  0.013790000000000002  0.75387  0.37979  1.0000
  O   O52       1.0  0.98337  0.62623  0.37116  1.0000
  O   O53       1.0  0.10684  0.14845  0.14881  1.0000
  O   O54       1.0  0.06733000000000003  0.82285  0.9485999999999999  1.0000
  O   O55       1.0  0.99631  0.75502  0.97853  1.0000
  O   O56       1.0  0.48003  0.61901  0.12641  1.0000
  O   O57       1.0  0.52047  0.64017  0.06367  1.0000
  O   O58       1.0  0.16671  0.2778  0.06705  1.0000
  O   O59       1.0  0.20677  0.25884  0.12996  1.0000
  O   O60       1.0  0.10672000000000002  0.75425  0.29273  1.0000
  O   O61       1.0  0.99971  0.81234  0.29384  1.0000
  O   O62       1.0  0.82613  0.22178999999999993  0.11117  1.0000
  O   O63       1.0  0.84462  0.29425  0.15182  1.0000
  O   O64       1.0  0.01288  0.25356  0.11965999999999999  1.0000
  O   O65       1.0  0.98086  0.12465  0.12764  1.0000
  O   O66       1.0  0.61057  0.35149  0.3511  1.0000
  O   O67       1.0  0.57106  0.67971  0.55156  1.0000
  O   O68       1.0  0.49268999999999996  0.74375  0.5216799999999999  1.0000
  O   O69       1.0  0.98009  0.88126  0.37386  1.0000
  O   O70       1.0  0.02025  0.85991  0.4365  1.0000
  O   O71       1.0  0.66702  0.22192999999999996  0.4325  1.0000
  O   O72       1.0  0.70709  0.24078  0.36949  1.0000
  O   O73       1.0  0.6067000000000001  0.74338  0.20639  1.0000
  O   O74       1.0  0.49662  0.68784  0.20629  1.0000
  O   O75       1.0  0.3267  0.27747  0.38678  1.0000
  O   O76       1.0  0.34505  0.20373999999999998  0.34715  1.0000
  O   O77       1.0  0.51379  0.24612999999999996  0.37979  1.0000
  O   O78       1.0  0.48336000000000007  0.37376999999999994  0.37116  1.0000
  O   O79       1.0  0.39315  0.14845  0.8511899999999998  1.0000
  O   O80       1.0  0.43266  0.82285  0.051399999999999994  1.0000
  O   O81       1.0  0.50368  0.75502  0.02147  1.0000
  O   O82       1.0  0.01996  0.61901  0.87358  1.0000
  O   O83       1.0  0.97952  0.64017  0.93633  1.0000
  O   O84       1.0  0.33328  0.2778  0.93294  1.0000
  O   O85       1.0  0.2932300000000001  0.25884  0.87004  1.0000
  O   O86       1.0  0.39328  0.75425  0.70726  1.0000
  O   O87       1.0  0.50029  0.81234  0.70615  1.0000
  O   O88       1.0  0.6738600000000002  0.22178999999999993  0.88882  1.0000
  O   O89       1.0  0.65537  0.29425  0.84818  1.0000
  O   O90       1.0  0.48712000000000005  0.25356  0.88033  1.0000
  O   O91       1.0  0.51914  0.12465  0.87236  1.0000
  O   O92       1.0  0.88943  0.35149  0.64889  1.0000
  O   O93       1.0  0.92893  0.67971  0.44844  1.0000
  O   O94       1.0  0.007300000000000003  0.74375  0.47830999999999996  1.0000
  O   O95       1.0  0.5199  0.88126  0.62614  1.0000
  O   O96       1.0  0.47974  0.85991  0.5634999999999999  1.0000
  O   O97       1.0  0.8329700000000002  0.22192999999999996  0.5675  1.0000
  O   O98       1.0  0.7929  0.24078  0.63051  1.0000
  O   O99       1.0  0.8933  0.74338  0.7936  1.0000
  O   O100      1.0  0.0033700000000000006  0.68784  0.7937  1.0000
  O   O101      1.0  0.17330000000000007  0.27747  0.61322  1.0000
  O   O102      1.0  0.15494  0.20373999999999998  0.6528399999999999  1.0000
  O   O103      1.0  0.9862000000000001  0.24612999999999996  0.62021  1.0000
  O   O104      1.0  0.016630000000000006  0.37376999999999994  0.62884  1.0000
