data_image0
_chemical_formula_structural       In36H312C480N96O156
_chemical_formula_sum              "In36 H312 C480 N96 O156"
_cell_length_a       33.91292
_cell_length_b       33.83471
_cell_length_c       33.89693
_cell_angle_alpha    109.07104
_cell_angle_beta     109.11584999999998
_cell_angle_gamma    110.24035999999998

_symmetry_space_group_name_H-M    'P 1'
_symmetry_Int_Tables_number       1

loop_
  _symmetry_equiv_pos_as_xyz
  'x,y,z'

loop_
  _atom_site_type_symbol
  _atom_site_label
  _atom_site_symmetry_multiplicity
  _atom_site_fract_x
  _atom_site_fract_y
  _atom_site_fract_z
  _atom_site_occupancy
  In  In1       1.0  0.32811000000000007  0.60612  0.69377  1.0000
  In  In2       1.0  0.17105  0.86603  0.27792  1.0000
  In  In3       1.0  0.41288  0.6341699999999999  0.8058499999999997  1.0000
  In  In4       1.0  0.08704999999999995  0.89389  0.22137  1.0000
  In  In5       1.0  0.27805  0.67014  0.36176  1.0000
  In  In6       1.0  0.6907000000000002  0.8326  0.11090999999999998  1.0000
  In  In7       1.0  0.22330999999999987  0.5858499999999996  0.39280999999999994  1.0000
  In  In8       1.0  0.8072800000000003  0.91789  0.14088999999999996  1.0000
  In  In9       1.0  0.38639999999999997  0.7223999999999999  0.08018999999999997  1.0000
  In  In10      1.0  0.14053999999999994  0.30721999999999994  0.4180099999999999  1.0000
  In  In11      1.0  0.35755000000000003  0.77734  0.16445999999999994  1.0000
  In  In12      1.0  0.11173999999999998  0.19397999999999993  0.33407  1.0000
  In  In13      1.0  0.6696399999999999  0.27769999999999995  0.8624199999999999  1.0000
  In  In14      1.0  0.8298800000000001  0.69268  0.6075699999999998  1.0000
  In  In15      1.0  0.58454  0.22215999999999989  0.8917099999999998  1.0000
  In  In16      1.0  0.9150199999999997  0.8072499999999998  0.6370199999999999  1.0000
  In  In17      1.0  0.72212  0.38809999999999995  0.5813299999999999  1.0000
  In  In18      1.0  0.30708000000000013  0.14125999999999997  0.91823  1.0000
  In  In19      1.0  0.7769799999999999  0.35858999999999996  0.6656299999999999  1.0000
  In  In20      1.0  0.1931699999999999  0.1116699999999999  0.8337599999999997  1.0000
  In  In21      1.0  0.60742  0.33027  0.19375  1.0000
  In  In22      1.0  0.8643899999999999  0.1704599999999999  0.7786699999999998  1.0000
  In  In23      1.0  0.6356200000000001  0.41401  0.30591  1.0000
  In  In24      1.0  0.89284  0.08672999999999992  0.7233199999999997  1.0000
  In  In25      1.0  0.28562999999999983  0.5354099999999996  0.7488799999999998  1.0000
  In  In26      1.0  0.21322999999999998  0.9655899999999997  0.24999999999999994  1.0000
  In  In27      1.0  0.25043999999999994  0.7092099999999999  0.45850999999999986  1.0000
  In  In28      1.0  0.74942  0.79783  0.04783  1.0000
  In  In29      1.0  0.44975  0.7497899999999997  0.20029999999999995  1.0000
  In  In30      1.0  0.047649999999999915  0.2511199999999999  0.2975199999999999  1.0000
  In  In31      1.0  0.708  0.24984999999999993  0.95794  1.0000
  In  In32      1.0  0.7913599999999998  0.7501299999999997  0.54132  1.0000
  In  In33      1.0  0.7499500000000003  0.45263  0.7023299999999999  1.0000
  In  In34      1.0  0.24962000000000004  0.04743000000000001  0.7972  1.0000
  In  In35      1.0  0.5381599999999999  0.28803999999999996  0.24981999999999993  1.0000
  In  In36      1.0  0.96168  0.21211999999999995  0.74991  1.0000
  H   H1        1.0  0.13749  0.33558  0.51118  1.0000
  H   H2        1.0  0.23398000000000002  0.40705  0.47448999999999997  1.0000
  H   H3        1.0  0.19950999999999988  0.4338399999999998  0.6355199999999998  1.0000
  H   H4        1.0  0.15384999999999993  0.3716699999999999  0.5938599999999998  1.0000
  H   H5        1.0  0.28208  0.4815  0.55732  1.0000
  H   H6        1.0  0.34392000000000006  0.4406  0.7731899999999998  1.0000
  H   H7        1.0  0.4687300000000001  0.34719  0.84986  1.0000
  H   H8        1.0  0.48774999999999996  0.56183  0.8477699999999999  1.0000
  H   H9        1.0  0.6309600000000002  0.39131  0.86417  1.0000
  H   H10       1.0  0.5927699999999999  0.4409999999999998  0.8503999999999998  1.0000
  H   H11       1.0  0.5074799999999998  0.29848  0.86489  1.0000
  H   H12       1.0  0.37789999999999996  0.3884399999999999  0.78994  1.0000
  H   H13       1.0  0.5221600000000002  0.50933  0.8615099999999998  1.0000
  H   H14       1.0  0.3625499999999999  0.8745  0.19924999999999995  1.0000
  H   H15       1.0  0.26674  0.7408  0.17434999999999998  1.0000
  H   H16       1.0  0.2980999999999999  0.9349399999999998  0.23315  1.0000
  H   H17       1.0  0.34529  0.9405399999999998  0.21869  1.0000
  H   H18       1.0  0.21861  0.7755499999999997  0.20106  1.0000
  H   H19       1.0  0.15588999999999995  0.92914  0.09632  1.0000
  H   H20       1.0  0.03121999999999996  0.88095  0.87806  1.0000
  H   H21       1.0  0.01203999999999998  0.85986  0.07347  1.0000
  H   H22       1.0  0.8688699999999999  0.7330499999999999  0.7596799999999998  1.0000
  H   H23       1.0  0.9068099999999998  0.7575999999999999  0.8474099999999998  1.0000
  H   H24       1.0  0.99284  0.85749  0.79087  1.0000
  H   H25       1.0  0.12189000000000005  0.91173  0.010249999999999997  1.0000
  H   H26       1.0  0.9776400000000001  0.8392299999999999  0.98679  1.0000
  H   H27       1.0  0.3242199999999999  0.6252999999999999  0.9875399999999998  1.0000
  H   H28       1.0  0.43273000000000006  0.75952  0.026319999999999993  1.0000
  H   H29       1.0  0.29896999999999985  0.5652299999999998  0.8631699999999998  1.0000
  H   H30       1.0  0.27870000000000006  0.55958  0.9046399999999999  1.0000
  H   H31       1.0  0.42596000000000006  0.72529  0.9438699999999998  1.0000
  H   H32       1.0  0.16715000000000002  0.57036  0.72706  1.0000
  H   H33       1.0  0.99742  0.61869  0.65051  1.0000
  H   H34       1.0  0.21400999999999995  0.6397899999999999  0.6526799999999999  1.0000
  H   H35       1.0  0.026889999999999976  0.7665799999999998  0.63567  1.0000
  H   H36       1.0  0.09015000000000001  0.74205  0.64933  1.0000
  H   H37       1.0  0.93376  0.64239  0.6354  1.0000
  H   H38       1.0  0.09870999999999994  0.58787  0.7104399999999997  1.0000
  H   H39       1.0  0.14815000000000003  0.66062  0.63867  1.0000
  H   H40       1.0  0.17576  0.16433999999999999  0.30235  1.0000
  H   H41       1.0  0.06836000000000002  0.09476000000000002  0.32883  1.0000
  H   H42       1.0  0.19915000000000002  0.06403999999999997  0.264  1.0000
  H   H43       1.0  0.22149  0.12678  0.28196  1.0000
  H   H44       1.0  0.07473999999999993  0.01866999999999994  0.30065999999999987  1.0000
  H   H45       1.0  0.3326  0.059779999999999944  0.4034799999999999  1.0000
  H   H46       1.0  0.50289  0.15285999999999988  0.6214199999999998  1.0000
  H   H47       1.0  0.28587000000000007  0.93799  0.4258  1.0000
  H   H48       1.0  0.4728599999999998  0.10893999999999991  0.7396499999999998  1.0000
  H   H49       1.0  0.4097000000000001  0.05916  0.65185  1.0000
  H   H50       1.0  0.5662799999999999  0.20164999999999988  0.7086399999999998  1.0000
  H   H51       1.0  0.40101999999999993  0.11146999999999994  0.4893399999999999  1.0000
  H   H52       1.0  0.35170999999999997  0.9900799999999998  0.51232  1.0000
  H   H53       1.0  0.1971  0.8609  0.37256  1.0000
  H   H54       1.0  0.16898  0.76536  0.24029999999999999  1.0000
  H   H55       1.0  0.23698999999999995  0.80135  0.4364499999999999  1.0000
  H   H56       1.0  0.21727000000000002  0.84376  0.4383099999999999  1.0000
  H   H57       1.0  0.19800000000000004  0.71844  0.2749  1.0000
  H   H58       1.0  0.09933999999999991  0.6577499999999997  0.43005  1.0000
  H   H59       1.0  0.87972  0.53087  0.3808299999999999  1.0000
  H   H60       1.0  0.07512999999999995  0.51392  0.36054999999999987  1.0000
  H   H61       1.0  0.75934  0.3695599999999999  0.23364999999999994  1.0000
  H   H62       1.0  0.84778  0.40734  0.25858  1.0000
  H   H63       1.0  0.7917000000000001  0.49246999999999996  0.35693999999999987  1.0000
  H   H64       1.0  0.012839999999999952  0.62286  0.4123499999999999  1.0000
  H   H65       1.0  0.9880500000000001  0.47897  0.34016  1.0000
  H   H66       1.0  0.5137  0.6383499999999999  0.8369699999999999  1.0000
  H   H67       1.0  0.47862  0.73461  0.90663  1.0000
  H   H68       1.0  0.6387899999999999  0.69917  0.9320899999999998  1.0000
  H   H69       1.0  0.59553  0.65456  0.87195  1.0000
  H   H70       1.0  0.56108  0.7817399999999999  0.9809399999999998  1.0000
  H   H71       1.0  0.7712500000000003  0.83823  0.9397099999999999  1.0000
  H   H72       1.0  0.84909  0.96767  0.8485599999999998  1.0000
  H   H73       1.0  0.8435700000000003  0.98142  0.060419999999999995  1.0000
  H   H74       1.0  0.8641200000000002  0.12974999999999992  0.8916899999999999  1.0000
  H   H75       1.0  0.8501000000000002  0.09050999999999991  0.9411599999999998  1.0000
  H   H76       1.0  0.8644199999999999  0.007539999999999845  0.8001599999999998  1.0000
  H   H77       1.0  0.78849  0.87466  0.8892599999999999  1.0000
  H   H78       1.0  0.8584700000000002  0.01765  0.00928  1.0000
  H   H79       1.0  0.3020899999999999  0.67543  0.6636099999999998  1.0000
  H   H80       1.0  0.3292300000000001  0.5703  0.59522  1.0000
  H   H81       1.0  0.26457  0.70156  0.56567  1.0000
  H   H82       1.0  0.28284999999999993  0.72192  0.62724  1.0000
  H   H83       1.0  0.30152  0.57767  0.52025  1.0000
  H   H84       1.0  0.4009  0.83084  0.558  1.0000
  H   H85       1.0  0.62037  0.0013999999999999822  0.65126  1.0000
  H   H86       1.0  0.42527999999999994  0.7856299999999998  0.43868  1.0000
  H   H87       1.0  0.7406700000000003  0.9745899999999997  0.61051  1.0000
  H   H88       1.0  0.65226  0.9107599999999996  0.5600699999999998  1.0000
  H   H89       1.0  0.7083900000000002  0.06574000000000005  0.70095  1.0000
  H   H90       1.0  0.48735  0.89968  0.60977  1.0000
  H   H91       1.0  0.5123999999999999  0.8523999999999997  0.4910799999999999  1.0000
  H   H92       1.0  0.98631  0.82348  0.12447999999999997  1.0000
  H   H93       1.0  0.02081999999999996  0.9284499999999998  0.25532  1.0000
  H   H94       1.0  0.86095  0.79254  0.059509999999999987  1.0000
  H   H95       1.0  0.9044300000000002  0.77587  0.05853999999999999  1.0000
  H   H96       1.0  0.93797  0.9192599999999997  0.21982999999999994  1.0000
  H   H97       1.0  0.72811  0.6684199999999998  0.06717  1.0000
  H   H98       1.0  0.65091  0.4996199999999999  0.11874  1.0000
  H   H99       1.0  0.65604  0.71657  0.13812  1.0000
  H   H100      1.0  0.63595  0.5274899999999998  0.2655  1.0000
  H   H101      1.0  0.64965  0.59103  0.24032999999999993  1.0000
  H   H102      1.0  0.6356800000000002  0.4356799999999999  0.14296999999999999  1.0000
  H   H103      1.0  0.71136  0.60065  0.08643999999999998  1.0000
  H   H104      1.0  0.64141  0.65044  0.15941999999999998  1.0000
  H   H105      1.0  0.66215  0.79993  0.17806  1.0000
  H   H106      1.0  0.58833  0.82229  0.07053  1.0000
  H   H107      1.0  0.57004  0.76899  0.21344999999999995  1.0000
  H   H108      1.0  0.62893  0.7811999999999999  0.22643  1.0000
  H   H109      1.0  0.5163  0.79783  0.0834  1.0000
  H   H110      1.0  0.56373  0.8986199999999999  0.3341999999999999  1.0000
  H   H111      1.0  0.65047  0.11649999999999999  0.49902  1.0000
  H   H112      1.0  0.44034000000000006  0.9155100000000002  0.28084  1.0000
  H   H113      1.0  0.6068599999999998  0.23473999999999995  0.47041  1.0000
  H   H114      1.0  0.55773  0.14688999999999997  0.40747999999999995  1.0000
  H   H115      1.0  0.6984499999999999  0.20403999999999997  0.56234  1.0000
  H   H116      1.0  0.61227  0.98528  0.39919  1.0000
  H   H117      1.0  0.48918000000000006  0.002599999999999927  0.3447199999999999  1.0000
  H   H118      1.0  0.12619  0.48832  0.32416999999999996  1.0000
  H   H119      1.0  0.25672  0.52315  0.4304799999999999  1.0000
  H   H120      1.0  0.059669999999999966  0.36171  0.29289  1.0000
  H   H121      1.0  0.059140000000000005  0.40611  0.2768  1.0000
  H   H122      1.0  0.22004999999999997  0.43864999999999993  0.41981  1.0000
  H   H123      1.0  0.06801999999999998  0.22870999999999994  0.16758  1.0000
  H   H124      1.0  0.11809  0.15093  0.00016  1.0000
  H   H125      1.0  0.13762  0.15648999999999993  0.21711  1.0000
  H   H126      1.0  0.26478  0.13620999999999994  0.02838  1.0000
  H   H127      1.0  0.23985  0.14972999999999997  0.09143999999999997  1.0000
  H   H128      1.0  0.14203999999999997  0.1357599999999999  0.9365799999999999  1.0000
  H   H129      1.0  0.08690000000000002  0.21142  0.10014  1.0000
  H   H130      1.0  0.15847000000000003  0.14126  0.15137  1.0000
  H   H131      1.0  0.3769000000000001  0.6994599999999999  0.36245  1.0000
  H   H132      1.0  0.24774999999999994  0.6767399999999998  0.26566  1.0000
  H   H133      1.0  0.44457999999999986  0.7305199999999997  0.3025699999999999  1.0000
  H   H134      1.0  0.44416000000000005  0.71812  0.34876  1.0000
  H   H135      1.0  0.28521  0.70079  0.21798999999999993  1.0000
  H   H136      1.0  0.43488  0.60108  0.16511  1.0000
  H   H137      1.0  0.3821500000000001  0.38324  0.03363  1.0000
  H   H138      1.0  0.36499  0.58447  0.02486  1.0000
  H   H139      1.0  0.23559000000000002  0.2651899999999999  0.8720399999999999  1.0000
  H   H140      1.0  0.26052  0.35305  0.91058  1.0000
  H   H141      1.0  0.3579799999999999  0.2956499999999999  0.9942099999999998  1.0000
  H   H142      1.0  0.4138899999999999  0.5144399999999998  0.12695  1.0000
  H   H143      1.0  0.3423500000000001  0.4974  0.98669  1.0000
  H   H144      1.0  0.83679  0.01305999999999999  0.13795  1.0000
  H   H145      1.0  0.9087799999999999  0.9773  0.23297999999999994  1.0000
  H   H146      1.0  0.93264  0.14005999999999993  0.19987  1.0000
  H   H147      1.0  0.8721300000000001  0.09584999999999998  0.15367  1.0000
  H   H148      1.0  0.98212  0.06171000000000001  0.28105  1.0000
  H   H149      1.0  0.9390499999999999  0.27181  0.3392999999999999  1.0000
  H   H150      1.0  0.8494199999999997  0.34932  0.4672399999999999  1.0000
  H   H151      1.0  0.0607699999999999  0.3438199999999999  0.4810099999999999  1.0000
  H   H152      1.0  0.8919799999999999  0.3637799999999999  0.6286499999999998  1.0000
  H   H153      1.0  0.94164  0.35022  0.5903  1.0000
  H   H154      1.0  0.80093  0.3644  0.5064  1.0000
  H   H155      1.0  0.88877  0.2885  0.37572  1.0000
  H   H156      1.0  0.009999999999999959  0.3582399999999999  0.51719  1.0000
  H   H157      1.0  0.86231  0.19864999999999983  0.8744899999999998  1.0000
  H   H158      1.0  0.7673600000000003  0.17256  0.74264  1.0000
  H   H159      1.0  0.80026  0.23356  0.93736  1.0000
  H   H160      1.0  0.84515  0.21741  0.93968  1.0000
  H   H161      1.0  0.71951  0.19928  0.7772  1.0000
  H   H162      1.0  0.65831  0.09906999999999999  0.93082  1.0000
  H   H163      1.0  0.5313099999999998  0.87925  0.8808899999999998  1.0000
  H   H164      1.0  0.51494  0.07515  0.86086  1.0000
  H   H165      1.0  0.36986000000000013  0.75899  0.73418  1.0000
  H   H166      1.0  0.40809999999999996  0.8476399999999997  0.7588199999999999  1.0000
  H   H167      1.0  0.49243000000000003  0.79099  0.8571099999999999  1.0000
  H   H168      1.0  0.62314  0.012199999999999878  0.9126199999999998  1.0000
  H   H169      1.0  0.4797799999999999  0.98782  0.8401899999999998  1.0000
  H   H170      1.0  0.63772  0.5118599999999999  0.3363899999999999  1.0000
  H   H171      1.0  0.73267  0.47442  0.40464999999999995  1.0000
  H   H172      1.0  0.7002699999999998  0.6368  0.4341399999999999  1.0000
  H   H173      1.0  0.65539  0.59476  0.37287  1.0000
  H   H174      1.0  0.7805599999999999  0.5567699999999999  0.47949999999999987  1.0000
  H   H175      1.0  0.84247  0.77281  0.4412  1.0000
  H   H176      1.0  0.96855  0.84957  0.3478299999999999  1.0000
  H   H177      1.0  0.9861500000000001  0.8467999999999999  0.56055  1.0000
  H   H178      1.0  0.1299299999999999  0.86441  0.38886  1.0000
  H   H179      1.0  0.09168999999999998  0.8505  0.43915999999999994  1.0000
  H   H180      1.0  0.007330000000000033  0.8648600000000001  0.29854  1.0000
  H   H181      1.0  0.87737  0.7896499999999997  0.38938  1.0000
  H   H182      1.0  0.02098000000000007  0.8609200000000001  0.50805  1.0000
  H   H183      1.0  0.67525  0.30191  0.16403  1.0000
  H   H184      1.0  0.5697000000000002  0.3278399999999999  0.09425999999999997  1.0000
  H   H185      1.0  0.7036100000000001  0.26706999999999986  0.06733999999999998  1.0000
  H   H186      1.0  0.72184  0.283  0.12827  1.0000
  H   H187      1.0  0.5777399999999999  0.30059  0.0198  1.0000
  H   H188      1.0  0.8319000000000002  0.4009  0.05939  1.0000
  H   H189      1.0  0.0017999999999999882  0.62165  0.15243999999999994  1.0000
  H   H190      1.0  0.78598  0.4249999999999999  0.9397699999999998  1.0000
  H   H191      1.0  0.9739900000000001  0.7405399999999996  0.10918999999999997  1.0000
  H   H192      1.0  0.91035  0.65186  0.059819999999999984  1.0000
  H   H193      1.0  0.06559999999999999  0.70994  0.20082999999999995  1.0000
  H   H194      1.0  0.9002600000000001  0.48756999999999995  0.11086999999999997  1.0000
  H   H195      1.0  0.8524999999999999  0.5121899999999998  0.9918399999999998  1.0000
  H   H196      1.0  0.8250500000000002  0.98912  0.6272  1.0000
  H   H197      1.0  0.93061  0.025419999999999946  0.7590599999999998  1.0000
  H   H198      1.0  0.79756  0.8642299999999999  0.5638899999999999  1.0000
  H   H199      1.0  0.77868  0.9066499999999998  0.5617  1.0000
  H   H200      1.0  0.9227700000000001  0.94273  0.7237399999999998  1.0000
  H   H201      1.0  0.6685100000000002  0.72741  0.5696899999999999  1.0000
  H   H202      1.0  0.49831  0.65065  0.6197  1.0000
  H   H203      1.0  0.71391  0.65331  0.63926  1.0000
  H   H204      1.0  0.52571  0.63525  0.76625  1.0000
  H   H205      1.0  0.58953  0.6493  0.74132  1.0000
  H   H206      1.0  0.43435  0.6353599999999998  0.64394  1.0000
  H   H207      1.0  0.59983  0.71038  0.58745  1.0000
  H   H208      1.0  0.6473099999999999  0.6387399999999999  0.6597599999999999  1.0000
  H   H209      1.0  0.80103  0.66322  0.67561  1.0000
  H   H210      1.0  0.82636  0.59295  0.56978  1.0000
  H   H211      1.0  0.7667599999999999  0.5674799999999995  0.7064499999999998  1.0000
  H   H212      1.0  0.7825100000000001  0.62823  0.72321  1.0000
  H   H213      1.0  0.8001299999999999  0.5186399999999998  0.5793099999999998  1.0000
  H   H214      1.0  0.8992000000000002  0.55989  0.83157  1.0000
  H   H215      1.0  0.11673999999999987  0.6496399999999999  0.9988999999999998  1.0000
  H   H216      1.0  0.92012  0.4385199999999999  0.7823199999999998  1.0000
  H   H217      1.0  0.23529999999999987  0.6068899999999998  0.9706599999999997  1.0000
  H   H218      1.0  0.14749999999999988  0.55736  0.9073999999999998  1.0000
  H   H219      1.0  0.20403  0.69794  0.062449999999999985  1.0000
  H   H220      1.0  0.9854000000000002  0.61051  0.8990799999999998  1.0000
  H   H221      1.0  0.006620000000000021  0.48953  0.84789  1.0000
  H   H222      1.0  0.4871599999999998  0.12489999999999989  0.8242499999999998  1.0000
  H   H223      1.0  0.52342  0.25639000000000006  0.93076  1.0000
  H   H224      1.0  0.36060000000000003  0.06024000000000003  0.79307  1.0000
  H   H225      1.0  0.40465999999999985  0.05871999999999991  0.7767599999999998  1.0000
  H   H226      1.0  0.4393499999999999  0.22067999999999993  0.9206399999999998  1.0000
  H   H227      1.0  0.22824000000000005  0.06763000000000004  0.66751  1.0000
  H   H228      1.0  0.15093  0.11829999999999999  0.50006  1.0000
  H   H229      1.0  0.1562599999999999  0.1377199999999999  0.7168699999999998  1.0000
  H   H230      1.0  0.13626  0.26538  0.52849  1.0000
  H   H231      1.0  0.14987999999999999  0.24019999999999989  0.59155  1.0000
  H   H232      1.0  0.13569  0.14252000000000004  0.43644  1.0000
  H   H233      1.0  0.21133000000000002  0.0867  0.60012  1.0000
  H   H234      1.0  0.1414299999999999  0.1587299999999999  0.6511099999999997  1.0000
  H   H235      1.0  0.6995899999999998  0.3753099999999998  0.8623699999999997  1.0000
  H   H236      1.0  0.6745  0.24363999999999994  0.7673599999999999  1.0000
  H   H237      1.0  0.73277  0.4396899999999999  0.8000899999999997  1.0000
  H   H238      1.0  0.71804  0.4413399999999999  0.84576  1.0000
  H   H239      1.0  0.69993  0.27915  0.71877  1.0000
  H   H240      1.0  0.59999  0.43226  0.66046  1.0000
  H   H241      1.0  0.38202  0.38189  0.53258  1.0000
  H   H242      1.0  0.57901  0.3620999999999999  0.5183399999999999  1.0000
  H   H243      1.0  0.26327000000000006  0.23492999999999994  0.3712299999999999  1.0000
  H   H244      1.0  0.35118999999999995  0.25977  0.4094699999999999  1.0000
  H   H245      1.0  0.2945499999999999  0.35790999999999995  0.49361999999999995  1.0000
  H   H246      1.0  0.51381  0.41345  0.62477  1.0000
  H   H247      1.0  0.49243999999999993  0.3411999999999999  0.4828199999999999  1.0000
  H   H248      1.0  0.012789999999999954  0.8368599999999999  0.6376799999999999  1.0000
  H   H249      1.0  0.9770700000000001  0.9073199999999999  0.7332  1.0000
  H   H250      1.0  0.13918999999999987  0.9325699999999999  0.6992999999999998  1.0000
  H   H251      1.0  0.09524  0.87185  0.65411  1.0000
  H   H252      1.0  0.06083999999999997  0.98137  0.7814199999999999  1.0000
  H   H253      1.0  0.2715499999999999  0.9398799999999999  0.8391199999999998  1.0000
  H   H254      1.0  0.3492099999999999  0.8504199999999996  0.9671299999999998  1.0000
  H   H255      1.0  0.34358999999999995  0.0614699999999999  0.9812299999999998  1.0000
  H   H256      1.0  0.36365000000000003  0.89306  0.12851  1.0000
  H   H257      1.0  0.3499600000000001  0.94271  0.09007  1.0000
  H   H258      1.0  0.36441  0.8018999999999997  0.006289999999999998  1.0000
  H   H259      1.0  0.28872  0.88932  0.87511  1.0000
  H   H260      1.0  0.35818  0.0102  0.01694  1.0000
  H   H261      1.0  0.3351  0.13755  0.011729999999999997  1.0000
  H   H262      1.0  0.40705  0.23409  0.97565  1.0000
  H   H263      1.0  0.43285000000000007  0.19947999999999996  0.13644999999999996  1.0000
  H   H264      1.0  0.37113  0.15331999999999996  0.09412  1.0000
  H   H265      1.0  0.48147  0.28201  0.05830999999999999  1.0000
  H   H266      1.0  0.43842  0.34122  0.2726  1.0000
  H   H267      1.0  0.3469700000000001  0.46821999999999997  0.3493699999999999  1.0000
  H   H268      1.0  0.56041  0.48507  0.346  1.0000
  H   H269      1.0  0.39184  0.63078  0.3635699999999999  1.0000
  H   H270      1.0  0.44138999999999995  0.5922199999999997  0.35025  1.0000
  H   H271      1.0  0.2986400000000001  0.50749  0.36414  1.0000
  H   H272      1.0  0.3874600000000001  0.37650999999999996  0.28930999999999996  1.0000
  H   H273      1.0  0.5088  0.52012  0.3598899999999999  1.0000
  H   H274      1.0  0.8739599999999998  0.36249999999999993  0.6973999999999999  1.0000
  H   H275      1.0  0.74165  0.26553  0.67293  1.0000
  H   H276      1.0  0.93732  0.30097999999999986  0.73349  1.0000
  H   H277      1.0  0.9407400000000004  0.34693  0.71761  1.0000
  H   H278      1.0  0.77697  0.21807  0.70008  1.0000
  H   H279      1.0  0.9313600000000003  0.15902000000000005  0.59856  1.0000
  H   H280      1.0  0.88162  0.03210999999999999  0.38056  1.0000
  H   H281      1.0  0.8609099999999998  0.015149999999999898  0.5765999999999998  1.0000
  H   H282      1.0  0.73306  0.87016  0.26268  1.0000
  H   H283      1.0  0.75832  0.9078799999999998  0.35041  1.0000
  H   H284      1.0  0.85752  0.9936  0.2934  1.0000
  H   H285      1.0  0.91338  0.12418999999999994  0.51253  1.0000
  H   H286      1.0  0.8399500000000002  0.9802099999999999  0.49001  1.0000
  H   H287      1.0  0.62529  0.32312  0.4880099999999999  1.0000
  H   H288      1.0  0.75762  0.43131  0.52395  1.0000
  H   H289      1.0  0.56223  0.29571999999999987  0.3631399999999999  1.0000
  H   H290      1.0  0.55855  0.27642  0.40547  1.0000
  H   H291      1.0  0.7225599999999999  0.4228599999999999  0.44109  1.0000
  H   H292      1.0  0.56843  0.16681  0.22750999999999993  1.0000
  H   H293      1.0  0.6181100000000003  0.99932  0.15066999999999997  1.0000
  H   H294      1.0  0.63875  0.21575999999999992  0.15433999999999995  1.0000
  H   H295      1.0  0.7657800000000002  0.0284  0.13625  1.0000
  H   H296      1.0  0.7415000000000003  0.09189  0.14999  1.0000
  H   H297      1.0  0.6409900000000002  0.93514  0.13521  1.0000
  H   H298      1.0  0.58682  0.09891  0.21085  1.0000
  H   H299      1.0  0.65999  0.1502  0.14037  1.0000
  H   H300      1.0  0.16484999999999989  0.17702999999999983  0.8021699999999998  1.0000
  H   H301      1.0  0.09325000000000003  0.06862000000000003  0.82657  1.0000
  H   H302      1.0  0.06697999999999997  0.20393999999999995  0.7665  1.0000
  H   H303      1.0  0.12859000000000004  0.22338000000000005  0.78188  1.0000
  H   H304      1.0  0.018759999999999943  0.07675999999999994  0.8001699999999999  1.0000
  H   H305      1.0  0.06138999999999995  0.33434999999999987  0.90323  1.0000
  H   H306      1.0  0.15308  0.50254  0.12082999999999998  1.0000
  H   H307      1.0  0.93951  0.28569999999999995  0.9249799999999998  1.0000
  H   H308      1.0  0.10950000000000006  0.47314  0.23934  1.0000
  H   H309      1.0  0.059600000000000014  0.40977  0.1517  1.0000
  H   H310      1.0  0.20186000000000007  0.5663  0.20820999999999998  1.0000
  H   H311      1.0  0.11248999999999999  0.40177999999999997  0.98937  1.0000
  H   H312      1.0  0.99122  0.351  0.011569999999999997  1.0000
  C   C1        1.0  0.23639999999999997  0.44995999999999997  0.5825399999999998  1.0000
  C   C2        1.0  0.5942200000000001  0.31226999999999994  0.8732899999999999  1.0000
  C   C3        1.0  0.1700000000000001  0.36848  0.52307  1.0000
  C   C4        1.0  0.19518999999999995  0.40752999999999995  0.5703999999999999  1.0000
  C   C5        1.0  0.22438000000000005  0.40908  0.50241  1.0000
  C   C6        1.0  0.2630499999999999  0.49545  0.6300399999999998  1.0000
  C   C7        1.0  0.2503400000000001  0.44937  0.54789  1.0000
  C   C8        1.0  0.39323999999999987  0.53375  0.7971499999999999  1.0000
  C   C9        1.0  0.4139499999999999  0.5038  0.8090099999999998  1.0000
  C   C10       1.0  0.57167  0.34206  0.86545  1.0000
  C   C11       1.0  0.38271  0.45503  0.79296  1.0000
  C   C12       1.0  0.5042  0.35651  0.85326  1.0000
  C   C13       1.0  0.52877  0.39703  0.84937  1.0000
  C   C14       1.0  0.46435  0.5236  0.83465  1.0000
  C   C15       1.0  0.5957000000000001  0.38218999999999986  0.8611899999999998  1.0000
  C   C16       1.0  0.5746599999999997  0.4096399999999998  0.8535999999999998  1.0000
  C   C17       1.0  0.4518700000000001  0.44554  0.8256  1.0000
  C   C18       1.0  0.52576  0.32959999999999995  0.86143  1.0000
  C   C19       1.0  0.40145000000000014  0.42626  0.80188  1.0000
  C   C20       1.0  0.48335000000000006  0.49483  0.84254  1.0000
  C   C21       1.0  0.26368  0.84616  0.21442999999999995  1.0000
  C   C22       1.0  0.9055400000000005  0.77885  0.71748  1.0000
  C   C23       1.0  0.3303  0.85369  0.1998  1.0000
  C   C24       1.0  0.30484  0.87557  0.21341  1.0000
  C   C25       1.0  0.27632000000000007  0.77838  0.18616999999999995  1.0000
  C   C26       1.0  0.23594999999999994  0.86652  0.23183  1.0000
  C   C27       1.0  0.25024  0.79775  0.20046  1.0000
  C   C28       1.0  0.1064999999999999  0.9041699999999998  0.14022  1.0000
  C   C29       1.0  0.08583999999999997  0.89494  0.08942  1.0000
  C   C30       1.0  0.9282200000000002  0.7937399999999999  0.7698499999999998  1.0000
  C   C31       1.0  0.11708999999999992  0.9100499999999998  0.07194999999999999  1.0000
  C   C32       1.0  0.99563  0.84899  0.85188  1.0000
  C   C33       1.0  0.9710000000000001  0.82066  0.86782  1.0000
  C   C34       1.0  0.03547999999999998  0.87013  0.05876999999999999  1.0000
  C   C35       1.0  0.9041  0.76546  0.78587  1.0000
  C   C36       1.0  0.9250400000000002  0.7790099999999999  0.8343599999999998  1.0000
  C   C37       1.0  0.04788999999999996  0.87356  0.9932999999999997  1.0000
  C   C38       1.0  0.9742  0.83566  0.8034199999999998  1.0000
  C   C39       1.0  0.09832999999999992  0.9001799999999998  0.024469999999999992  1.0000
  C   C40       1.0  0.016449999999999992  0.8590499999999998  0.01105  1.0000
  C   C41       1.0  0.36914  0.65428  0.9180399999999999  1.0000
  C   C42       1.0  0.9389899999999999  0.72103  0.62679  1.0000
  C   C43       1.0  0.3459099999999999  0.6462999999999998  0.9764299999999998  1.0000
  C   C44       1.0  0.3382299999999999  0.6246299999999998  0.9293  1.0000
  C   C45       1.0  0.4074499999999999  0.72192  0.9982299999999997  1.0000
  C   C46       1.0  0.36722999999999995  0.63401  0.8704999999999998  1.0000
  C   C47       1.0  0.4030899999999999  0.7028099999999998  0.95308  1.0000
  C   C48       1.0  0.23615000000000003  0.59499  0.70307  1.0000
  C   C49       1.0  0.19476  0.60458  0.69148  1.0000
  C   C50       1.0  0.9764600000000001  0.70604  0.6345499999999998  1.0000
  C   C51       1.0  0.1619799999999998  0.5895299999999996  0.7073899999999997  1.0000
  C   C52       1.0  0.003239999999999979  0.65071  0.6468799999999999  1.0000
  C   C53       1.0  0.04750999999999994  0.67911  0.6506599999999998  1.0000
  C   C54       1.0  0.1890199999999999  0.62947  0.6658299999999998  1.0000
  C   C55       1.0  0.02071999999999986  0.7342299999999997  0.6386499999999998  1.0000
  C   C56       1.0  0.05569999999999996  0.72074  0.6462199999999999  1.0000
  C   C57       1.0  0.12009999999999994  0.6262199999999999  0.6746199999999999  1.0000
  C   C58       1.0  0.9681599999999999  0.6640899999999996  0.6386499999999998  1.0000
  C   C59       1.0  0.12444999999999998  0.59948  0.69841  1.0000
  C   C60       1.0  0.15246  0.64074  0.65775  1.0000
  C   C61       1.0  0.13065999999999994  0.04930999999999997  0.28552999999999995  1.0000
  C   C62       1.0  0.5609399999999999  0.18787999999999982  0.7818999999999998  1.0000
  C   C63       1.0  0.15457  0.13153  0.30201  1.0000
  C   C64       1.0  0.16182999999999997  0.09179  0.28739  1.0000
  C   C65       1.0  0.09352999999999995  0.09184  0.31643  1.0000
  C   C66       1.0  0.13079  0.002930000000000017  0.26504  1.0000
  C   C67       1.0  0.09754  0.05083  0.30116  1.0000
  C   C68       1.0  0.26342  0.96637  0.3591  1.0000
  C   C69       1.0  0.30501  0.9962  0.40993  1.0000
  C   C70       1.0  0.52342  0.15821  0.72959  1.0000
  C   C71       1.0  0.33772  0.04504999999999993  0.4276299999999999  1.0000
  C   C72       1.0  0.4968  0.14349999999999993  0.64752  1.0000
  C   C73       1.0  0.45247999999999994  0.10296999999999985  0.6315999999999998  1.0000
  C   C74       1.0  0.31077999999999995  0.9762299999999996  0.44043  1.0000
  C   C75       1.0  0.4790899999999999  0.11808999999999989  0.7135299999999998  1.0000
  C   C76       1.0  0.44417000000000006  0.09054  0.66504  1.0000
  C   C77       1.0  0.37977000000000005  0.05413999999999995  0.50612  1.0000
  C   C78       1.0  0.5318199999999998  0.1705499999999999  0.6960099999999999  1.0000
  C   C79       1.0  0.3753200000000001  0.07360999999999995  0.4751  1.0000
  C   C80       1.0  0.3474099999999999  0.004829999999999953  0.4881999999999999  1.0000
  C   C81       1.0  0.21474000000000004  0.76407  0.34608  1.0000
  C   C82       1.0  0.7173700000000001  0.40563999999999995  0.27881  1.0000
  C   C83       1.0  0.19694999999999988  0.8285199999999999  0.35197999999999996  1.0000
  C   C84       1.0  0.2126799999999999  0.8041199999999998  0.3745399999999999  1.0000
  C   C85       1.0  0.1816699999999999  0.7749599999999998  0.27774  1.0000
  C   C86       1.0  0.23510999999999996  0.7380799999999998  0.3666599999999999  1.0000
  C   C87       1.0  0.19781999999999988  0.7497899999999997  0.29722  1.0000
  C   C88       1.0  0.14312  0.60904  0.40497  1.0000
  C   C89       1.0  0.09208999999999999  0.58801  0.3958599999999999  1.0000
  C   C90       1.0  0.77015  0.4283600000000001  0.29383  1.0000
  C   C91       1.0  0.07470999999999997  0.61879  0.41092  1.0000
  C   C92       1.0  0.8530300000000001  0.4955  0.34903  1.0000
  C   C93       1.0  0.86879  0.47116  0.3210899999999999  1.0000
  C   C94       1.0  0.06089999999999998  0.53738  0.37103  1.0000
  C   C95       1.0  0.7860000000000003  0.40453  0.26593  1.0000
  C   C96       1.0  0.8348699999999999  0.42544  0.27966  1.0000
  C   C97       1.0  0.99524  0.54894  0.37431  1.0000
  C   C98       1.0  0.8042000000000001  0.47406999999999994  0.3354999999999999  1.0000
  C   C99       1.0  0.02684999999999996  0.59949  0.4009099999999999  1.0000
  C   C100      1.0  0.012859999999999946  0.51789  0.3599799999999999  1.0000
  C   C101      1.0  0.58624  0.73613  0.95083  1.0000
  C   C102      1.0  0.87314  0.09417999999999994  0.8130499999999999  1.0000
  C   C103      1.0  0.5258700000000002  0.67085  0.8693899999999998  1.0000
  C   C104      1.0  0.5735199999999998  0.6955399999999998  0.9086499999999997  1.0000
  C   C105      1.0  0.5062499999999999  0.7247999999999996  0.9088299999999998  1.0000
  C   C106      1.0  0.6339499999999999  0.7639399999999998  0.9961899999999998  1.0000
  C   C107      1.0  0.55154  0.7501899999999998  0.9493599999999999  1.0000
  C   C108      1.0  0.79474  0.88634  0.03299  1.0000
  C   C109      1.0  0.8056600000000002  0.9075099999999998  0.00289  1.0000
  C   C110      1.0  0.8651200000000001  0.07109000000000001  0.84299  1.0000
  C   C111      1.0  0.79045  0.8773399999999999  0.9546399999999999  1.0000
  C   C112      1.0  0.85261  0.0031099999999999947  0.85775  1.0000
  C   C113      1.0  0.8486499999999999  0.026879999999999883  0.8978299999999998  1.0000
  C   C114      1.0  0.8309300000000003  0.95835  0.0227  1.0000
  C   C115      1.0  0.86101  0.09450999999999998  0.88278  1.0000
  C   C116      1.0  0.8532400000000002  0.07283999999999988  0.9101199999999998  1.0000
  C   C117      1.0  0.82342  0.9481199999999997  0.94589  1.0000
  C   C118      1.0  0.8610000000000003  0.02528000000000003  0.83098  1.0000
  C   C119      1.0  0.7998000000000001  0.89747  0.9265999999999998  1.0000
  C   C120      1.0  0.8394800000000001  0.9785699999999999  0.9945899999999998  1.0000
  C   C121      1.0  0.2856899999999999  0.6326999999999998  0.5497599999999999  1.0000
  C   C122      1.0  0.7826400000000002  0.0619399999999999  0.6887499999999999  1.0000
  C   C123      1.0  0.30233  0.65496  0.63144  1.0000
  C   C124      1.0  0.28741999999999995  0.6626699999999998  0.5918499999999999  1.0000
  C   C125      1.0  0.31709999999999977  0.5956199999999996  0.5926399999999997  1.0000
  C   C126      1.0  0.26657  0.63433  0.50403  1.0000
  C   C127      1.0  0.30168  0.5999499999999998  0.55182  1.0000
  C   C128      1.0  0.35740999999999995  0.7618599999999999  0.46534  1.0000
  C   C129      1.0  0.4082900000000001  0.8039  0.49558999999999986  1.0000
  C   C130      1.0  0.7298899999999999  0.02402999999999988  0.6586099999999998  1.0000
  C   C131      1.0  0.4254999999999998  0.8362599999999997  0.54373  1.0000
  C   C132      1.0  0.6470600000000001  0.9962600000000001  0.64272  1.0000
  C   C133      1.0  0.6313899999999999  0.9524499999999998  0.60273  1.0000
  C   C134      1.0  0.43954000000000004  0.81033  0.4763599999999999  1.0000
  C   C135      1.0  0.71412  0.98021  0.61894  1.0000
  C   C136      1.0  0.6652599999999999  0.9448999999999997  0.59102  1.0000
  C   C137      1.0  0.50501  0.87926  0.55369  1.0000
  C   C138      1.0  0.69587  0.03166000000000005  0.67016  1.0000
  C   C139      1.0  0.47333999999999987  0.8741799999999998  0.57241  1.0000
  C   C140      1.0  0.48757  0.8473500000000002  0.50507  1.0000
  C   C141      1.0  0.9128400000000001  0.86362  0.14911  1.0000
  C   C142      1.0  0.62675  0.43964  0.22079  1.0000
  C   C143      1.0  0.97387  0.84348  0.14466  1.0000
  C   C144      1.0  0.92606  0.8345899999999998  0.12142999999999998  1.0000
  C   C145      1.0  0.99314  0.90266  0.21792999999999996  1.0000
  C   C146      1.0  0.8646  0.86024  0.12921  1.0000
  C   C147      1.0  0.94758  0.89728  0.19785  1.0000
  C   C148      1.0  0.7044200000000002  0.73808  0.09185999999999997  1.0000
  C   C149      1.0  0.69375  0.69699  0.10204  1.0000
  C   C150      1.0  0.6348100000000002  0.4777  0.2058  1.0000
  C   C151      1.0  0.7090600000000001  0.6640599999999998  0.08709999999999997  1.0000
  C   C152      1.0  0.64735  0.50514  0.15055  1.0000
  C   C153      1.0  0.65123  0.54918  0.17831  1.0000
  C   C154      1.0  0.6686900000000002  0.69152  0.12769  1.0000
  C   C155      1.0  0.63893  0.52167  0.23336999999999994  1.0000
  C   C156      1.0  0.6466099999999998  0.55685  0.21954  1.0000
  C   C157      1.0  0.6763900000000002  0.6222499999999997  0.12483  1.0000
  C   C158      1.0  0.6389800000000001  0.46988  0.16421999999999998  1.0000
  C   C159      1.0  0.6999400000000002  0.62663  0.09785999999999999  1.0000
  C   C160      1.0  0.66025  0.65481  0.13927999999999996  1.0000
  C   C161      1.0  0.54906  0.7852199999999999  0.14022999999999997  1.0000
  C   C162      1.0  0.6860200000000002  0.2777  0.55812  1.0000
  C   C163      1.0  0.62935  0.79945  0.15811  1.0000
  C   C164      1.0  0.5912200000000002  0.78612  0.16859  1.0000
  C   C165      1.0  0.58778  0.81193  0.09758  1.0000
  C   C166      1.0  0.50525  0.77154  0.14587999999999998  1.0000
  C   C167      1.0  0.54847  0.79832  0.10485999999999998  1.0000
  C   C168      1.0  0.46886000000000005  0.8501  0.26293  1.0000
  C   C169      1.0  0.49895  0.90152  0.3027799999999999  1.0000
  C   C170      1.0  0.65583  0.22501  0.52036  1.0000
  C   C171      1.0  0.5475400000000001  0.92134  0.33659999999999995  1.0000
  C   C172      1.0  0.6409900000000002  0.14241999999999996  0.49307  1.0000
  C   C173      1.0  0.6009500000000002  0.12607  0.44896  1.0000
  C   C174      1.0  0.47823  0.93132  0.3065099999999999  1.0000
  C   C175      1.0  0.61599  0.20866999999999994  0.47647  1.0000
  C   C176      1.0  0.5886900000000002  0.15979  0.44147  1.0000
  C   C177      1.0  0.55433  0.99981  0.3757399999999999  1.0000
  C   C178      1.0  0.66769  0.19118  0.52819  1.0000
  C   C179      1.0  0.5746899999999999  0.9697499999999999  0.3728599999999999  1.0000
  C   C180      1.0  0.5053000000000002  0.97979  0.34216  1.0000
  C   C181      1.0  0.14982999999999988  0.41396999999999984  0.3639199999999999  1.0000
  C   C182      1.0  0.21983999999999992  0.12773999999999985  0.9410199999999997  1.0000
  C   C183      1.0  0.14577  0.47554  0.34422999999999987  1.0000
  C   C184      1.0  0.12215999999999996  0.42730999999999997  0.3350299999999999  1.0000
  C   C185      1.0  0.21921999999999997  0.49506999999999995  0.4042099999999999  1.0000
  C   C186      1.0  0.12961  0.36517  0.36011  1.0000
  C   C187      1.0  0.19864999999999997  0.44889  0.39811  1.0000
  C   C188      1.0  0.09194999999999995  0.2056699999999999  0.23797999999999994  1.0000
  C   C189      1.0  0.10216999999999997  0.19452  0.19701999999999995  1.0000
  C   C190      1.0  0.20493999999999998  0.13514999999999994  0.9785899999999998  1.0000
  C   C191      1.0  0.08762  0.20957  0.1636  1.0000
  C   C192      1.0  0.14983  0.14735  0.00579  1.0000
  C   C193      1.0  0.17776  0.15125  0.04969  1.0000
  C   C194      1.0  0.12738  0.16925  0.19198  1.0000
  C   C195      1.0  0.23268999999999998  0.13918  0.022399999999999993  1.0000
  C   C196      1.0  0.21894999999999998  0.14669  0.057369999999999984  1.0000
  C   C197      1.0  0.12484  0.17649  0.12246  1.0000
  C   C198      1.0  0.1633299999999999  0.13910999999999987  0.9706999999999998  1.0000
  C   C199      1.0  0.09824000000000001  0.20013  0.12635999999999997  1.0000
  C   C200      1.0  0.13888  0.16047  0.15543  1.0000
  C   C201      1.0  0.35466999999999993  0.7140999999999998  0.26401  1.0000
  C   C202      1.0  0.28046999999999994  0.2222  0.90829  1.0000
  C   C203      1.0  0.3577400000000001  0.70004  0.33006  1.0000
  C   C204      1.0  0.3819099999999999  0.71337  0.3054699999999999  1.0000
  C   C205      1.0  0.28518  0.6873  0.27569  1.0000
  C   C206      1.0  0.37415999999999994  0.7277599999999999  0.23409999999999995  1.0000
  C   C207      1.0  0.30614  0.7007499999999999  0.24999999999999994  1.0000
  C   C208      1.0  0.41264999999999996  0.6497099999999998  0.11878999999999998  1.0000
  C   C209      1.0  0.40104  0.59827  0.09741999999999998  1.0000
  C   C210      1.0  0.29530999999999985  0.2748699999999999  0.9306299999999997  1.0000
  C   C211      1.0  0.41492  0.57835  0.12619999999999998  1.0000
  C   C212      1.0  0.3504499999999998  0.35737  0.9982299999999997  1.0000
  C   C213      1.0  0.32281999999999983  0.3738499999999999  0.9745599999999998  1.0000
  C   C214      1.0  0.375  0.56859  0.04689999999999998  1.0000
  C   C215      1.0  0.26776  0.29126  0.90715  1.0000
  C   C216      1.0  0.2816400000000001  0.34016  0.92864  1.0000
  C   C217      1.0  0.3760600000000001  0.50005  0.05451  1.0000
  C   C218      1.0  0.33683  0.30861999999999984  0.97628  1.0000
  C   C219      1.0  0.40303  0.53001  0.10491999999999997  1.0000
  C   C220      1.0  0.36244  0.52018  0.02557999999999999  1.0000
  C   C221      1.0  0.9506399999999997  0.08699  0.23618  1.0000
  C   C222      1.0  0.81314  0.37215  0.5919  1.0000
  C   C223      1.0  0.8696700000000003  0.025569999999999996  0.17009  1.0000
  C   C224      1.0  0.90853  0.07386999999999999  0.19511999999999996  1.0000
  C   C225      1.0  0.9102999999999999  0.005399999999999976  0.22357999999999995  1.0000
  C   C226      1.0  0.99548  0.13618  0.26509  1.0000
  C   C227      1.0  0.9502099999999999  0.05176999999999997  0.24953999999999996  1.0000
  C   C228      1.0  0.03241999999999999  0.29502  0.3862799999999999  1.0000
  C   C229      1.0  0.0025799999999999395  0.3058699999999999  0.4076699999999999  1.0000
  C   C230      1.0  0.8434100000000004  0.36483  0.56977  1.0000
  C   C231      1.0  0.95414  0.29074  0.37806  1.0000
  C   C232      1.0  0.8585199999999998  0.35273  0.50251  1.0000
  C   C233      1.0  0.8984500000000003  0.34875  0.52659  1.0000
  C   C234      1.0  0.02283999999999991  0.3309799999999999  0.4581499999999999  1.0000
  C   C235      1.0  0.88314  0.36078  0.59356  1.0000
  C   C236      1.0  0.91062  0.3532699999999999  0.5723599999999999  1.0000
  C   C237      1.0  0.94598  0.32322  0.44840999999999986  1.0000
  C   C238      1.0  0.83164  0.36094  0.52423  1.0000
  C   C239      1.0  0.92628  0.2998099999999999  0.3981699999999999  1.0000
  C   C240      1.0  0.9949399999999997  0.3393299999999998  0.4784099999999999  1.0000
  C   C241      1.0  0.7643200000000001  0.21432999999999983  0.8479099999999999  1.0000
  C   C242      1.0  0.4055599999999998  0.71662  0.7794299999999997  1.0000
  C   C243      1.0  0.82999  0.19869  0.85403  1.0000
  C   C244      1.0  0.8048  0.21287999999999996  0.8763299999999998  1.0000
  C   C245      1.0  0.7767200000000002  0.18445000000000006  0.77998  1.0000
  C   C246      1.0  0.73697  0.23247  0.8682199999999999  1.0000
  C   C247      1.0  0.75084  0.1991299999999999  0.79942  1.0000
  C   C248      1.0  0.60971  0.14331999999999998  0.90615  1.0000
  C   C249      1.0  0.5888100000000002  0.09203000000000003  0.89638  1.0000
  C   C250      1.0  0.42849000000000004  0.76963  0.7942299999999999  1.0000
  C   C251      1.0  0.6194300000000003  0.07446000000000001  0.91139  1.0000
  C   C252      1.0  0.49590000000000006  0.85257  0.8492  1.0000
  C   C253      1.0  0.4717  0.8684199999999997  0.82126  1.0000
  C   C254      1.0  0.5382700000000002  0.060799999999999965  0.8713099999999999  1.0000
  C   C255      1.0  0.40485  0.7856399999999999  0.7663499999999999  1.0000
  C   C256      1.0  0.42599  0.8346  0.77994  1.0000
  C   C257      1.0  0.5496000000000001  0.9948999999999999  0.8744199999999998  1.0000
  C   C258      1.0  0.47423000000000004  0.80367  0.8357499999999998  1.0000
  C   C259      1.0  0.60002  0.026440000000000026  0.90114  1.0000
  C   C260      1.0  0.51866  0.012600000000000009  0.86003  1.0000
  C   C261      1.0  0.73575  0.58292  0.4500399999999999  1.0000
  C   C262      1.0  0.09415000000000005  0.8738299999999999  0.31084  1.0000
  C   C263      1.0  0.67012  0.5236  0.36860999999999994  1.0000
  C   C264      1.0  0.69537  0.57107  0.40816  1.0000
  C   C265      1.0  0.72342  0.50255  0.4073399999999999  1.0000
  C   C266      1.0  0.76273  0.63044  0.49569  1.0000
  C   C267      1.0  0.7492600000000003  0.54785  0.44809  1.0000
  C   C268      1.0  0.89098  0.79649  0.53361  1.0000
  C   C269      1.0  0.91209  0.80803  0.50351  1.0000
  C   C270      1.0  0.07125000000000006  0.86575  0.34088  1.0000
  C   C271      1.0  0.8813399999999998  0.7923599999999998  0.4553699999999999  1.0000
  C   C272      1.0  0.003909999999999976  0.8532099999999999  0.3564199999999999  1.0000
  C   C273      1.0  0.028189999999999982  0.84935  0.3963499999999999  1.0000
  C   C274      1.0  0.96266  0.83374  0.52283  1.0000
  C   C275      1.0  0.09494000000000001  0.86148  0.38049  1.0000
  C   C276      1.0  0.07386999999999994  0.85377  0.4082199999999999  1.0000
  C   C277      1.0  0.9509900000000001  0.82514  0.4455  1.0000
  C   C278      1.0  0.025550000000000034  0.86155  0.32928  1.0000
  C   C279      1.0  0.9006000000000001  0.8014399999999999  0.4267299999999999  1.0000
  C   C280      1.0  0.98213  0.8419199999999998  0.49414999999999987  1.0000
  C   C281      1.0  0.6333300000000002  0.28577999999999987  0.050129999999999994  1.0000
  C   C282      1.0  0.061229999999999896  0.78369  0.18773  1.0000
  C   C283      1.0  0.65486  0.30176999999999987  0.13155  1.0000
  C   C284      1.0  0.66304  0.28733  0.09222999999999998  1.0000
  C   C285      1.0  0.59521  0.31596  0.09205  1.0000
  C   C286      1.0  0.63593  0.26786  0.00479  1.0000
  C   C287      1.0  0.6000300000000001  0.30099  0.05153  1.0000
  C   C288      1.0  0.7629799999999999  0.35648999999999986  0.9663899999999997  1.0000
  C   C289      1.0  0.80439  0.40784  0.99673  1.0000
  C   C290      1.0  0.02356000000000001  0.73057  0.15788  1.0000
  C   C291      1.0  0.83689  0.42542  0.04494  1.0000
  C   C292      1.0  0.99629  0.64788  0.14314  1.0000
  C   C293      1.0  0.95233  0.6316899999999999  0.10310999999999997  1.0000
  C   C294      1.0  0.8105999999999999  0.4392  0.9774499999999999  1.0000
  C   C295      1.0  0.97972  0.7141999999999998  0.11805999999999997  1.0000
  C   C296      1.0  0.9445800000000001  0.66522  0.09076  1.0000
  C   C297      1.0  0.8795899999999999  0.50505  0.05464  1.0000
  C   C298      1.0  0.03144999999999998  0.69685  0.16992999999999994  1.0000
  C   C299      1.0  0.87464  0.47343  0.07351  1.0000
  C   C300      1.0  0.8475199999999999  0.4874  0.00601  1.0000
  C   C301      1.0  0.8672800000000003  0.91736  0.65322  1.0000
  C   C302      1.0  0.4387299999999999  0.6265499999999997  0.7220699999999998  1.0000
  C   C303      1.0  0.8454800000000002  0.9770999999999999  0.6476099999999999  1.0000
  C   C304      1.0  0.8374900000000001  0.92966  0.6249599999999997  1.0000
  C   C305      1.0  0.90512  0.99747  0.72165  1.0000
  C   C306      1.0  0.86523  0.8696999999999999  0.63245  1.0000
  C   C307      1.0  0.9004299999999998  0.9521399999999998  0.7018099999999999  1.0000
  C   C308      1.0  0.73724  0.70363  0.59436  1.0000
  C   C309      1.0  0.69565  0.6921  0.6039999999999999  1.0000
  C   C310      1.0  0.47635  0.63433  0.70664  1.0000
  C   C311      1.0  0.66317  0.70778  0.58897  1.0000
  C   C312      1.0  0.5036600000000002  0.64688  0.65141  1.0000
  C   C313      1.0  0.5475100000000002  0.65062  0.6791899999999997  1.0000
  C   C314      1.0  0.6892499999999999  0.6663499999999997  0.6288499999999998  1.0000
  C   C315      1.0  0.52017  0.6383599999999998  0.73421  1.0000
  C   C316      1.0  0.5553099999999999  0.6460899999999999  0.7204799999999998  1.0000
  C   C317      1.0  0.62039  0.67474  0.62567  1.0000
  C   C318      1.0  0.46847  0.63856  0.66508  1.0000
  C   C319      1.0  0.62537  0.6985799999999999  0.5990299999999997  1.0000
  C   C320      1.0  0.6523299999999999  0.6579899999999999  0.6400399999999999  1.0000
  C   C321      1.0  0.7852999999999999  0.5491699999999997  0.6352099999999998  1.0000
  C   C322      1.0  0.2772699999999999  0.6854299999999998  0.057849999999999985  1.0000
  C   C323      1.0  0.80077  0.63054  0.65547  1.0000
  C   C324      1.0  0.7866199999999999  0.59135  0.66446  1.0000
  C   C325      1.0  0.81475  0.5906899999999999  0.5956699999999999  1.0000
  C   C326      1.0  0.76871  0.50395  0.6386799999999998  1.0000
  C   C327      1.0  0.8002  0.5503  0.6013  1.0000
  C   C328      1.0  0.85356  0.4664199999999999  0.76092  1.0000
  C   C329      1.0  0.90442  0.49641999999999986  0.8022  1.0000
  C   C330      1.0  0.22508  0.65539  0.020459999999999992  1.0000
  C   C331      1.0  0.92292  0.54489  0.8355799999999999  1.0000
  C   C332      1.0  0.14284999999999995  0.64049  0.9931699999999998  1.0000
  C   C333      1.0  0.12692999999999977  0.6005699999999996  0.9491699999999997  1.0000
  C   C334      1.0  0.93486  0.47642999999999996  0.8073899999999999  1.0000
  C   C335      1.0  0.20908999999999997  0.6157199999999999  0.9765299999999998  1.0000
  C   C336      1.0  0.16047000000000008  0.58832  0.94148  1.0000
  C   C337      1.0  0.0015400000000000396  0.55356  0.8768  1.0000
  C   C338      1.0  0.19135  0.66726  0.028339999999999994  1.0000
  C   C339      1.0  0.97076  0.57301  0.87288  1.0000
  C   C340      1.0  0.9828700000000001  0.50454  0.8438999999999998  1.0000
  C   C341      1.0  0.41380000000000006  0.15012  0.86444  1.0000
  C   C342      1.0  0.12743000000000004  0.22051  0.44111  1.0000
  C   C343      1.0  0.47478999999999977  0.14491999999999988  0.8444999999999998  1.0000
  C   C344      1.0  0.42660999999999993  0.1218899999999999  0.8353299999999998  1.0000
  C   C345      1.0  0.49518000000000006  0.2189  0.90465  1.0000
  C   C346      1.0  0.36498999999999976  0.13030999999999993  0.8606099999999998  1.0000
  C   C347      1.0  0.4491  0.19880999999999993  0.89874  1.0000
  C   C348      1.0  0.2053  0.0921  0.73797  1.0000
  C   C349      1.0  0.19415999999999992  0.10211999999999984  0.6968999999999997  1.0000
  C   C350      1.0  0.13507  0.20546999999999996  0.47861  1.0000
  C   C351      1.0  0.20923999999999987  0.08736999999999988  0.6635699999999998  1.0000
  C   C352      1.0  0.14739000000000005  0.15013999999999997  0.50568  1.0000
  C   C353      1.0  0.15133  0.17800000000000002  0.54965  1.0000
  C   C354      1.0  0.1690199999999999  0.12742999999999982  0.6917699999999998  1.0000
  C   C355      1.0  0.13922  0.23320000000000005  0.52251  1.0000
  C   C356      1.0  0.1468  0.21933000000000005  0.55743  1.0000
  C   C357      1.0  0.17655000000000012  0.12482  0.62241  1.0000
  C   C358      1.0  0.13909  0.16378  0.47062  1.0000
  C   C359      1.0  0.20003999999999997  0.09805999999999998  0.6263299999999999  1.0000
  C   C360      1.0  0.16045000000000006  0.13896000000000006  0.65522  1.0000
  C   C361      1.0  0.71448  0.3498899999999998  0.7637799999999999  1.0000
  C   C362      1.0  0.22115999999999986  0.28028999999999976  0.4075799999999999  1.0000
  C   C363      1.0  0.69968  0.35516999999999993  0.8299499999999997  1.0000
  C   C364      1.0  0.7135600000000001  0.37817  0.80473  1.0000
  C   C365      1.0  0.6858099999999999  0.2811099999999999  0.77646  1.0000
  C   C366      1.0  0.7305000000000001  0.3696899999999999  0.7347799999999998  1.0000
  C   C367      1.0  0.6999899999999999  0.3011399999999999  0.7503699999999998  1.0000
  C   C368      1.0  0.64595  0.4077399999999999  0.6128499999999998  1.0000
  C   C369      1.0  0.59486  0.39783  0.5918799999999999  1.0000
  C   C370      1.0  0.27352  0.29494  0.42995  1.0000
  C   C371      1.0  0.57631  0.41260999999999987  0.62173  1.0000
  C   C372      1.0  0.35585  0.35001  0.49729999999999996  1.0000
  C   C373      1.0  0.37185  0.32209  0.47333  1.0000
  C   C374      1.0  0.56436  0.37254  0.5415  1.0000
  C   C375      1.0  0.28952  0.2671  0.40629  1.0000
  C   C376      1.0  0.33822  0.28079  0.4275099999999999  1.0000
  C   C377      1.0  0.49764  0.37514999999999993  0.5517399999999999  1.0000
  C   C378      1.0  0.30727  0.33656  0.47559  1.0000
  C   C379      1.0  0.5284299999999998  0.4019699999999998  0.60194  1.0000
  C   C380      1.0  0.51633  0.36102999999999996  0.5215499999999998  1.0000
  C   C381      1.0  0.08627999999999995  0.95083  0.7360999999999998  1.0000
  C   C382      1.0  0.3721700000000001  0.81438  0.09185  1.0000
  C   C383      1.0  0.025220000000000013  0.86951  0.67012  1.0000
  C   C384      1.0  0.07338999999999984  0.9086899999999997  0.69522  1.0000
  C   C385      1.0  0.00518999999999991  0.9094299999999996  0.7238799999999997  1.0000
  C   C386      1.0  0.13496999999999987  0.9958899999999999  0.7647499999999998  1.0000
  C   C387      1.0  0.05120999999999981  0.9497899999999998  0.7497799999999998  1.0000
  C   C388      1.0  0.29453999999999986  0.033459999999999886  0.8867799999999998  1.0000
  C   C389      1.0  0.30572999999999995  0.00345999999999992  0.9077599999999998  1.0000
  C   C390      1.0  0.36499  0.8446  0.06981  1.0000
  C   C391      1.0  0.29063999999999995  0.9549399999999999  0.87785  1.0000
  C   C392      1.0  0.35267  0.85949  0.00241  1.0000
  C   C393      1.0  0.34856999999999994  0.8994399999999998  0.0264  1.0000
  C   C394      1.0  0.3308700000000001  0.023530000000000013  0.95822  1.0000
  C   C395      1.0  0.36078000000000016  0.88433  0.0935  1.0000
  C   C396      1.0  0.35310000000000014  0.91171  0.0722  1.0000
  C   C397      1.0  0.32324  0.94641  0.9479199999999998  1.0000
  C   C398      1.0  0.36107  0.83271  0.02422  1.0000
  C   C399      1.0  0.29986  0.92686  0.8976799999999998  1.0000
  C   C400      1.0  0.33928  0.9954199999999999  0.9781999999999997  1.0000
  C   C401      1.0  0.44979  0.23615999999999998  0.08344999999999997  1.0000
  C   C402      1.0  0.31255999999999995  0.59442  0.3722699999999999  1.0000
  C   C403      1.0  0.36815999999999993  0.17002999999999996  0.02391  1.0000
  C   C404      1.0  0.40731  0.19494  0.07119999999999999  1.0000
  C   C405      1.0  0.40902000000000005  0.2245  0.003559999999999999  1.0000
  C   C406      1.0  0.49496000000000007  0.26357  0.13134  1.0000
  C   C407      1.0  0.44934999999999997  0.25029  0.04892  1.0000
  C   C408      1.0  0.53185  0.38967  0.29579  1.0000
  C   C409      1.0  0.5021200000000002  0.41092999999999996  0.30742999999999987  1.0000
  C   C410      1.0  0.34226000000000006  0.5715299999999998  0.36459  1.0000
  C   C411      1.0  0.45340000000000014  0.38021999999999995  0.2918599999999999  1.0000
  C   C412      1.0  0.35651  0.50376  0.35266  1.0000
  C   C413      1.0  0.39702999999999994  0.5280399999999998  0.34876999999999997  1.0000
  C   C414      1.0  0.5222400000000003  0.4615799999999998  0.33282  1.0000
  C   C415      1.0  0.3825299999999999  0.5954  0.36054999999999987  1.0000
  C   C416      1.0  0.40988000000000013  0.57415  0.35317  1.0000
  C   C417      1.0  0.44476  0.4502  0.32438  1.0000
  C   C418      1.0  0.32977  0.52558  0.36072  1.0000
  C   C419      1.0  0.4251700000000001  0.39966  0.3008699999999999  1.0000
  C   C420      1.0  0.49395  0.48116  0.34091  1.0000
  C   C421      1.0  0.8476599999999999  0.2640899999999999  0.7140199999999998  1.0000
  C   C422      1.0  0.77853  0.9074799999999997  0.22028999999999996  1.0000
  C   C423      1.0  0.8538199999999999  0.32992999999999995  0.6980199999999999  1.0000
  C   C424      1.0  0.8764600000000005  0.30526  0.71247  1.0000
  C   C425      1.0  0.77915  0.2752699999999999  0.6845399999999998  1.0000
  C   C426      1.0  0.8684  0.23709999999999984  0.7324199999999997  1.0000
  C   C427      1.0  0.79898  0.24973  0.69935  1.0000
  C   C428      1.0  0.9061500000000003  0.11050999999999996  0.64339  1.0000
  C   C429      1.0  0.8966599999999999  0.08931999999999982  0.5924999999999998  1.0000
  C   C430      1.0  0.7935400000000002  0.92948  0.27248  1.0000
  C   C431      1.0  0.91181  0.12005999999999996  0.5744599999999999  1.0000
  C   C432      1.0  0.8494100000000002  0.9966900000000001  0.35454  1.0000
  C   C433      1.0  0.8211600000000002  0.9722800000000001  0.37068  1.0000
  C   C434      1.0  0.87134  0.03866000000000005  0.56194  1.0000
  C   C435      1.0  0.7654999999999998  0.9053799999999997  0.2887199999999999  1.0000
  C   C436      1.0  0.77946  0.9262899999999998  0.3372699999999999  1.0000
  C   C437      1.0  0.8744299999999999  0.05019999999999994  0.49586999999999987  1.0000
  C   C438      1.0  0.8357399999999999  0.9752099999999998  0.30607  1.0000
  C   C439      1.0  0.90154  0.10081000000000001  0.52686  1.0000
  C   C440      1.0  0.85989  0.01916999999999998  0.51411  1.0000
  C   C441      1.0  0.65187  0.36595  0.41613  1.0000
  C   C442      1.0  0.7193500000000002  0.9401099999999998  0.12742  1.0000
  C   C443      1.0  0.6455  0.34393  0.47571  1.0000
  C   C444      1.0  0.623  0.33567999999999976  0.4284099999999999  1.0000
  C   C445      1.0  0.72018  0.40524  0.49603999999999987  1.0000
  C   C446      1.0  0.63141  0.36341  0.36834  1.0000
  C   C447      1.0  0.70047  0.4001599999999998  0.4506699999999999  1.0000
  C   C448      1.0  0.59334  0.23693  0.20406999999999997  1.0000
  C   C449      1.0  0.6030600000000002  0.19567  0.19258  1.0000
  C   C450      1.0  0.7050200000000001  0.9778600000000001  0.13495  1.0000
  C   C451      1.0  0.5880600000000002  0.16247  0.20823  1.0000
  C   C452      1.0  0.6500500000000002  0.004959999999999964  0.14716999999999994  1.0000
  C   C453      1.0  0.67871  0.04940999999999996  0.15131999999999995  1.0000
  C   C454      1.0  0.6284700000000001  0.19062  0.16742  1.0000
  C   C455      1.0  0.73349  0.022230000000000014  0.1392  1.0000
  C   C456      1.0  0.72019  0.057380000000000014  0.14683  1.0000
  C   C457      1.0  0.6256  0.12147999999999994  0.17590999999999996  1.0000
  C   C458      1.0  0.6630400000000001  0.9696399999999997  0.13876  1.0000
  C   C459      1.0  0.59851  0.1252  0.19932999999999998  1.0000
  C   C460      1.0  0.64009  0.15428999999999998  0.15939999999999993  1.0000
  C   C461      1.0  0.05026000000000002  0.13380000000000003  0.78619  1.0000
  C   C462      1.0  0.18902  0.56126  0.28169  1.0000
  C   C463      1.0  0.13182  0.15606999999999993  0.80154  1.0000
  C   C464      1.0  0.09259999999999993  0.16411999999999988  0.7873099999999997  1.0000
  C   C465      1.0  0.09121999999999987  0.0946299999999999  0.8150899999999998  1.0000
  C   C466      1.0  0.005089999999999926  0.1365999999999999  0.7686799999999999  1.0000
  C   C467      1.0  0.05085  0.09958999999999998  0.80063  1.0000
  C   C468      1.0  0.9677500000000001  0.26416  0.85795  1.0000
  C   C469      1.0  0.9976299999999999  0.3053499999999999  0.9090399999999997  1.0000
  C   C470      1.0  0.15881  0.52351  0.22922999999999993  1.0000
  C   C471      1.0  0.046369999999999904  0.3384699999999999  0.9271299999999998  1.0000
  C   C472      1.0  0.14384  0.4966199999999999  0.14703  1.0000
  C   C473      1.0  0.10342000000000004  0.45223  0.13118  1.0000
  C   C474      1.0  0.97767  0.31062  0.93961  1.0000
  C   C475      1.0  0.11861999999999993  0.4792399999999999  0.21318999999999994  1.0000
  C   C476      1.0  0.09097999999999998  0.4441699999999999  0.16469  1.0000
  C   C477      1.0  0.05528  0.37962  0.00577  1.0000
  C   C478      1.0  0.17084  0.53175  0.19548999999999994  1.0000
  C   C479      1.0  0.0747599999999999  0.3756899999999999  0.9748299999999998  1.0000
  C   C480      1.0  0.006079999999999999  0.34698  0.98753  1.0000
  N   N1        1.0  0.18427999999999997  0.36971  0.49083  1.0000
  N   N2        1.0  0.17918999999999993  0.40408999999999984  0.6016699999999998  1.0000
  N   N3        1.0  0.46742999999999996  0.41298999999999997  0.8310999999999998  1.0000
  N   N4        1.0  0.51173  0.42811  0.84205  1.0000
  N   N5        1.0  0.3162200000000001  0.80702  0.18669999999999995  1.0000
  N   N6        1.0  0.32026999999999994  0.9228399999999999  0.22598  1.0000
  N   N7        1.0  0.032389999999999725  0.8634399999999995  0.9452099999999998  1.0000
  N   N8        1.0  0.98795  0.83037  0.9159399999999998  1.0000
  N   N9        1.0  0.37918000000000024  0.69294  0.00916  1.0000
  N   N10       1.0  0.3036799999999999  0.5774199999999999  0.8973299999999997  1.0000
  N   N11       1.0  0.08200999999999992  0.63615  0.6690899999999997  1.0000
  N   N12       1.0  0.08591999999999995  0.6694399999999998  0.65801  1.0000
  N   N13       1.0  0.12157999999999998  0.13101999999999997  0.31560999999999995  1.0000
  N   N14       1.0  0.19629000000000002  0.09451000000000002  0.27466  1.0000
  N   N15       1.0  0.4178299999999999  0.08670999999999993  0.5541699999999999  1.0000
  N   N16       1.0  0.41406  0.07163999999999993  0.5835099999999998  1.0000
  N   N17       1.0  0.18257999999999994  0.8147999999999999  0.30569999999999997  1.0000
  N   N18       1.0  0.2267499999999999  0.8207299999999997  0.42207999999999996  1.0000
  N   N19       1.0  0.9468200000000001  0.53288  0.36409  1.0000
  N   N20       1.0  0.91726  0.4885699999999999  0.3310399999999999  1.0000
  N   N21       1.0  0.4936599999999999  0.6847199999999998  0.8695999999999998  1.0000
  N   N22       1.0  0.6038199999999998  0.6782599999999998  0.9049399999999997  1.0000
  N   N23       1.0  0.8301299999999998  0.9647499999999999  0.9139699999999997  1.0000
  N   N24       1.0  0.84053  0.008839999999999976  0.92837  1.0000
  N   N25       1.0  0.3162200000000001  0.6226  0.6316299999999998  1.0000
  N   N26       1.0  0.27391999999999994  0.6966199999999999  0.5947599999999997  1.0000
  N   N27       1.0  0.55335  0.9175599999999998  0.5861199999999999  1.0000
  N   N28       1.0  0.5829599999999999  0.9138799999999998  0.5716299999999999  1.0000
  N   N29       1.0  0.006009999999999954  0.87619  0.19069999999999995  1.0000
  N   N30       1.0  0.8959499999999999  0.8005  0.07381999999999997  1.0000
  N   N31       1.0  0.6699700000000002  0.58376  0.13490999999999997  1.0000
  N   N32       1.0  0.65924  0.58778  0.16832  1.0000
  N   N33       1.0  0.62759  0.81197  0.12424  1.0000
  N   N34       1.0  0.5958999999999999  0.7735699999999998  0.20355  1.0000
  N   N35       1.0  0.58566  0.04846999999999995  0.41404999999999986  1.0000
  N   N36       1.0  0.57052  0.07758999999999998  0.4101699999999999  1.0000
  N   N37       1.0  0.19208999999999996  0.50775  0.3774099999999999  1.0000
  N   N38       1.0  0.07451  0.39692  0.30069  1.0000
  N   N39       1.0  0.13489999999999996  0.17008999999999994  0.0842  1.0000
  N   N40       1.0  0.16803  0.15916  0.08818999999999998  1.0000
  N   N41       1.0  0.31156  0.6874899999999999  0.3157099999999999  1.0000
  N   N42       1.0  0.42948  0.72608  0.32334  1.0000
  N   N43       1.0  0.36572  0.4513599999999999  0.03705  1.0000
  N   N44       1.0  0.33259  0.42237999999999987  0.99283  1.0000
  N   N45       1.0  0.87084  0.99306  0.18397  1.0000
  N   N46       1.0  0.90487  0.10488999999999997  0.17867999999999995  1.0000
  N   N47       1.0  0.91404  0.32953  0.46481  1.0000
  N   N48       1.0  0.92906  0.34081  0.50896  1.0000
  N   N49       1.0  0.8165200000000002  0.18537999999999993  0.80795  1.0000
  N   N50       1.0  0.8211000000000003  0.22599  0.92364  1.0000
  N   N51       1.0  0.53347  0.94644  0.86438  1.0000
  N   N52       1.0  0.48933  0.91694  0.83115  1.0000
  N   N53       1.0  0.6836300000000001  0.4909199999999999  0.3685699999999999  1.0000
  N   N54       1.0  0.67936  0.60236  0.40530999999999995  1.0000
  N   N55       1.0  0.96681  0.8310499999999997  0.4130099999999999  1.0000
  N   N56       1.0  0.010809999999999993  0.8417  0.42733  1.0000
  N   N57       1.0  0.62214  0.31521  0.13112  1.0000
  N   N58       1.0  0.69703  0.27391  0.09548999999999999  1.0000
  N   N59       1.0  0.91797  0.55354  0.08692999999999997  1.0000
  N   N60       1.0  0.9138300000000003  0.58313  0.07249999999999997  1.0000
  N   N61       1.0  0.87803  0.00945999999999998  0.69383  1.0000
  N   N62       1.0  0.8036600000000002  0.89884  0.57748  1.0000
  N   N63       1.0  0.58201  0.66875  0.6356299999999999  1.0000
  N   N64       1.0  0.5859699999999999  0.65833  0.6691999999999998  1.0000
  N   N65       1.0  0.8139500000000001  0.62987  0.62239  1.0000
  N   N66       1.0  0.77349  0.59508  0.6988899999999999  1.0000
  N   N67       1.0  0.049839999999999975  0.58552  0.91486  1.0000
  N   N68       1.0  0.07873999999999987  0.5701299999999999  0.9108499999999998  1.0000
  N   N69       1.0  0.50734  0.19121999999999995  0.87768  1.0000
  N   N70       1.0  0.39574999999999994  0.07429999999999987  0.8008499999999997  1.0000
  N   N71       1.0  0.17024999999999996  0.13494  0.5841399999999999  1.0000
  N   N72       1.0  0.1592800000000001  0.16809000000000004  0.58812  1.0000
  N   N73       1.0  0.68656  0.30885  0.81626  1.0000
  N   N74       1.0  0.7267  0.42580999999999997  0.8214199999999999  1.0000
  N   N75       1.0  0.44923  0.36496  0.53525  1.0000
  N   N76       1.0  0.42017  0.33193  0.4911099999999999  1.0000
  N   N77       1.0  0.9928299999999999  0.8702199999999999  0.6839499999999997  1.0000
  N   N78       1.0  0.10411999999999991  0.9049399999999999  0.6784699999999998  1.0000
  N   N79       1.0  0.32938  0.91451  0.96436  1.0000
  N   N80       1.0  0.34067000000000003  0.92991  0.00864  1.0000
  N   N81       1.0  0.36948999999999993  0.18450999999999992  0.9918199999999998  1.0000
  N   N82       1.0  0.40377000000000013  0.17848  0.10221  1.0000
  N   N83       1.0  0.41247999999999996  0.46615  0.33009  1.0000
  N   N84       1.0  0.42785  0.51063  0.3413199999999999  1.0000
  N   N85       1.0  0.8072699999999996  0.31531  0.68488  1.0000
  N   N86       1.0  0.92393  0.32194  0.72549  1.0000
  N   N87       1.0  0.86399  0.03423999999999997  0.44771999999999995  1.0000
  N   N88       1.0  0.83112  0.98951  0.4188  1.0000
  N   N89       1.0  0.69203  0.37734  0.50779  1.0000
  N   N90       1.0  0.5755  0.30114999999999986  0.39743  1.0000
  N   N91       1.0  0.63606  0.08373999999999998  0.17039999999999997  1.0000
  N   N92       1.0  0.66908  0.08783999999999996  0.15886  1.0000
  N   N93       1.0  0.13065999999999997  0.12259000000000003  0.81465  1.0000
  N   N94       1.0  0.0959299999999999  0.19859999999999994  0.7742299999999999  1.0000
  N   N95       1.0  0.08766  0.41769  0.05393999999999999  1.0000
  N   N96       1.0  0.07238999999999998  0.41373  0.08305999999999998  1.0000
  O   O1        1.0  0.24739  0.49582  0.65926  1.0000
  O   O2        1.0  0.34981  0.51202  0.76507  1.0000
  O   O3        1.0  0.63424  0.3232099999999999  0.8732099999999998  1.0000
  O   O4        1.0  0.57074  0.27773  0.87889  1.0000
  O   O5        1.0  0.29904  0.53134  0.63633  1.0000
  O   O6        1.0  0.42373999999999995  0.5802  0.8216899999999998  1.0000
  O   O7        1.0  0.24916  0.91049  0.24414999999999995  1.0000
  O   O8        1.0  0.15022  0.9165299999999998  0.16224999999999998  1.0000
  O   O9        1.0  0.8656499999999998  0.7385299999999996  0.6884999999999998  1.0000
  O   O10       1.0  0.92876  0.80803  0.7064  1.0000
  O   O11       1.0  0.20168999999999998  0.83721  0.23385999999999998  1.0000
  O   O12       1.0  0.07576000000000006  0.89738  0.15574  1.0000
  O   O13       1.0  0.33572  0.59013  0.83942  1.0000
  O   O14       1.0  0.2455999999999999  0.5822299999999998  0.73431  1.0000
  O   O15       1.0  0.9503899999999997  0.7614499999999997  0.6272599999999998  1.0000
  O   O16       1.0  0.89872  0.69203  0.62086  1.0000
  O   O17       1.0  0.3995299999999999  0.6632699999999999  0.8663399999999998  1.0000
  O   O18       1.0  0.25861  0.60182  0.67936  1.0000
  O   O19       1.0  0.15825  0.0013699999999999906  0.24754  1.0000
  O   O20       1.0  0.2535299999999999  0.9884599999999999  0.33754  1.0000
  O   O21       1.0  0.54985  0.17679  0.81094  1.0000
  O   O22       1.0  0.60111  0.22241999999999984  0.7931099999999998  1.0000
  O   O23       1.0  0.10086  0.96721  0.26519  1.0000
  O   O24       1.0  0.24126000000000003  0.91992  0.34291  1.0000
  O   O25       1.0  0.25101  0.75232  0.41122  1.0000
  O   O26       1.0  0.16592999999999988  0.6537399999999999  0.4183599999999999  1.0000
  O   O27       1.0  0.68827  0.3659  0.23872  1.0000
  O   O28       1.0  0.7061200000000002  0.4283499999999999  0.30727  1.0000
  O   O29       1.0  0.23595  0.70333  0.33711  1.0000
  O   O30       1.0  0.15813  0.57857  0.39707999999999993  1.0000
  O   O31       1.0  0.66698  0.75345  0.99548  1.0000
  O   O32       1.0  0.76504  0.8402  0.010989999999999996  1.0000
  O   O33       1.0  0.87288  0.13395999999999988  0.82378  1.0000
  O   O34       1.0  0.8790800000000002  0.07156999999999994  0.7792299999999999  1.0000
  O   O35       1.0  0.63813  0.79612  0.03259999999999999  1.0000
  O   O36       1.0  0.81542  0.91595  0.07792  1.0000
  O   O37       1.0  0.25114  0.66351  0.5028  1.0000
  O   O38       1.0  0.3346899999999999  0.7518199999999998  0.48704999999999987  1.0000
  O   O39       1.0  0.8117600000000003  0.05119000000000004  0.67811  1.0000
  O   O40       1.0  0.7938400000000001  0.10161000000000002  0.72286  1.0000
  O   O41       1.0  0.26637000000000005  0.60468  0.46854  1.0000
  O   O42       1.0  0.3426299999999999  0.7395199999999997  0.4199199999999999  1.0000
  O   O43       1.0  0.8317899999999999  0.8266699999999998  0.08544999999999997  1.0000
  O   O44       1.0  0.7337200000000004  0.74575  0.07512  1.0000
  O   O45       1.0  0.6272  0.45062  0.26080999999999993  1.0000
  O   O46       1.0  0.6205999999999999  0.39974  0.19206999999999994  1.0000
  O   O47       1.0  0.8594899999999999  0.89133  0.1574  1.0000
  O   O48       1.0  0.6837900000000001  0.7622499999999999  0.10132  1.0000
  O   O49       1.0  0.50849  0.7659299999999998  0.18273999999999996  1.0000
  O   O50       1.0  0.4899200000000001  0.82458  0.25877999999999995  1.0000
  O   O51       1.0  0.67651  0.30741999999999997  0.5473  1.0000
  O   O52       1.0  0.7193899999999999  0.2886999999999999  0.5982299999999998  1.0000
  O   O53       1.0  0.46866  0.7672599999999998  0.11457999999999997  1.0000
  O   O54       1.0  0.4246599999999999  0.8350999999999998  0.23573999999999995  1.0000
  O   O55       1.0  0.08525999999999999  0.33289  0.32685999999999993  1.0000
  O   O56       1.0  0.07551999999999998  0.23492999999999997  0.24512999999999993  1.0000
  O   O57       1.0  0.26035  0.12903999999999988  0.9520299999999998  1.0000
  O   O58       1.0  0.19084999999999988  0.12119999999999986  0.9009499999999998  1.0000
  O   O59       1.0  0.15766999999999998  0.3592299999999999  0.39011999999999997  1.0000
  O   O60       1.0  0.10116000000000003  0.1852  0.26266  1.0000
  O   O61       1.0  0.41652  0.733  0.24289  1.0000
  O   O62       1.0  0.4342600000000001  0.67524  0.16534  1.0000
  O   O63       1.0  0.24002999999999997  0.19256  0.8690199999999999  1.0000
  O   O64       1.0  0.30941999999999986  0.2110899999999998  0.9307299999999997  1.0000
  O   O65       1.0  0.34768  0.7324999999999998  0.20176999999999998  1.0000
  O   O66       1.0  0.40037  0.6648  0.08959999999999997  1.0000
  O   O67       1.0  0.99412  0.16861  0.25347  1.0000
  O   O68       1.0  0.010309999999999972  0.2660499999999999  0.34055  1.0000
  O   O69       1.0  0.82279  0.37076  0.6311  1.0000
  O   O70       1.0  0.77963  0.37865  0.56942  1.0000
  O   O71       1.0  0.03137999999999998  0.14161999999999997  0.29857999999999996  1.0000
  O   O72       1.0  0.07746  0.31523  0.41578  1.0000
  O   O73       1.0  0.7498799999999999  0.2454499999999999  0.9123299999999998  1.0000
  O   O74       1.0  0.65464  0.16664999999999988  0.9203899999999998  1.0000
  O   O75       1.0  0.36589  0.68761  0.7396  1.0000
  O   O76       1.0  0.42837999999999987  0.7056  0.8081499999999998  1.0000
  O   O77       1.0  0.7029299999999998  0.23438999999999988  0.8394599999999998  1.0000
  O   O78       1.0  0.5793900000000001  0.15837  0.89837  1.0000
  O   O79       1.0  0.7497500000000004  0.66163  0.49614999999999987  1.0000
  O   O80       1.0  0.8462700000000002  0.76543  0.51207  1.0000
  O   O81       1.0  0.13399000000000008  0.87392  0.32185  1.0000
  O   O82       1.0  0.07133999999999995  0.87935  0.27672  1.0000
  O   O83       1.0  0.79661  0.6354399999999999  0.5315999999999999  1.0000
  O   O84       1.0  0.9213500000000002  0.8193800000000001  0.57906  1.0000
  O   O85       1.0  0.6681399999999998  0.2563699999999999  0.005519999999999999  1.0000
  O   O86       1.0  0.75402  0.3330799999999999  0.9880199999999998  1.0000
  O   O87       1.0  0.04975000000000001  0.8123  0.17657999999999996  1.0000
  O   O88       1.0  0.10095999999999998  0.79535  0.22175999999999998  1.0000
  O   O89       1.0  0.6047  0.26488  0.96843  1.0000
  O   O90       1.0  0.7400600000000003  0.34155  0.92107  1.0000
  O   O91       1.0  0.8341500000000003  0.83862  0.58839  1.0000
  O   O92       1.0  0.7466199999999998  0.73472  0.58064  1.0000
  O   O93       1.0  0.45030000000000003  0.62677  0.76213  1.0000
  O   O94       1.0  0.3990400000000001  0.62102  0.69425  1.0000
  O   O95       1.0  0.8962200000000005  0.8645  0.66098  1.0000
  O   O96       1.0  0.75985  0.68077  0.6018399999999998  1.0000
  O   O97       1.0  0.7575700000000001  0.5046099999999999  0.6717699999999998  1.0000
  O   O98       1.0  0.8303099999999999  0.48858999999999997  0.7529499999999999  1.0000
  O   O99       1.0  0.30701000000000006  0.6759299999999999  0.04686  1.0000
  O   O100      1.0  0.2886200000000001  0.71904  0.09811999999999999  1.0000
  O   O101      1.0  0.76662  0.46804  0.60826  1.0000
  O   O102      1.0  0.8380000000000002  0.42112999999999984  0.7366299999999999  1.0000
  O   O103      1.0  0.33232000000000006  0.08627999999999998  0.82701  1.0000
  O   O104      1.0  0.23414999999999989  0.0752699999999999  0.7448899999999998  1.0000
  O   O105      1.0  0.12878999999999996  0.26113  0.45218999999999987  1.0000
  O   O106      1.0  0.12059999999999996  0.19152999999999995  0.4008999999999999  1.0000
  O   O107      1.0  0.35969999999999985  0.15866999999999978  0.8911599999999997  1.0000
  O   O108      1.0  0.18536000000000008  0.10192  0.763  1.0000
  O   O109      1.0  0.74085  0.41372  0.74612  1.0000
  O   O110      1.0  0.6696699999999999  0.42421999999999976  0.6584299999999997  1.0000
  O   O111      1.0  0.19163999999999995  0.23982999999999993  0.3681399999999999  1.0000
  O   O112      1.0  0.20999999999999996  0.30917999999999995  0.42995999999999995  1.0000
  O   O113      1.0  0.73274  0.34133  0.70119  1.0000
  O   O114      1.0  0.66111  0.39809999999999984  0.5830199999999998  1.0000
  O   O115      1.0  0.16740999999999992  0.9951  0.7530199999999999  1.0000
  O   O116      1.0  0.26418999999999987  0.011239999999999922  0.8414099999999998  1.0000
  O   O117      1.0  0.37061000000000005  0.8235799999999998  0.13099  1.0000
  O   O118      1.0  0.3788999999999999  0.7808299999999999  0.06942999999999999  1.0000
  O   O119      1.0  0.1405199999999999  0.031829999999999886  0.7985599999999998  1.0000
  O   O120      1.0  0.3158399999999999  0.07883999999999992  0.9162699999999999  1.0000
  O   O121      1.0  0.49417  0.24946999999999991  0.16169999999999995  1.0000
  O   O122      1.0  0.50969  0.34509  0.26532  1.0000
  O   O123      1.0  0.3230900000000001  0.63381  0.37075  1.0000
  O   O124      1.0  0.27885  0.57195  0.3792099999999999  1.0000
  O   O125      1.0  0.53123  0.29845  0.13697  1.0000
  O   O126      1.0  0.57778  0.42019999999999985  0.31817  1.0000
  O   O127      1.0  0.91281  0.25133999999999995  0.7457599999999999  1.0000
  O   O128      1.0  0.9180400000000001  0.1546  0.66484  1.0000
  O   O129      1.0  0.73716  0.86859  0.19071999999999997  1.0000
  O   O130      1.0  0.80846  0.9299299999999998  0.20935999999999994  1.0000
  O   O131      1.0  0.8393400000000001  0.20237999999999995  0.7341899999999998  1.0000
  O   O132      1.0  0.9002500000000002  0.08068999999999989  0.6597899999999998  1.0000
  O   O133      1.0  0.5870500000000001  0.3319999999999999  0.33785  1.0000
  O   O134      1.0  0.58112  0.24626999999999996  0.23595999999999998  1.0000
  O   O135      1.0  0.7605700000000001  0.9514899999999997  0.12986  1.0000
  O   O136      1.0  0.68878  0.89915  0.11948999999999999  1.0000
  O   O137      1.0  0.66049  0.39435  0.36287  1.0000
  O   O138      1.0  0.5994199999999998  0.25934999999999997  0.18031999999999995  1.0000
  O   O139      1.0  0.005929999999999958  0.16788  0.75552  1.0000
  O   O140      1.0  0.9897800000000002  0.25595  0.83546  1.0000
  O   O141      1.0  0.179  0.54997  0.31103  1.0000
  O   O142      1.0  0.22279999999999997  0.6016  0.29215  1.0000
  O   O143      1.0  0.96889  0.10603999999999987  0.7673899999999998  1.0000
  O   O144      1.0  0.92182  0.24070999999999995  0.8426  1.0000
  O   O145      1.0  0.34281000000000006  0.59334  0.75042  1.0000
  O   O146      1.0  0.15686999999999995  0.9078799999999998  0.24987999999999994  1.0000
  O   O147      1.0  0.24950999999999993  0.65473  0.40325999999999995  1.0000
  O   O148      1.0  0.74856  0.84922  0.09941  1.0000
  O   O149      1.0  0.39865999999999996  0.7501699999999999  0.14869999999999997  1.0000
  O   O150      1.0  0.09901000000000003  0.2503  0.34926  1.0000
  O   O151      1.0  0.65423  0.2501399999999999  0.9044299999999998  1.0000
  O   O152      1.0  0.84539  0.74997  0.59519  1.0000
  O   O153      1.0  0.74964  0.40012  0.6502  1.0000
  O   O154      1.0  0.25  0.09973000000000001  0.84948  1.0000
  O   O155      1.0  0.5935100000000002  0.34433  0.24966  1.0000
  O   O156      1.0  0.9064  0.15648999999999993  0.75091  1.0000
