data_image0
_chemical_formula_structural       Zn24H252C354O78
_chemical_formula_sum              "Zn24 H252 C354 O78"
_cell_length_a       30.2477
_cell_length_b       30.2477
_cell_length_c       30.2477
_cell_angle_alpha    90.0
_cell_angle_beta     90.0
_cell_angle_gamma    90.0

_symmetry_space_group_name_H-M    'P 1'
_symmetry_Int_Tables_number       1

loop_
  _symmetry_equiv_pos_as_xyz
  'x,y,z'

loop_
  _atom_site_type_symbol
  _atom_site_label
  _atom_site_symmetry_multiplicity
  _atom_site_fract_x
  _atom_site_fract_y
  _atom_site_fract_z
  _atom_site_occupancy
  Zn  Zn1       1.0  0.5  0.05375  0.82253  1.0000
  Zn  Zn2       1.0  0.17748  0.5  0.05375  1.0000
  Zn  Zn3       1.0  0.0  0.25108  0.44646999999999987  1.0000
  Zn  Zn4       1.0  0.17748  0.5  0.94625  1.0000
  Zn  Zn5       1.0  0.82253  0.5  0.94625  1.0000
  Zn  Zn6       1.0  0.0  0.25108  0.5535399999999998  1.0000
  Zn  Zn7       1.0  0.5535399999999998  0.0  0.74892  1.0000
  Zn  Zn8       1.0  0.44646999999999987  0.0  0.74892  1.0000
  Zn  Zn9       1.0  0.5  0.05375  0.17748  1.0000
  Zn  Zn10      1.0  0.05375  0.17748  0.5  1.0000
  Zn  Zn11      1.0  0.94625  0.17748  0.5  1.0000
  Zn  Zn12      1.0  0.5535399999999998  0.0  0.25108  1.0000
  Zn  Zn13      1.0  0.0  0.74892  0.44646999999999987  1.0000
  Zn  Zn14      1.0  0.94626  0.82253  0.5  1.0000
  Zn  Zn15      1.0  0.5  0.94625  0.82253  1.0000
  Zn  Zn16      1.0  0.25108  0.5535399999999998  0.0  1.0000
  Zn  Zn17      1.0  0.74892  0.44646999999999987  0.0  1.0000
  Zn  Zn18      1.0  0.05375  0.82253  0.5  1.0000
  Zn  Zn19      1.0  0.74892  0.5535399999999998  0.0  1.0000
  Zn  Zn20      1.0  0.44646999999999987  0.0  0.25108  1.0000
  Zn  Zn21      1.0  0.25108  0.44646999999999987  0.0  1.0000
  Zn  Zn22      1.0  0.82253  0.5  0.05375  1.0000
  Zn  Zn23      1.0  0.0  0.74892  0.5535399999999998  1.0000
  Zn  Zn24      1.0  0.5  0.94625  0.17748  1.0000
  H   H1        1.0  0.23726  0.11155  0.7584399999999999  1.0000
  H   H2        1.0  0.11155  0.75845  0.76274  1.0000
  H   H3        1.0  0.4685  0.5713899999999998  0.0  1.0000
  H   H4        1.0  0.65061  0.27151  0.17542  1.0000
  H   H5        1.0  0.17542  0.34939  0.27151  1.0000
  H   H6        1.0  0.80597  0.32373  0.67924  1.0000
  H   H7        1.0  0.78866  0.84451  0.34992  1.0000
  H   H8        1.0  0.33595  0.31391  0.13694  1.0000
  H   H9        1.0  0.91105  0.28836  0.7352399999999998  1.0000
  H   H10       1.0  0.61299  0.4291  0.0  1.0000
  H   H11       1.0  0.78351  0.87817  0.29538  1.0000
  H   H12       1.0  0.21133999999999994  0.84451  0.34992  1.0000
  H   H13       1.0  0.5  0.07096999999999999  0.04164  1.0000
  H   H14       1.0  0.26476  0.08895  0.7116499999999998  1.0000
  H   H15       1.0  0.78866  0.84451  0.65008  1.0000
  H   H16       1.0  0.07096999999999999  0.04164  0.5  1.0000
  H   H17       1.0  0.7116499999999998  0.7352399999999998  0.91105  1.0000
  H   H18       1.0  0.7352399999999998  0.08895  0.28836  1.0000
  H   H19       1.0  0.40669999999999995  0.15319  0.84246  1.0000
  H   H20       1.0  0.65425  0.09455  0.72821  1.0000
  H   H21       1.0  0.9054499999999998  0.27179  0.65425  1.0000
  H   H22       1.0  0.68609  0.86307  0.6640499999999998  1.0000
  H   H23       1.0  0.15549  0.65008  0.78866  1.0000
  H   H24       1.0  0.6640499999999998  0.31391  0.13694  1.0000
  H   H25       1.0  0.31391  0.86307  0.33595  1.0000
  H   H26       1.0  0.27179  0.65425  0.09455  1.0000
  H   H27       1.0  0.7352399999999998  0.91105  0.28836  1.0000
  H   H28       1.0  0.65008  0.21133999999999994  0.15549  1.0000
  H   H29       1.0  0.70462  0.21649  0.12183999999999998  1.0000
  H   H30       1.0  0.21649  0.87817  0.70462  1.0000
  H   H31       1.0  0.15754  0.5933  0.84681  1.0000
  H   H32       1.0  0.27151  0.17542  0.65061  1.0000
  H   H33       1.0  0.92903  0.95836  0.5  1.0000
  H   H34       1.0  0.15754  0.5933  0.15319  1.0000
  H   H35       1.0  0.21649  0.12183999999999998  0.29538  1.0000
  H   H36       1.0  0.32076  0.19403  0.67627  1.0000
  H   H37       1.0  0.84246  0.40669999999999995  0.15319  1.0000
  H   H38       1.0  0.70462  0.78351  0.87817  1.0000
  H   H39       1.0  0.7284899999999999  0.17542  0.34939  1.0000
  H   H40       1.0  0.84246  0.40669999999999995  0.84681  1.0000
  H   H41       1.0  0.86307  0.33595  0.31391  1.0000
  H   H42       1.0  0.15319  0.84246  0.5933  1.0000
  H   H43       1.0  0.08895  0.28836  0.7352399999999998  1.0000
  H   H44       1.0  0.84451  0.65008  0.21133999999999994  1.0000
  H   H45       1.0  0.6640499999999998  0.31391  0.86307  1.0000
  H   H46       1.0  0.42861  0.0  0.5315  1.0000
  H   H47       1.0  0.7352399999999998  0.08895  0.7116499999999998  1.0000
  H   H48       1.0  0.32076  0.19403  0.32373  1.0000
  H   H49       1.0  0.33595  0.31391  0.86307  1.0000
  H   H50       1.0  0.26476  0.08895  0.28836  1.0000
  H   H51       1.0  0.76274  0.88845  0.7584399999999999  1.0000
  H   H52       1.0  0.19403  0.32373  0.32076  1.0000
  H   H53       1.0  0.11155  0.24156  0.76274  1.0000
  H   H54       1.0  0.19403  0.67627  0.67924  1.0000
  H   H55       1.0  0.34939  0.7284899999999999  0.17542  1.0000
  H   H56       1.0  0.65061  0.7284899999999999  0.8245799999999998  1.0000
  H   H57       1.0  0.5315  0.42861  0.0  1.0000
  H   H58       1.0  0.21133999999999994  0.15549  0.34992  1.0000
  H   H59       1.0  0.11155  0.7584399999999999  0.23726  1.0000
  H   H60       1.0  0.67924  0.80597  0.67627  1.0000
  H   H61       1.0  0.88845  0.24156  0.76274  1.0000
  H   H62       1.0  0.65008  0.78866  0.84451  1.0000
  H   H63       1.0  0.32373  0.32076  0.19403  1.0000
  H   H64       1.0  0.78866  0.15549  0.34992  1.0000
  H   H65       1.0  0.95836  0.5  0.07096999999999999  1.0000
  H   H66       1.0  0.9054499999999998  0.72821  0.65425  1.0000
  H   H67       1.0  0.33595  0.68609  0.13694  1.0000
  H   H68       1.0  0.7352399999999998  0.91105  0.7116499999999998  1.0000
  H   H69       1.0  0.15319  0.84246  0.40669999999999995  1.0000
  H   H70       1.0  0.75845  0.23726  0.11155  1.0000
  H   H71       1.0  0.5709  0.0  0.61299  1.0000
  H   H72       1.0  0.09455  0.72821  0.65425  1.0000
  H   H73       1.0  0.78866  0.15549  0.65008  1.0000
  H   H74       1.0  0.29538  0.21649  0.87817  1.0000
  H   H75       1.0  0.70462  0.78351  0.12183999999999998  1.0000
  H   H76       1.0  0.67924  0.80597  0.32373  1.0000
  H   H77       1.0  0.0  0.61299  0.4291  1.0000
  H   H78       1.0  0.13694  0.6640499999999998  0.31391  1.0000
  H   H79       1.0  0.0  0.5315  0.5713899999999998  1.0000
  H   H80       1.0  0.09455  0.72821  0.34575  1.0000
  H   H81       1.0  0.68609  0.86307  0.33595  1.0000
  H   H82       1.0  0.34575  0.9054499999999998  0.72821  1.0000
  H   H83       1.0  0.27179  0.65425  0.9054499999999998  1.0000
  H   H84       1.0  0.65061  0.7284899999999999  0.17542  1.0000
  H   H85       1.0  0.34939  0.27151  0.8245799999999998  1.0000
  H   H86       1.0  0.7116499999999998  0.26476  0.08895  1.0000
  H   H87       1.0  0.28836  0.7352399999999998  0.91105  1.0000
  H   H88       1.0  0.42861  0.0  0.4685  1.0000
  H   H89       1.0  0.24156  0.23726  0.88845  1.0000
  H   H90       1.0  0.68609  0.13694  0.33595  1.0000
  H   H91       1.0  0.6640499999999998  0.68609  0.13694  1.0000
  H   H92       1.0  0.70462  0.21649  0.87817  1.0000
  H   H93       1.0  0.32076  0.80597  0.32373  1.0000
  H   H94       1.0  0.5  0.07096999999999999  0.95836  1.0000
  H   H95       1.0  0.0  0.4685  0.5713899999999998  1.0000
  H   H96       1.0  0.78351  0.87817  0.70462  1.0000
  H   H97       1.0  0.08895  0.28836  0.26476  1.0000
  H   H98       1.0  0.76274  0.88845  0.24156  1.0000
  H   H99       1.0  0.75845  0.23726  0.88845  1.0000
  H   H100      1.0  0.07096999999999999  0.95836  0.5  1.0000
  H   H101      1.0  0.67627  0.32076  0.19403  1.0000
  H   H102      1.0  0.76274  0.11155  0.7584399999999999  1.0000
  H   H103      1.0  0.87817  0.29538  0.21649  1.0000
  H   H104      1.0  0.5933  0.84681  0.84246  1.0000
  H   H105      1.0  0.08895  0.7116499999999998  0.26476  1.0000
  H   H106      1.0  0.12183999999999998  0.70462  0.78351  1.0000
  H   H107      1.0  0.84451  0.34992  0.21133999999999994  1.0000
  H   H108      1.0  0.32373  0.67924  0.80597  1.0000
  H   H109      1.0  0.5933  0.15319  0.15754  1.0000
  H   H110      1.0  0.0  0.38701  0.5709  1.0000
  H   H111      1.0  0.11155  0.24156  0.23726  1.0000
  H   H112      1.0  0.84681  0.84246  0.5933  1.0000
  H   H113      1.0  0.23726  0.88845  0.24156  1.0000
  H   H114      1.0  0.86307  0.33595  0.68609  1.0000
  H   H115      1.0  0.80597  0.67627  0.32076  1.0000
  H   H116      1.0  0.0  0.38701  0.4291  1.0000
  H   H117      1.0  0.40669999999999995  0.84681  0.84246  1.0000
  H   H118      1.0  0.65061  0.27151  0.8245799999999998  1.0000
  H   H119      1.0  0.31391  0.13694  0.33595  1.0000
  H   H120      1.0  0.24156  0.23726  0.11155  1.0000
  H   H121      1.0  0.21649  0.12183999999999998  0.70462  1.0000
  H   H122      1.0  0.67627  0.67924  0.80597  1.0000
  H   H123      1.0  0.32076  0.80597  0.67627  1.0000
  H   H124      1.0  0.88845  0.24156  0.23726  1.0000
  H   H125      1.0  0.86307  0.6640499999999998  0.68609  1.0000
  H   H126      1.0  0.78351  0.12183999999999998  0.29538  1.0000
  H   H127      1.0  0.0  0.61299  0.5709  1.0000
  H   H128      1.0  0.7284899999999999  0.8245799999999998  0.65061  1.0000
  H   H129      1.0  0.84246  0.5933  0.84681  1.0000
  H   H130      1.0  0.34992  0.78866  0.84451  1.0000
  H   H131      1.0  0.17542  0.65061  0.7284899999999999  1.0000
  H   H132      1.0  0.09455  0.27179  0.34575  1.0000
  H   H133      1.0  0.7116499999999998  0.26476  0.91105  1.0000
  H   H134      1.0  0.84451  0.65008  0.78866  1.0000
  H   H135      1.0  0.76274  0.11155  0.24156  1.0000
  H   H136      1.0  0.15754  0.40669999999999995  0.84681  1.0000
  H   H137      1.0  0.24156  0.76274  0.11155  1.0000
  H   H138      1.0  0.29538  0.78351  0.12183999999999998  1.0000
  H   H139      1.0  0.15319  0.15754  0.40669999999999995  1.0000
  H   H140      1.0  0.26476  0.91105  0.28836  1.0000
  H   H141      1.0  0.12183999999999998  0.29538  0.78351  1.0000
  H   H142      1.0  0.15754  0.40669999999999995  0.15319  1.0000
  H   H143      1.0  0.38701  0.4291  0.0  1.0000
  H   H144      1.0  0.8245799999999998  0.65061  0.7284899999999999  1.0000
  H   H145      1.0  0.8245799999999998  0.34939  0.7284899999999999  1.0000
  H   H146      1.0  0.21133999999999994  0.84451  0.65008  1.0000
  H   H147      1.0  0.04164  0.5  0.92903  1.0000
  H   H148      1.0  0.34992  0.21133999999999994  0.84451  1.0000
  H   H149      1.0  0.28836  0.26476  0.08895  1.0000
  H   H150      1.0  0.13694  0.33595  0.68609  1.0000
  H   H151      1.0  0.09455  0.27179  0.65425  1.0000
  H   H152      1.0  0.91105  0.7116499999999998  0.26476  1.0000
  H   H153      1.0  0.9054499999999998  0.27179  0.34575  1.0000
  H   H154      1.0  0.72821  0.65425  0.09455  1.0000
  H   H155      1.0  0.75845  0.76274  0.11155  1.0000
  H   H156      1.0  0.29538  0.21649  0.12183999999999998  1.0000
  H   H157      1.0  0.12183999999999998  0.29538  0.21649  1.0000
  H   H158      1.0  0.27151  0.17542  0.34939  1.0000
  H   H159      1.0  0.15549  0.34992  0.21133999999999994  1.0000
  H   H160      1.0  0.84681  0.15754  0.5933  1.0000
  H   H161      1.0  0.28836  0.7352399999999998  0.08895  1.0000
  H   H162      1.0  0.15549  0.65008  0.21133999999999994  1.0000
  H   H163      1.0  0.34939  0.7284899999999999  0.8245799999999998  1.0000
  H   H164      1.0  0.34575  0.09455  0.27179  1.0000
  H   H165      1.0  0.8245799999999998  0.65061  0.27151  1.0000
  H   H166      1.0  0.88845  0.75845  0.76274  1.0000
  H   H167      1.0  0.72821  0.34575  0.9054499999999998  1.0000
  H   H168      1.0  0.5315  0.5713899999999998  0.0  1.0000
  H   H169      1.0  0.87817  0.70462  0.21649  1.0000
  H   H170      1.0  0.19403  0.32373  0.67924  1.0000
  H   H171      1.0  0.67627  0.67924  0.19403  1.0000
  H   H172      1.0  0.28836  0.26476  0.91105  1.0000
  H   H173      1.0  0.24156  0.76274  0.88845  1.0000
  H   H174      1.0  0.8245799999999998  0.34939  0.27151  1.0000
  H   H175      1.0  0.0  0.5315  0.42861  1.0000
  H   H176      1.0  0.27179  0.34575  0.9054499999999998  1.0000
  H   H177      1.0  0.84681  0.15754  0.40669999999999995  1.0000
  H   H178      1.0  0.65425  0.9054499999999998  0.72821  1.0000
  H   H179      1.0  0.84451  0.34992  0.78866  1.0000
  H   H180      1.0  0.78351  0.12183999999999998  0.70462  1.0000
  H   H181      1.0  0.23726  0.88845  0.7584399999999999  1.0000
  H   H182      1.0  0.7284899999999999  0.8245799999999998  0.34939  1.0000
  H   H183      1.0  0.7284899999999999  0.17542  0.65061  1.0000
  H   H184      1.0  0.27151  0.8245799999999998  0.34939  1.0000
  H   H185      1.0  0.65425  0.9054499999999998  0.27179  1.0000
  H   H186      1.0  0.23726  0.11155  0.24156  1.0000
  H   H187      1.0  0.61299  0.5709  0.0  1.0000
  H   H188      1.0  0.04164  0.5  0.07096999999999999  1.0000
  H   H189      1.0  0.15549  0.34992  0.78866  1.0000
  H   H190      1.0  0.32373  0.67924  0.19403  1.0000
  H   H191      1.0  0.33595  0.68609  0.86307  1.0000
  H   H192      1.0  0.67924  0.19403  0.67627  1.0000
  H   H193      1.0  0.4291  0.0  0.61299  1.0000
  H   H194      1.0  0.5  0.92903  0.04164  1.0000
  H   H195      1.0  0.27179  0.34575  0.09455  1.0000
  H   H196      1.0  0.86307  0.6640499999999998  0.31391  1.0000
  H   H197      1.0  0.34939  0.27151  0.17542  1.0000
  H   H198      1.0  0.68609  0.13694  0.6640499999999998  1.0000
  H   H199      1.0  0.5933  0.84681  0.15754  1.0000
  H   H200      1.0  0.5713899999999998  0.0  0.5315  1.0000
  H   H201      1.0  0.72821  0.34575  0.09455  1.0000
  H   H202      1.0  0.21133999999999994  0.15549  0.65008  1.0000
  H   H203      1.0  0.4291  0.0  0.38701  1.0000
  H   H204      1.0  0.21649  0.87817  0.29538  1.0000
  H   H205      1.0  0.87817  0.70462  0.78351  1.0000
  H   H206      1.0  0.5933  0.15319  0.84246  1.0000
  H   H207      1.0  0.9054499999999998  0.72821  0.34575  1.0000
  H   H208      1.0  0.34575  0.9054499999999998  0.27179  1.0000
  H   H209      1.0  0.91105  0.28836  0.26476  1.0000
  H   H210      1.0  0.65008  0.78866  0.15549  1.0000
  H   H211      1.0  0.65008  0.21133999999999994  0.84451  1.0000
  H   H212      1.0  0.72821  0.65425  0.9054499999999998  1.0000
  H   H213      1.0  0.26476  0.91105  0.7116499999999998  1.0000
  H   H214      1.0  0.40669999999999995  0.84681  0.15754  1.0000
  H   H215      1.0  0.84681  0.84246  0.40669999999999995  1.0000
  H   H216      1.0  0.7116499999999998  0.7352399999999998  0.08895  1.0000
  H   H217      1.0  0.34992  0.21133999999999994  0.15549  1.0000
  H   H218      1.0  0.87817  0.29538  0.78351  1.0000
  H   H219      1.0  0.13694  0.33595  0.31391  1.0000
  H   H220      1.0  0.31391  0.13694  0.6640499999999998  1.0000
  H   H221      1.0  0.80597  0.32373  0.32076  1.0000
  H   H222      1.0  0.65425  0.09455  0.27179  1.0000
  H   H223      1.0  0.13694  0.6640499999999998  0.68609  1.0000
  H   H224      1.0  0.40669999999999995  0.15319  0.15754  1.0000
  H   H225      1.0  0.15319  0.15754  0.5933  1.0000
  H   H226      1.0  0.4685  0.42861  0.0  1.0000
  H   H227      1.0  0.88845  0.7584399999999999  0.23726  1.0000
  H   H228      1.0  0.19403  0.67627  0.32076  1.0000
  H   H229      1.0  0.29538  0.78351  0.87817  1.0000
  H   H230      1.0  0.34575  0.09455  0.72821  1.0000
  H   H231      1.0  0.67924  0.19403  0.32373  1.0000
  H   H232      1.0  0.17542  0.65061  0.27151  1.0000
  H   H233      1.0  0.5709  0.0  0.38701  1.0000
  H   H234      1.0  0.38701  0.5709  0.0  1.0000
  H   H235      1.0  0.6640499999999998  0.68609  0.86307  1.0000
  H   H236      1.0  0.27151  0.8245799999999998  0.65061  1.0000
  H   H237      1.0  0.80597  0.67627  0.67924  1.0000
  H   H238      1.0  0.0  0.4685  0.42861  1.0000
  H   H239      1.0  0.34992  0.78866  0.15549  1.0000
  H   H240      1.0  0.67627  0.32076  0.80597  1.0000
  H   H241      1.0  0.91105  0.7116499999999998  0.7352399999999998  1.0000
  H   H242      1.0  0.84246  0.5933  0.15319  1.0000
  H   H243      1.0  0.08895  0.7116499999999998  0.7352399999999998  1.0000
  H   H244      1.0  0.5713899999999998  0.0  0.4685  1.0000
  H   H245      1.0  0.12183999999999998  0.70462  0.21649  1.0000
  H   H246      1.0  0.32373  0.32076  0.80597  1.0000
  H   H247      1.0  0.9290399999999998  0.04164  0.5  1.0000
  H   H248      1.0  0.5  0.92903  0.95836  1.0000
  H   H249      1.0  0.17542  0.34939  0.7284899999999999  1.0000
  H   H250      1.0  0.75845  0.76274  0.88845  1.0000
  H   H251      1.0  0.95836  0.5  0.92903  1.0000
  H   H252      1.0  0.31391  0.86307  0.6640499999999998  1.0000
  C   C1        1.0  0.65364  0.87972  0.75336  1.0000
  C   C2        1.0  0.40543999999999997  0.5400199999999997  0.0  1.0000
  C   C3        1.0  0.27693  0.15919  0.72167  1.0000
  C   C4        1.0  0.15355999999999995  0.8178299999999998  0.6194799999999998  1.0000
  C   C5        1.0  0.61792  0.5  0.0  1.0000
  C   C6        1.0  0.87987  0.78552  0.6200799999999997  1.0000
  C   C7        1.0  0.72402  0.24679  0.8820499999999998  1.0000
  C   C8        1.0  0.27693  0.8408099999999997  0.2783299999999999  1.0000
  C   C9        1.0  0.8820499999999998  0.27598  0.24679  1.0000
  C   C10       1.0  0.27693  0.8408099999999997  0.72167  1.0000
  C   C11       1.0  0.46013  0.0  0.54867  1.0000
  C   C12       1.0  0.45133  0.53987  0.0  1.0000
  C   C13       1.0  0.5  0.95974  0.02296  1.0000
  C   C14       1.0  0.72307  0.8408099999999997  0.2783299999999999  1.0000
  C   C15       1.0  0.8465699999999998  0.75409  0.3147  1.0000
  C   C16       1.0  0.72167  0.27693  0.15919  1.0000
  C   C17       1.0  0.34636  0.12028  0.75336  1.0000
  C   C18       1.0  0.72352  0.21641  0.77787  1.0000
  C   C19       1.0  0.5  0.0  0.52448  1.0000
  C   C20       1.0  0.0  0.04603  0.5  1.0000
  C   C21       1.0  0.9770399999999998  0.5  0.95974  1.0000
  C   C22       1.0  0.0  0.90468  0.5  1.0000
  C   C23       1.0  0.4147  0.91485  0.78517  1.0000
  C   C24       1.0  0.8178299999999998  0.38052  0.84644  1.0000
  C   C25       1.0  0.8465699999999998  0.24591  0.6853  1.0000
  C   C26       1.0  0.5  0.0  0.33304  1.0000
  C   C27       1.0  0.9770399999999998  0.5  0.04026  1.0000
  C   C28       1.0  0.65176  0.8134799999999998  0.81875  1.0000
  C   C29       1.0  0.78359  0.77787  0.72352  1.0000
  C   C30       1.0  0.72167  0.72307  0.15919  1.0000
  C   C31       1.0  0.7033  0.1669  0.32486999999999994  1.0000
  C   C32       1.0  0.15919  0.2783299999999999  0.27693  1.0000
  C   C33       1.0  0.68541  0.81304  0.2134  1.0000
  C   C34       1.0  0.79964  0.26045  0.74586  1.0000
  C   C35       1.0  0.78517  0.5852999999999998  0.08514999999999999  1.0000
  C   C36       1.0  0.79964  0.73956  0.74586  1.0000
  C   C37       1.0  0.27598  0.24679  0.8820499999999998  1.0000
  C   C38       1.0  0.0  0.45133  0.53987  1.0000
  C   C39       1.0  0.3147  0.15343  0.75409  1.0000
  C   C40       1.0  0.0  0.59456  0.45998  1.0000
  C   C41       1.0  0.21483  0.5852999999999998  0.91485  1.0000
  C   C42       1.0  0.72352  0.21641  0.22212999999999997  1.0000
  C   C43       1.0  0.8134799999999998  0.18125  0.65176  1.0000
  C   C44       1.0  0.04603  0.5  0.0  1.0000
  C   C45       1.0  0.81304  0.7866  0.68541  1.0000
  C   C46       1.0  0.8820499999999998  0.72402  0.24679  1.0000
  C   C47       1.0  0.87987  0.78552  0.37991999999999987  1.0000
  C   C48       1.0  0.15919  0.72167  0.27693  1.0000
  C   C49       1.0  0.24664  0.34636  0.12028  1.0000
  C   C50       1.0  0.20036  0.73956  0.74586  1.0000
  C   C51       1.0  0.40543999999999997  0.45998  0.0  1.0000
  C   C52       1.0  0.6853  0.8465699999999998  0.75409  1.0000
  C   C53       1.0  0.78552  0.37991999999999987  0.87987  1.0000
  C   C54       1.0  0.78359  0.77787  0.27648  1.0000
  C   C55       1.0  0.5852999999999998  0.91485  0.78517  1.0000
  C   C56       1.0  0.0  0.54867  0.53987  1.0000
  C   C57       1.0  0.38052  0.15355999999999995  0.8178299999999998  1.0000
  C   C58       1.0  0.21448  0.37991999999999987  0.87987  1.0000
  C   C59       1.0  0.78359  0.22212999999999997  0.72352  1.0000
  C   C60       1.0  0.15919  0.72167  0.72307  1.0000
  C   C61       1.0  0.59456  0.5400199999999997  0.0  1.0000
  C   C62       1.0  0.72352  0.78359  0.22212999999999997  1.0000
  C   C63       1.0  0.7033  0.8331  0.32486999999999994  1.0000
  C   C64       1.0  0.8134799999999998  0.81875  0.34824  1.0000
  C   C65       1.0  0.84644  0.8178299999999998  0.38052  1.0000
  C   C66       1.0  0.5  0.0  0.38208  1.0000
  C   C67       1.0  0.0  0.33304  0.5  1.0000
  C   C68       1.0  0.18216999999999994  0.38052  0.84644  1.0000
  C   C69       1.0  0.72307  0.15919  0.72167  1.0000
  C   C70       1.0  0.0  0.45133  0.46013  1.0000
  C   C71       1.0  0.8134799999999998  0.81875  0.65176  1.0000
  C   C72       1.0  0.87987  0.21448  0.37991999999999987  1.0000
  C   C73       1.0  0.21641  0.22212999999999997  0.27648  1.0000
  C   C74       1.0  0.22212999999999997  0.27648  0.21641  1.0000
  C   C75       1.0  0.27693  0.15919  0.2783299999999999  1.0000
  C   C76       1.0  0.45998  0.0  0.40543999999999997  1.0000
  C   C77       1.0  0.7033  0.1669  0.67513  1.0000
  C   C78       1.0  0.65176  0.18652  0.18125  1.0000
  C   C79       1.0  0.24679  0.11795  0.27598  1.0000
  C   C80       1.0  0.4147  0.08514999999999999  0.78517  1.0000
  C   C81       1.0  0.3147  0.15343  0.24591  1.0000
  C   C82       1.0  0.0  0.66696  0.5  1.0000
  C   C83       1.0  0.21641  0.77787  0.72352  1.0000
  C   C84       1.0  0.2967  0.8331  0.67513  1.0000
  C   C85       1.0  0.5852999999999998  0.91485  0.21483  1.0000
  C   C86       1.0  0.8465699999999998  0.24591  0.3147  1.0000
  C   C87       1.0  0.8331  0.32486999999999994  0.7033  1.0000
  C   C88       1.0  0.65364  0.12028  0.75336  1.0000
  C   C89       1.0  0.3147  0.8465699999999998  0.75409  1.0000
  C   C90       1.0  0.75321  0.8820499999999998  0.27598  1.0000
  C   C91       1.0  0.15343  0.75409  0.3147  1.0000
  C   C92       1.0  0.0  0.09531999999999997  0.5  1.0000
  C   C93       1.0  0.18125  0.65176  0.18652  1.0000
  C   C94       1.0  0.6194799999999998  0.84644  0.8178299999999998  1.0000
  C   C95       1.0  0.24591  0.6853  0.15343  1.0000
  C   C96       1.0  0.81875  0.65176  0.8134799999999998  1.0000
  C   C97       1.0  0.54867  0.46013  0.0  1.0000
  C   C98       1.0  0.11795  0.72402  0.75321  1.0000
  C   C99       1.0  0.18125  0.34824  0.8134799999999998  1.0000
  C   C100      1.0  0.8178299999999998  0.6194799999999998  0.15355999999999995  1.0000
  C   C101      1.0  0.21641  0.77787  0.27648  1.0000
  C   C102      1.0  0.2967  0.1669  0.32486999999999994  1.0000
  C   C103      1.0  0.78517  0.4147  0.91485  1.0000
  C   C104      1.0  0.5  0.0  0.66696  1.0000
  C   C105      1.0  0.12013  0.21448  0.6200799999999997  1.0000
  C   C106      1.0  0.26045  0.25414  0.20036  1.0000
  C   C107      1.0  0.87972  0.75336  0.34636  1.0000
  C   C108      1.0  0.75409  0.6853  0.8465699999999998  1.0000
  C   C109      1.0  0.31459  0.81304  0.7866  1.0000
  C   C110      1.0  0.7866  0.31459  0.18695999999999993  1.0000
  C   C111      1.0  0.15355999999999995  0.8178299999999998  0.38052  1.0000
  C   C112      1.0  0.24591  0.6853  0.8465699999999998  1.0000
  C   C113      1.0  0.68541  0.81304  0.7866  1.0000
  C   C114      1.0  0.34824  0.8134799999999998  0.18125  1.0000
  C   C115      1.0  0.12028  0.24664  0.65364  1.0000
  C   C116      1.0  0.26045  0.25414  0.79964  1.0000
  C   C117      1.0  0.37991999999999987  0.87987  0.78552  1.0000
  C   C118      1.0  0.15355999999999995  0.18216999999999994  0.6194799999999998  1.0000
  C   C119      1.0  0.53987  0.0  0.45133  1.0000
  C   C120      1.0  0.09531999999999997  0.5  0.0  1.0000
  C   C121      1.0  0.6200799999999997  0.87987  0.21448  1.0000
  C   C122      1.0  0.7866  0.68541  0.81304  1.0000
  C   C123      1.0  0.5  0.0  0.04603  1.0000
  C   C124      1.0  0.0  0.40543999999999997  0.5400199999999997  1.0000
  C   C125      1.0  0.32486999999999994  0.2967  0.8331  1.0000
  C   C126      1.0  0.75336  0.65364  0.12028  1.0000
  C   C127      1.0  0.2967  0.1669  0.67513  1.0000
  C   C128      1.0  0.5400199999999997  0.0  0.40543999999999997  1.0000
  C   C129      1.0  0.24591  0.3147  0.15343  1.0000
  C   C130      1.0  0.24679  0.11795  0.72402  1.0000
  C   C131      1.0  0.08514999999999999  0.78517  0.4147  1.0000
  C   C132      1.0  0.21448  0.6200799999999997  0.87987  1.0000
  C   C133      1.0  0.72352  0.78359  0.77787  1.0000
  C   C134      1.0  0.1669  0.67513  0.2967  1.0000
  C   C135      1.0  0.08514999999999999  0.21483  0.4147  1.0000
  C   C136      1.0  0.02296  0.5  0.04026  1.0000
  C   C137      1.0  0.73956  0.74586  0.79964  1.0000
  C   C138      1.0  0.31459  0.18695999999999993  0.7866  1.0000
  C   C139      1.0  0.74586  0.20036  0.26045  1.0000
  C   C140      1.0  0.2783299999999999  0.27693  0.15919  1.0000
  C   C141      1.0  0.12028  0.75336  0.65364  1.0000
  C   C142      1.0  0.21448  0.6200799999999997  0.12013  1.0000
  C   C143      1.0  0.73956  0.25414  0.20036  1.0000
  C   C144      1.0  0.04026  0.02296  0.5  1.0000
  C   C145      1.0  0.72402  0.75321  0.11795  1.0000
  C   C146      1.0  0.68541  0.18695999999999993  0.2134  1.0000
  C   C147      1.0  0.0  0.61792  0.5  1.0000
  C   C148      1.0  0.81875  0.34824  0.8134799999999998  1.0000
  C   C149      1.0  0.6853  0.15343  0.75409  1.0000
  C   C150      1.0  0.7866  0.31459  0.81304  1.0000
  C   C151      1.0  0.95974  0.9770399999999998  0.5  1.0000
  C   C152      1.0  0.11795  0.72402  0.24679  1.0000
  C   C153      1.0  0.27598  0.75321  0.8820499999999998  1.0000
  C   C154      1.0  0.75336  0.34636  0.87972  1.0000
  C   C155      1.0  0.34636  0.87972  0.24664  1.0000
  C   C156      1.0  0.18216999999999994  0.6194799999999998  0.15355999999999995  1.0000
  C   C157      1.0  0.02296  0.5  0.95974  1.0000
  C   C158      1.0  0.66696  0.5  0.0  1.0000
  C   C159      1.0  0.79964  0.73956  0.25414  1.0000
  C   C160      1.0  0.87972  0.24664  0.65364  1.0000
  C   C161      1.0  0.21483  0.4147  0.91485  1.0000
  C   C162      1.0  0.0  0.52448  0.5  1.0000
  C   C163      1.0  0.8465699999999998  0.75409  0.6853  1.0000
  C   C164      1.0  0.67513  0.2967  0.8331  1.0000
  C   C165      1.0  0.18695999999999993  0.7866  0.68541  1.0000
  C   C166      1.0  0.75336  0.65364  0.87972  1.0000
  C   C167      1.0  0.72402  0.24679  0.11795  1.0000
  C   C168      1.0  0.27648  0.78359  0.22212999999999997  1.0000
  C   C169      1.0  0.65176  0.8134799999999998  0.18125  1.0000
  C   C170      1.0  0.6200799999999997  0.12013  0.78552  1.0000
  C   C171      1.0  0.38052  0.84644  0.8178299999999998  1.0000
  C   C172      1.0  0.5400199999999997  0.0  0.59456  1.0000
  C   C173      1.0  0.91485  0.21483  0.5852999999999998  1.0000
  C   C174      1.0  0.18216999999999994  0.6194799999999998  0.84644  1.0000
  C   C175      1.0  0.52448  0.5  0.0  1.0000
  C   C176      1.0  0.84644  0.8178299999999998  0.6194799999999998  1.0000
  C   C177      1.0  0.18652  0.81875  0.34824  1.0000
  C   C178      1.0  0.8820499999999998  0.27598  0.75321  1.0000
  C   C179      1.0  0.11795  0.27598  0.24679  1.0000
  C   C180      1.0  0.21641  0.22212999999999997  0.72352  1.0000
  C   C181      1.0  0.67513  0.7033  0.8331  1.0000
  C   C182      1.0  0.26045  0.74586  0.20036  1.0000
  C   C183      1.0  0.6194799999999998  0.84644  0.18216999999999994  1.0000
  C   C184      1.0  0.84644  0.18216999999999994  0.38052  1.0000
  C   C185      1.0  0.6194799999999998  0.15355999999999995  0.18216999999999994  1.0000
  C   C186      1.0  0.6194799999999998  0.15355999999999995  0.8178299999999998  1.0000
  C   C187      1.0  0.5  0.95974  0.9770399999999998  1.0000
  C   C188      1.0  0.45998  0.0  0.59456  1.0000
  C   C189      1.0  0.78359  0.22212999999999997  0.27648  1.0000
  C   C190      1.0  0.2134  0.68541  0.18695999999999993  1.0000
  C   C191      1.0  0.87987  0.21448  0.6200799999999997  1.0000
  C   C192      1.0  0.18652  0.18125  0.34824  1.0000
  C   C193      1.0  0.5  0.04026  0.9770399999999998  1.0000
  C   C194      1.0  0.75409  0.6853  0.15343  1.0000
  C   C195      1.0  0.90468  0.5  0.0  1.0000
  C   C196      1.0  0.24679  0.8820499999999998  0.72402  1.0000
  C   C197      1.0  0.91485  0.78517  0.4147  1.0000
  C   C198      1.0  0.2783299999999999  0.27693  0.8408099999999997  1.0000
  C   C199      1.0  0.72307  0.8408099999999997  0.72167  1.0000
  C   C200      1.0  0.2967  0.8331  0.32486999999999994  1.0000
  C   C201      1.0  0.31459  0.81304  0.2134  1.0000
  C   C202      1.0  0.32486999999999994  0.2967  0.1669  1.0000
  C   C203      1.0  0.24679  0.8820499999999998  0.27598  1.0000
  C   C204      1.0  0.18652  0.81875  0.65176  1.0000
  C   C205      1.0  0.15343  0.75409  0.6853  1.0000
  C   C206      1.0  0.2134  0.31459  0.81304  1.0000
  C   C207      1.0  0.34636  0.12028  0.24664  1.0000
  C   C208      1.0  0.75409  0.3147  0.15343  1.0000
  C   C209      1.0  0.4147  0.91485  0.21483  1.0000
  C   C210      1.0  0.72402  0.75321  0.8820499999999998  1.0000
  C   C211      1.0  0.27648  0.21641  0.77787  1.0000
  C   C212      1.0  0.65364  0.87972  0.24664  1.0000
  C   C213      1.0  0.0  0.47551999999999994  0.5  1.0000
  C   C214      1.0  0.0  0.59456  0.5400199999999997  1.0000
  C   C215      1.0  0.38208  0.5  0.0  1.0000
  C   C216      1.0  0.26045  0.74586  0.79964  1.0000
  C   C217      1.0  0.8331  0.32486999999999994  0.2967  1.0000
  C   C218      1.0  0.12013  0.21448  0.37991999999999987  1.0000
  C   C219      1.0  0.27598  0.24679  0.11795  1.0000
  C   C220      1.0  0.18652  0.18125  0.65176  1.0000
  C   C221      1.0  0.18695999999999993  0.7866  0.31459  1.0000
  C   C222      1.0  0.4147  0.08514999999999999  0.21483  1.0000
  C   C223      1.0  0.5  0.0  0.90468  1.0000
  C   C224      1.0  0.18695999999999993  0.2134  0.31459  1.0000
  C   C225      1.0  0.12013  0.78552  0.37991999999999987  1.0000
  C   C226      1.0  0.38052  0.15355999999999995  0.18216999999999994  1.0000
  C   C227      1.0  0.22212999999999997  0.72352  0.78359  1.0000
  C   C228      1.0  0.74586  0.79964  0.73956  1.0000
  C   C229      1.0  0.91485  0.21483  0.4147  1.0000
  C   C230      1.0  0.95974  0.02296  0.5  1.0000
  C   C231      1.0  0.67513  0.7033  0.1669  1.0000
  C   C232      1.0  0.27598  0.75321  0.11795  1.0000
  C   C233      1.0  0.34824  0.18652  0.18125  1.0000
  C   C234      1.0  0.22212999999999997  0.27648  0.78359  1.0000
  C   C235      1.0  0.74586  0.20036  0.73956  1.0000
  C   C236      1.0  0.67513  0.2967  0.1669  1.0000
  C   C237      1.0  0.32486999999999994  0.7033  0.8331  1.0000
  C   C238      1.0  0.8331  0.67513  0.2967  1.0000
  C   C239      1.0  0.18216999999999994  0.38052  0.15355999999999995  1.0000
  C   C240      1.0  0.04026  0.9770399999999998  0.5  1.0000
  C   C241      1.0  0.72167  0.72307  0.8408099999999997  1.0000
  C   C242      1.0  0.8178299999999998  0.38052  0.15355999999999995  1.0000
  C   C243      1.0  0.3147  0.8465699999999998  0.24591  1.0000
  C   C244      1.0  0.08514999999999999  0.78517  0.5852999999999998  1.0000
  C   C245      1.0  0.81304  0.2134  0.68541  1.0000
  C   C246      1.0  0.65176  0.18652  0.81875  1.0000
  C   C247      1.0  0.77787  0.72352  0.21641  1.0000
  C   C248      1.0  0.38052  0.84644  0.18216999999999994  1.0000
  C   C249      1.0  0.1669  0.67513  0.7033  1.0000
  C   C250      1.0  0.47551999999999994  0.5  0.0  1.0000
  C   C251      1.0  0.75321  0.11795  0.27598  1.0000
  C   C252      1.0  0.15919  0.2783299999999999  0.72307  1.0000
  C   C253      1.0  0.25414  0.79964  0.26045  1.0000
  C   C254      1.0  0.2134  0.31459  0.18695999999999993  1.0000
  C   C255      1.0  0.08514999999999999  0.21483  0.5852999999999998  1.0000
  C   C256      1.0  0.73956  0.25414  0.79964  1.0000
  C   C257      1.0  0.75321  0.8820499999999998  0.72402  1.0000
  C   C258      1.0  0.12028  0.24664  0.34636  1.0000
  C   C259      1.0  0.75409  0.3147  0.8465699999999998  1.0000
  C   C260      1.0  0.31459  0.18695999999999993  0.2134  1.0000
  C   C261      1.0  0.5  0.0  0.09531999999999997  1.0000
  C   C262      1.0  0.12013  0.78552  0.6200799999999997  1.0000
  C   C263      1.0  0.20036  0.26045  0.25414  1.0000
  C   C264      1.0  0.11795  0.27598  0.75321  1.0000
  C   C265      1.0  0.73956  0.74586  0.20036  1.0000
  C   C266      1.0  0.81875  0.34824  0.18652  1.0000
  C   C267      1.0  0.78517  0.4147  0.08514999999999999  1.0000
  C   C268      1.0  0.95397  0.5  0.0  1.0000
  C   C269      1.0  0.21448  0.37991999999999987  0.12013  1.0000
  C   C270      1.0  0.75336  0.34636  0.12028  1.0000
  C   C271      1.0  0.27648  0.78359  0.77787  1.0000
  C   C272      1.0  0.8408099999999997  0.2783299999999999  0.72307  1.0000
  C   C273      1.0  0.27648  0.21641  0.22212999999999997  1.0000
  C   C274      1.0  0.1669  0.32486999999999994  0.7033  1.0000
  C   C275      1.0  0.8331  0.67513  0.7033  1.0000
  C   C276      1.0  0.65364  0.12028  0.24664  1.0000
  C   C277      1.0  0.0  0.54867  0.46013  1.0000
  C   C278      1.0  0.53987  0.0  0.54867  1.0000
  C   C279      1.0  0.0  0.38208  0.5  1.0000
  C   C280      1.0  0.34824  0.8134799999999998  0.81875  1.0000
  C   C281      1.0  0.0  0.95397  0.5  1.0000
  C   C282      1.0  0.6200799999999997  0.87987  0.78552  1.0000
  C   C283      1.0  0.78552  0.37991999999999987  0.12013  1.0000
  C   C284      1.0  0.81875  0.65176  0.18652  1.0000
  C   C285      1.0  0.72307  0.15919  0.2783299999999999  1.0000
  C   C286      1.0  0.87972  0.75336  0.65364  1.0000
  C   C287      1.0  0.45133  0.46013  0.0  1.0000
  C   C288      1.0  0.6853  0.8465699999999998  0.24591  1.0000
  C   C289      1.0  0.2783299999999999  0.72307  0.15919  1.0000
  C   C290      1.0  0.8134799999999998  0.18125  0.34824  1.0000
  C   C291      1.0  0.8820499999999998  0.72402  0.75321  1.0000
  C   C292      1.0  0.34636  0.87972  0.75336  1.0000
  C   C293      1.0  0.78517  0.5852999999999998  0.91485  1.0000
  C   C294      1.0  0.7866  0.68541  0.18695999999999993  1.0000
  C   C295      1.0  0.32486999999999994  0.7033  0.1669  1.0000
  C   C296      1.0  0.8408099999999997  0.72167  0.72307  1.0000
  C   C297      1.0  0.5852999999999998  0.08514999999999999  0.21483  1.0000
  C   C298      1.0  0.18695999999999993  0.2134  0.68541  1.0000
  C   C299      1.0  0.37991999999999987  0.87987  0.21448  1.0000
  C   C300      1.0  0.2134  0.68541  0.81304  1.0000
  C   C301      1.0  0.21483  0.4147  0.08514999999999999  1.0000
  C   C302      1.0  0.5852999999999998  0.08514999999999999  0.78517  1.0000
  C   C303      1.0  0.15355999999999995  0.18216999999999994  0.38052  1.0000
  C   C304      1.0  0.24664  0.65364  0.12028  1.0000
  C   C305      1.0  0.15343  0.24591  0.6853  1.0000
  C   C306      1.0  0.75321  0.11795  0.72402  1.0000
  C   C307      1.0  0.25414  0.20036  0.73956  1.0000
  C   C308      1.0  0.54867  0.53987  0.0  1.0000
  C   C309      1.0  0.8408099999999997  0.2783299999999999  0.27693  1.0000
  C   C310      1.0  0.59456  0.45998  0.0  1.0000
  C   C311      1.0  0.5  0.0  0.47551999999999994  1.0000
  C   C312      1.0  0.20036  0.73956  0.25414  1.0000
  C   C313      1.0  0.8178299999999998  0.6194799999999998  0.84644  1.0000
  C   C314      1.0  0.1669  0.32486999999999994  0.2967  1.0000
  C   C315      1.0  0.81304  0.2134  0.31459  1.0000
  C   C316      1.0  0.20036  0.26045  0.74586  1.0000
  C   C317      1.0  0.33304  0.5  0.0  1.0000
  C   C318      1.0  0.18125  0.34824  0.18652  1.0000
  C   C319      1.0  0.12028  0.75336  0.34636  1.0000
  C   C320      1.0  0.22212999999999997  0.72352  0.21641  1.0000
  C   C321      1.0  0.91485  0.78517  0.5852999999999998  1.0000
  C   C322      1.0  0.87972  0.24664  0.34636  1.0000
  C   C323      1.0  0.24664  0.65364  0.87972  1.0000
  C   C324      1.0  0.34824  0.18652  0.81875  1.0000
  C   C325      1.0  0.77787  0.27648  0.78359  1.0000
  C   C326      1.0  0.5  0.04026  0.02296  1.0000
  C   C327      1.0  0.37991999999999987  0.12013  0.21448  1.0000
  C   C328      1.0  0.25414  0.20036  0.26045  1.0000
  C   C329      1.0  0.68541  0.18695999999999993  0.7866  1.0000
  C   C330      1.0  0.72167  0.27693  0.8408099999999997  1.0000
  C   C331      1.0  0.77787  0.27648  0.21641  1.0000
  C   C332      1.0  0.79964  0.26045  0.25414  1.0000
  C   C333      1.0  0.6200799999999997  0.12013  0.21448  1.0000
  C   C334      1.0  0.74586  0.79964  0.26045  1.0000
  C   C335      1.0  0.21483  0.5852999999999998  0.08514999999999999  1.0000
  C   C336      1.0  0.5  0.0  0.61792  1.0000
  C   C337      1.0  0.2783299999999999  0.72307  0.8408099999999997  1.0000
  C   C338      1.0  0.6853  0.15343  0.24591  1.0000
  C   C339      1.0  0.24664  0.34636  0.87972  1.0000
  C   C340      1.0  0.24591  0.3147  0.8465699999999998  1.0000
  C   C341      1.0  0.0  0.40543999999999997  0.45998  1.0000
  C   C342      1.0  0.18125  0.65176  0.8134799999999998  1.0000
  C   C343      1.0  0.37991999999999987  0.12013  0.78552  1.0000
  C   C344      1.0  0.84644  0.18216999999999994  0.6194799999999998  1.0000
  C   C345      1.0  0.78552  0.6200799999999997  0.87987  1.0000
  C   C346      1.0  0.5  0.0  0.95397  1.0000
  C   C347      1.0  0.15343  0.24591  0.3147  1.0000
  C   C348      1.0  0.8408099999999997  0.72167  0.27693  1.0000
  C   C349      1.0  0.7033  0.8331  0.67513  1.0000
  C   C350      1.0  0.25414  0.79964  0.73956  1.0000
  C   C351      1.0  0.46013  0.0  0.45133  1.0000
  C   C352      1.0  0.77787  0.72352  0.78359  1.0000
  C   C353      1.0  0.81304  0.7866  0.31459  1.0000
  C   C354      1.0  0.78552  0.6200799999999997  0.12013  1.0000
  O   O1        1.0  0.58989  0.94654  0.24259  1.0000
  O   O2        1.0  0.96218  0.8857999999999999  0.5  1.0000
  O   O3        1.0  0.96218  0.11421  0.5  1.0000
  O   O4        1.0  0.21423999999999996  0.5  0.0  1.0000
  O   O5        1.0  0.53784  0.0  0.31417  1.0000
  O   O6        1.0  0.5  0.03782  0.11421  1.0000
  O   O7        1.0  0.5534299999999998  0.9104899999999998  0.18728  1.0000
  O   O8        1.0  0.5534299999999998  0.9104899999999998  0.81272  1.0000
  O   O9        1.0  0.41011  0.94654  0.75741  1.0000
  O   O10       1.0  0.0  0.7857599999999998  0.5  1.0000
  O   O11       1.0  0.41011  0.05347  0.75741  1.0000
  O   O12       1.0  0.75741  0.58989  0.05347  1.0000
  O   O13       1.0  0.75741  0.58989  0.94654  1.0000
  O   O14       1.0  0.18728  0.44657  0.9104899999999998  1.0000
  O   O15       1.0  0.9104899999999998  0.18728  0.5534299999999998  1.0000
  O   O16       1.0  0.7857599999999998  0.5  0.0  1.0000
  O   O17       1.0  0.03782  0.11421  0.5  1.0000
  O   O18       1.0  0.08950999999999998  0.18728  0.5534299999999998  1.0000
  O   O19       1.0  0.05347  0.24259  0.41011  1.0000
  O   O20       1.0  0.0  0.31417  0.53784  1.0000
  O   O21       1.0  0.58989  0.05347  0.75741  1.0000
  O   O22       1.0  0.75741  0.41011  0.94654  1.0000
  O   O23       1.0  0.9104899999999998  0.81272  0.5534299999999998  1.0000
  O   O24       1.0  0.41011  0.05347  0.24259  1.0000
  O   O25       1.0  0.8857999999999999  0.5  0.96218  1.0000
  O   O26       1.0  0.5534299999999998  0.08950999999999998  0.18728  1.0000
  O   O27       1.0  0.5  0.0  0.7857599999999998  1.0000
  O   O28       1.0  0.8857999999999999  0.5  0.03782  1.0000
  O   O29       1.0  0.41011  0.94654  0.24259  1.0000
  O   O30       1.0  0.31417  0.46215999999999996  0.0  1.0000
  O   O31       1.0  0.31417  0.53784  0.0  1.0000
  O   O32       1.0  0.6858299999999998  0.46215999999999996  0.0  1.0000
  O   O33       1.0  0.75741  0.41011  0.05347  1.0000
  O   O34       1.0  0.18728  0.5534299999999998  0.9104899999999998  1.0000
  O   O35       1.0  0.18728  0.44657  0.08950999999999998  1.0000
  O   O36       1.0  0.5  0.96218  0.8857999999999999  1.0000
  O   O37       1.0  0.0  0.6858299999999998  0.46215999999999996  1.0000
  O   O38       1.0  0.03782  0.8857999999999999  0.5  1.0000
  O   O39       1.0  0.9104899999999998  0.18728  0.44657  1.0000
  O   O40       1.0  0.46215999999999996  0.0  0.6858299999999998  1.0000
  O   O41       1.0  0.6858299999999998  0.53784  0.0  1.0000
  O   O42       1.0  0.0  0.31417  0.46215999999999996  1.0000
  O   O43       1.0  0.05347  0.75741  0.41011  1.0000
  O   O44       1.0  0.0  0.21423999999999996  0.5  1.0000
  O   O45       1.0  0.5  0.0  0.21423999999999996  1.0000
  O   O46       1.0  0.81272  0.5534299999999998  0.9104899999999998  1.0000
  O   O47       1.0  0.5534299999999998  0.08950999999999998  0.81272  1.0000
  O   O48       1.0  0.94654  0.24259  0.58989  1.0000
  O   O49       1.0  0.05347  0.75741  0.58989  1.0000
  O   O50       1.0  0.08950999999999998  0.18728  0.44657  1.0000
  O   O51       1.0  0.9104899999999998  0.81272  0.44657  1.0000
  O   O52       1.0  0.94654  0.75741  0.41011  1.0000
  O   O53       1.0  0.11421  0.5  0.96218  1.0000
  O   O54       1.0  0.44657  0.08950999999999998  0.18728  1.0000
  O   O55       1.0  0.5  0.03782  0.8857999999999999  1.0000
  O   O56       1.0  0.94654  0.24259  0.41011  1.0000
  O   O57       1.0  0.81272  0.5534299999999998  0.08950999999999998  1.0000
  O   O58       1.0  0.24259  0.41011  0.94654  1.0000
  O   O59       1.0  0.58989  0.05347  0.24259  1.0000
  O   O60       1.0  0.18728  0.5534299999999998  0.08950999999999998  1.0000
  O   O61       1.0  0.44657  0.08950999999999998  0.81272  1.0000
  O   O62       1.0  0.81272  0.44657  0.9104899999999998  1.0000
  O   O63       1.0  0.0  0.6858299999999998  0.53784  1.0000
  O   O64       1.0  0.53784  0.0  0.6858299999999998  1.0000
  O   O65       1.0  0.5  0.96218  0.11421  1.0000
  O   O66       1.0  0.44657  0.9104899999999998  0.18728  1.0000
  O   O67       1.0  0.08950999999999998  0.81272  0.5534299999999998  1.0000
  O   O68       1.0  0.44657  0.9104899999999998  0.81272  1.0000
  O   O69       1.0  0.46215999999999996  0.0  0.31417  1.0000
  O   O70       1.0  0.24259  0.41011  0.05347  1.0000
  O   O71       1.0  0.81272  0.44657  0.08950999999999998  1.0000
  O   O72       1.0  0.11421  0.5  0.03782  1.0000
  O   O73       1.0  0.05347  0.24259  0.58989  1.0000
  O   O74       1.0  0.58989  0.94654  0.75741  1.0000
  O   O75       1.0  0.08950999999999998  0.81272  0.44657  1.0000
  O   O76       1.0  0.24259  0.58989  0.94654  1.0000
  O   O77       1.0  0.24259  0.58989  0.05347  1.0000
  O   O78       1.0  0.94654  0.75741  0.58989  1.0000
