data_image0
_chemical_formula_structural       Cu4H380C400N16
_chemical_formula_sum              "Cu4 H380 C400 N16"
_cell_length_a       20.98554
_cell_length_b       20.97474
_cell_length_c       27.25996
_cell_angle_alpha    112.60439
_cell_angle_beta     112.59462999999998
_cell_angle_gamma    90.09562

_space_group_name_H-M_alt    "P 1"
_space_group_IT_number       1

loop_
  _space_group_symop_operation_xyz
  'x, y, z'

loop_
  _atom_site_type_symbol
  _atom_site_label
  _atom_site_symmetry_multiplicity
  _atom_site_fract_x
  _atom_site_fract_y
  _atom_site_fract_z
  _atom_site_occupancy
  Cu  Cu1       1.0  0.63432  0.6320600000000001  0.50112  1.0000
  Cu  Cu2       1.0  0.8824800000000002  0.38412  0.00127  1.0000
  Cu  Cu3       1.0  0.13039999999999996  0.13292999999999996  0.49896999999999997  1.0000
  Cu  Cu4       1.0  0.3824600000000001  0.88186  0.99904  1.0000
  H   H1        1.0  0.7633900000000001  0.53374  0.21832999999999994  1.0000
  H   H2        1.0  0.8025  0.34648  0.24358999999999997  1.0000
  H   H3        1.0  0.74379  0.11263  0.05549  1.0000
  H   H4        1.0  0.95826  0.17803  0.18177  1.0000
  H   H5        1.0  0.00847999999999997  0.30951  0.23185999999999998  1.0000
  H   H6        1.0  0.9489200000000001  0.36932  0.23926999999999995  1.0000
  H   H7        1.0  0.9597200000000001  0.31074999999999997  0.27277999999999997  1.0000
  H   H8        1.0  0.66746  0.19345000000000007  0.04827  1.0000
  H   H9        1.0  0.68663  0.26107  0.11858999999999997  1.0000
  H   H10       1.0  0.70376  0.28118000000000004  0.06734  1.0000
  H   H11       1.0  0.9127100000000001  0.05483  0.12515  1.0000
  H   H12       1.0  0.82048  0.026189999999999998  0.08808999999999999  1.0000
  H   H13       1.0  0.8675199999999998  0.04336000000000001  0.05153999999999999  1.0000
  H   H14       1.0  0.88439  0.6727600000000001  0.17015  1.0000
  H   H15       1.0  0.72908  0.529  0.003919999999999999  1.0000
  H   H16       1.0  0.65458  0.4396  0.00685  1.0000
  H   H17       1.0  0.72214  0.39058  0.002959999999999999  1.0000
  H   H18       1.0  0.69242  0.40248  0.058239999999999986  1.0000
  H   H19       1.0  0.8368299999999999  0.7087900000000003  0.08876  1.0000
  H   H20       1.0  0.8615899999999999  0.6397900000000001  0.04071  1.0000
  H   H21       1.0  0.77258  0.6500500000000001  0.01943  1.0000
  H   H22       1.0  0.91655  0.5536899999999998  0.23975999999999995  1.0000
  H   H23       1.0  0.93564  0.64061  0.24723999999999993  1.0000
  H   H24       1.0  0.86433  0.61621  0.2590799999999999  1.0000
  H   H25       1.0  0.76534  0.5755600000000001  0.29922999999999994  1.0000
  H   H26       1.0  0.57175  0.28644  0.35319999999999996  1.0000
  H   H27       1.0  0.78895  0.28315  0.44502  1.0000
  H   H28       1.0  0.87773  0.35052000000000005  0.44462  1.0000
  H   H29       1.0  0.8505499999999999  0.36317000000000005  0.37863  1.0000
  H   H30       1.0  0.86158  0.43391  0.4441099999999999  1.0000
  H   H31       1.0  0.54061  0.34443  0.28891  1.0000
  H   H32       1.0  0.57546  0.43273000000000006  0.33936999999999995  1.0000
  H   H33       1.0  0.60605  0.39307  0.2842  1.0000
  H   H34       1.0  0.69972  0.19929999999999998  0.43520999999999993  1.0000
  H   H35       1.0  0.64289  0.25284000000000006  0.45888999999999996  1.0000
  H   H36       1.0  0.6109  0.18845999999999996  0.38604  1.0000
  H   H37       1.0  0.80484  0.7956500000000002  0.48934999999999995  1.0000
  H   H38       1.0  0.58689  0.72176  0.37409  1.0000
  H   H39       1.0  0.85497  0.61889  0.44242999999999993  1.0000
  H   H40       1.0  0.88284  0.6937499999999999  0.43588  1.0000
  H   H41       1.0  0.878  0.70367  0.5017199999999999  1.0000
  H   H42       1.0  0.7244399999999999  0.87853  0.49137  1.0000
  H   H43       1.0  0.64628  0.85644  0.4265599999999999  1.0000
  H   H44       1.0  0.64471  0.8382100000000002  0.48409999999999986  1.0000
  H   H45       1.0  0.59508  0.53821  0.32437  1.0000
  H   H46       1.0  0.5431500000000001  0.60215  0.31292  1.0000
  H   H47       1.0  0.59667  0.57151  0.27447999999999995  1.0000
  H   H48       1.0  0.69543  0.96941  0.7056999999999999  1.0000
  H   H49       1.0  0.9036500000000001  0.9677500000000001  0.71066  1.0000
  H   H50       1.0  0.9836  0.8578800000000001  0.55945  1.0000
  H   H51       1.0  0.99001  0.72731  0.64943  1.0000
  H   H52       1.0  0.8716800000000001  0.8152300000000001  0.71351  1.0000
  H   H53       1.0  0.84305  0.7280300000000002  0.6588  1.0000
  H   H54       1.0  0.92996  0.7538499999999999  0.7128999999999999  1.0000
  H   H55       1.0  0.89205  0.92518  0.54316  1.0000
  H   H56       1.0  0.82423  0.9223000000000002  0.56682  1.0000
  H   H57       1.0  0.90613  0.9775699999999998  0.6159299999999999  1.0000
  H   H58       1.0  0.07516000000000002  0.7872700000000001  0.57211  1.0000
  H   H59       1.0  0.09143  0.7502900000000001  0.62371  1.0000
  H   H60       1.0  0.02996  0.70267  0.55044  1.0000
  H   H61       1.0  0.66051  0.7306600000000001  0.68891  1.0000
  H   H62       1.0  0.7085099999999999  0.7299900000000001  0.6480299999999999  1.0000
  H   H63       1.0  0.7197599999999998  0.80687  0.7102799999999998  1.0000
  H   H64       1.0  0.541  0.71515  0.62597  1.0000
  H   H65       1.0  0.46881000000000006  0.8644000000000001  0.55403  1.0000
  H   H66       1.0  0.54795  0.93313  0.54252  1.0000
  H   H67       1.0  0.60452  0.9830699999999998  0.6170099999999998  1.0000
  H   H68       1.0  0.6390999999999999  0.93025  0.5683299999999999  1.0000
  H   H69       1.0  0.41869  0.71269  0.58274  1.0000
  H   H70       1.0  0.39521999999999996  0.79639  0.59091  1.0000
  H   H71       1.0  0.3902499999999999  0.7360800000000001  0.5225599999999999  1.0000
  H   H72       1.0  0.92572  0.07095999999999997  0.7611099999999998  1.0000
  H   H73       1.0  0.73665  0.04550999999999994  0.7845799999999999  1.0000
  H   H74       1.0  0.7320100000000002  0.2267099999999999  0.9929499999999999  1.0000
  H   H75       1.0  0.58963  0.20850000000000007  0.82383  1.0000
  H   H76       1.0  0.70354  0.13483000000000006  0.74828  1.0000
  H   H77       1.0  0.61484  0.13525000000000006  0.73857  1.0000
  H   H78       1.0  0.67041  0.21416  0.76212  1.0000
  H   H79       1.0  0.8230699999999999  0.14752  0.99046  1.0000
  H   H80       1.0  0.8642099999999999  0.14162999999999992  0.9430999999999998  1.0000
  H   H81       1.0  0.8704500000000001  0.22368999999999994  0.9994  1.0000
  H   H82       1.0  0.61189  0.2532500000000001  0.9767  1.0000
  H   H83       1.0  0.60928  0.31309  0.94469  1.0000
  H   H84       1.0  0.54927  0.23323000000000008  0.90442  1.0000
  H   H85       1.0  0.08470999999999991  0.27461999999999986  0.8097099999999998  1.0000
  H   H86       1.0  0.15361999999999995  0.20863000000000004  0.9498099999999999  1.0000
  H   H87       1.0  0.9562099999999999  0.27146999999999993  0.7584499999999998  1.0000
  H   H88       1.0  0.8946899999999999  0.21424999999999983  0.7596699999999997  1.0000
  H   H89       1.0  0.94844  0.17936999999999992  0.7230199999999999  1.0000
  H   H90       1.0  0.99209  0.09664999999999986  0.8985799999999998  1.0000
  H   H91       1.0  0.07506000000000014  0.13723  0.95837  1.0000
  H   H92       1.0  0.0004799999999999983  0.17753999999999995  0.9567899999999999  1.0000
  H   H93       1.0  0.24016999999999988  0.25412999999999997  0.9264899999999998  1.0000
  H   H94       1.0  0.2131999999999999  0.2715699999999999  0.8632099999999998  1.0000
  H   H95       1.0  0.2131399999999999  0.3348999999999999  0.92874  1.0000
  H   H96       1.0  0.78351  0.51294  0.71838  1.0000
  H   H97       1.0  0.59599  0.5524599999999998  0.7430499999999998  1.0000
  H   H98       1.0  0.36265  0.49344  0.55509  1.0000
  H   H99       1.0  0.42796999999999996  0.70802  0.6814899999999999  1.0000
  H   H100      1.0  0.5591599999999999  0.75839  0.7312999999999997  1.0000
  H   H101      1.0  0.61916  0.69896  0.73876  1.0000
  H   H102      1.0  0.5607400000000001  0.70967  0.77233  1.0000
  H   H103      1.0  0.44358  0.41724000000000006  0.54759  1.0000
  H   H104      1.0  0.51076  0.43618000000000007  0.61797  1.0000
  H   H105      1.0  0.5314899999999999  0.4537300000000001  0.5671699999999998  1.0000
  H   H106      1.0  0.30475  0.6621300000000001  0.62521  1.0000
  H   H107      1.0  0.2763  0.56977  0.58786  1.0000
  H   H108      1.0  0.29315  0.61735  0.55158  1.0000
  H   H109      1.0  0.92302  0.6340899999999999  0.6703199999999999  1.0000
  H   H110      1.0  0.7795  0.47873000000000004  0.504  1.0000
  H   H111      1.0  0.68977  0.40474  0.50599  1.0000
  H   H112      1.0  0.6406800000000001  0.47248  0.50324  1.0000
  H   H113      1.0  0.65304  0.4414199999999999  0.5578299999999999  1.0000
  H   H114      1.0  0.95937  0.5868600000000002  0.58946  1.0000
  H   H115      1.0  0.89048  0.61025  0.54028  1.0000
  H   H116      1.0  0.90159  0.52148  0.52034  1.0000
  H   H117      1.0  0.8039499999999999  0.66634  0.7398599999999999  1.0000
  H   H118      1.0  0.89064  0.68567  0.74705  1.0000
  H   H119      1.0  0.8667299999999999  0.61436  0.7591499999999999  1.0000
  H   H120      1.0  0.82673  0.5225999999999998  0.8027199999999999  1.0000
  H   H121      1.0  0.53588  0.32209  0.85319  1.0000
  H   H122      1.0  0.53376  0.53975  0.945  1.0000
  H   H123      1.0  0.6013999999999999  0.6280699999999999  0.9441099999999998  1.0000
  H   H124      1.0  0.61364  0.60013  0.87795  1.0000
  H   H125      1.0  0.6846199999999999  0.61142  0.9433199999999999  1.0000
  H   H126      1.0  0.5933800000000001  0.2902  0.78886  1.0000
  H   H127      1.0  0.6820600000000001  0.32506  0.83823  1.0000
  H   H128      1.0  0.64097  0.35533  0.78305  1.0000
  H   H129      1.0  0.44982  0.45096999999999987  0.9356499999999999  1.0000
  H   H130      1.0  0.50334  0.39439  0.95962  1.0000
  H   H131      1.0  0.43883999999999995  0.36179  0.8868299999999998  1.0000
  H   H132      1.0  0.04566000000000006  0.5550400000000001  0.98967  1.0000
  H   H133      1.0  0.97116  0.3374900000000001  0.87309  1.0000
  H   H134      1.0  0.86935  0.60588  0.94302  1.0000
  H   H135      1.0  0.9436999999999999  0.63393  0.93596  1.0000
  H   H136      1.0  0.9544000000000001  0.6290800000000001  0.0019299999999999996  1.0000
  H   H137      1.0  0.12812000000000004  0.4740700000000001  0.9912199999999999  1.0000
  H   H138      1.0  0.10573999999999992  0.39599  0.92632  1.0000
  H   H139      1.0  0.08704999999999997  0.3944800000000001  0.98371  1.0000
  H   H140      1.0  0.7871699999999999  0.34751  0.82157  1.0000
  H   H141      1.0  0.8508999999999999  0.29442  0.81206  1.0000
  H   H142      1.0  0.82342  0.3478099999999999  0.7730899999999999  1.0000
  H   H143      1.0  0.21896  0.44527  0.20549999999999996  1.0000
  H   H144      1.0  0.21753  0.6536  0.21058  1.0000
  H   H145      1.0  0.10785  0.73385  0.05942  1.0000
  H   H146      1.0  0.97775  0.74058  0.14978  1.0000
  H   H147      1.0  0.06546999999999999  0.62171  0.21342999999999998  1.0000
  H   H148      1.0  0.9782900000000001  0.59318  0.15886  1.0000
  H   H149      1.0  0.0043099999999999606  0.6801400000000001  0.21321999999999994  1.0000
  H   H150      1.0  0.17475  0.64184  0.042749999999999996  1.0000
  H   H151      1.0  0.17141  0.57387  0.06627  1.0000
  H   H152      1.0  0.22716  0.65546  0.11541999999999998  1.0000
  H   H153      1.0  0.037439999999999994  0.8258300000000001  0.07246999999999999  1.0000
  H   H154      1.0  0.0002099999999999948  0.8417600000000001  0.12392  1.0000
  H   H155      1.0  0.953  0.7803800000000001  0.05057  1.0000
  H   H156      1.0  0.98025  0.41029  0.18861  1.0000
  H   H157      1.0  0.97943  0.45819000000000004  0.14761  1.0000
  H   H158      1.0  0.05628999999999997  0.46973000000000004  0.20989999999999995  1.0000
  H   H159      1.0  0.9649300000000001  0.2906900000000001  0.12577  1.0000
  H   H160      1.0  0.11423  0.21863000000000002  0.053869999999999994  1.0000
  H   H161      1.0  0.18201  0.29795000000000005  0.04166999999999999  1.0000
  H   H162      1.0  0.23252  0.35375  0.11631  1.0000
  H   H163      1.0  0.17986  0.38930000000000003  0.06835999999999999  1.0000
  H   H164      1.0  0.9629300000000001  0.16826  0.08286999999999999  1.0000
  H   H165      1.0  0.04666  0.14503999999999997  0.09103999999999998  1.0000
  H   H166      1.0  0.9862300000000002  0.13975  0.022639999999999993  1.0000
  H   H167      1.0  0.32125  0.67547  0.26084  1.0000
  H   H168      1.0  0.29517  0.4865  0.28438  1.0000
  H   H169      1.0  0.4758899999999999  0.48179  0.4926299999999999  1.0000
  H   H170      1.0  0.45851  0.33943000000000006  0.3237  1.0000
  H   H171      1.0  0.3837  0.453  0.24794999999999995  1.0000
  H   H172      1.0  0.38583  0.36442  0.23832999999999993  1.0000
  H   H173      1.0  0.46383  0.42148000000000013  0.26202  1.0000
  H   H174      1.0  0.39564  0.57262  0.48943  1.0000
  H   H175      1.0  0.39063  0.6138799999999999  0.4422999999999999  1.0000
  H   H176      1.0  0.47217999999999993  0.62017  0.4991  1.0000
  H   H177      1.0  0.50359  0.36216  0.4767599999999999  1.0000
  H   H178      1.0  0.56295  0.35942  0.44431  1.0000
  H   H179      1.0  0.48324000000000006  0.29925999999999997  0.40448999999999996  1.0000
  H   H180      1.0  0.52383  0.8345500000000002  0.30913  1.0000
  H   H181      1.0  0.4587  0.9034100000000002  0.4497  1.0000
  H   H182      1.0  0.52077  0.70562  0.25784999999999997  1.0000
  H   H183      1.0  0.46303000000000005  0.64435  0.25891  1.0000
  H   H184      1.0  0.4288100000000001  0.6986599999999998  0.22268  1.0000
  H   H185      1.0  0.34666  0.74196  0.39842  1.0000
  H   H186      1.0  0.38719000000000003  0.82497  0.4581799999999999  1.0000
  H   H187      1.0  0.42740000000000006  0.7502900000000001  0.4567  1.0000
  H   H188      1.0  0.50483  0.9901400000000001  0.42673999999999995  1.0000
  H   H189      1.0  0.52205  0.96313  0.36330999999999997  1.0000
  H   H190      1.0  0.58514  0.9624  0.42859999999999987  1.0000
  H   H191      1.0  0.31489  0.5447  0.78166  1.0000
  H   H192      1.0  0.10273000000000002  0.55969  0.75669  1.0000
  H   H193      1.0  0.05743999999999988  0.68875  0.9448699999999998  1.0000
  H   H194      1.0  0.9960899999999999  0.77651  0.81828  1.0000
  H   H195      1.0  0.07715000000000005  0.77701  0.76839  1.0000
  H   H196      1.0  0.13008  0.71049  0.76112  1.0000
  H   H197      1.0  0.038100000000000016  0.68716  0.7274  1.0000
  H   H198      1.0  0.14579999999999985  0.6197499999999999  0.9522099999999999  1.0000
  H   H199      1.0  0.14290000000000005  0.56847  0.88189  1.0000
  H   H200      1.0  0.21421  0.6370800000000001  0.93292  1.0000
  H   H201      1.0  0.9293400000000002  0.78717  0.8747299999999999  1.0000
  H   H202      1.0  0.9378699999999999  0.73172  0.9115999999999997  1.0000
  H   H203      1.0  0.99116  0.81557  0.9484099999999999  1.0000
  H   H204      1.0  0.50243  0.7136  0.82962  1.0000
  H   H205      1.0  0.5248399999999998  0.72635  0.9963699999999998  1.0000
  H   H206      1.0  0.43299999999999994  0.64844  0.9934899999999998  1.0000
  H   H207      1.0  0.38784999999999986  0.7198300000000001  0.9973399999999998  1.0000
  H   H208      1.0  0.3444199999999999  0.63467  0.9421799999999998  1.0000
  H   H209      1.0  0.61905  0.74908  0.91046  1.0000
  H   H210      1.0  0.59975  0.8208199999999998  0.9606699999999999  1.0000
  H   H211      1.0  0.63087  0.75103  0.97914  1.0000
  H   H212      1.0  0.31408  0.67608  0.75971  1.0000
  H   H213      1.0  0.39380999999999994  0.6878600000000001  0.75276  1.0000
  H   H214      1.0  0.35757  0.60465  0.74078  1.0000
  H   H215      1.0  0.27393  0.47007  0.69734  1.0000
  H   H216      1.0  0.93273  0.21868  0.6471  1.0000
  H   H217      1.0  0.83906  0.3436100000000001  0.55436  1.0000
  H   H218      1.0  0.9075300000000001  0.4326200000000001  0.55507  1.0000
  H   H219      1.0  0.9855399999999999  0.47148000000000007  0.62145  1.0000
  H   H220      1.0  0.99182  0.41695  0.55647  1.0000
  H   H221      1.0  0.054889999999999876  0.25142  0.7117599999999997  1.0000
  H   H222      1.0  0.09398  0.23673000000000002  0.66223  1.0000
  H   H223      1.0  0.10807999999999997  0.32233000000000006  0.71735  1.0000
  H   H224      1.0  0.7643000000000001  0.26426  0.56372  1.0000
  H   H225      1.0  0.79426  0.18381000000000006  0.54026  1.0000
  H   H226      1.0  0.8020100000000001  0.22434999999999994  0.6128999999999999  1.0000
  H   H227      1.0  0.30604  0.31545  0.51055  1.0000
  H   H228      1.0  0.34806  0.21421999999999994  0.62684  1.0000
  H   H229      1.0  0.17624  0.41262000000000004  0.5571299999999999  1.0000
  H   H230      1.0  0.25768  0.44805  0.56448  1.0000
  H   H231      1.0  0.20262  0.37722  0.49835  1.0000
  H   H232      1.0  0.3864000000000001  0.23233000000000004  0.50839  1.0000
  H   H233      1.0  0.4301  0.22085000000000005  0.57391  1.0000
  H   H234      1.0  0.35439  0.16071  0.51727  1.0000
  H   H235      1.0  0.21571000000000004  0.27579000000000004  0.67847  1.0000
  H   H236      1.0  0.2888699999999999  0.23209999999999997  0.6879499999999998  1.0000
  H   H237      1.0  0.3005199999999999  0.32450999999999997  0.7269199999999998  1.0000
  H   H238      1.0  0.26356  0.9897  0.29486999999999997  1.0000
  H   H239      1.0  0.25713  0.19295999999999996  0.28998999999999997  1.0000
  H   H240      1.0  0.29851  0.42435  0.44066  1.0000
  H   H241      1.0  0.078  0.3406100000000001  0.3504  1.0000
  H   H242      1.0  0.10208000000000002  0.15804  0.287  1.0000
  H   H243      1.0  0.06974999999999998  0.18410999999999997  0.34173999999999993  1.0000
  H   H244      1.0  0.04111  0.2167  0.2874  1.0000
  H   H245      1.0  0.3820299999999999  0.3490400000000001  0.45739999999999986  1.0000
  H   H246      1.0  0.35527999999999993  0.25759  0.43406  1.0000
  H   H247      1.0  0.36178  0.28974  0.38478  1.0000
  H   H248      1.0  0.21504999999999994  0.50316  0.42745999999999995  1.0000
  H   H249      1.0  0.1263  0.4676100000000001  0.37614  1.0000
  H   H250      1.0  0.15255999999999997  0.47985999999999995  0.4495499999999999  1.0000
  H   H251      1.0  0.0418  0.97116  0.31134  1.0000
  H   H252      1.0  0.08200999999999994  0.06013999999999996  0.3522499999999999  1.0000
  H   H253      1.0  0.0968  0.009099999999999987  0.29012  1.0000
  H   H254      1.0  0.08928  0.91419  0.37407  1.0000
  H   H255      1.0  0.31049  0.91454  0.44636  1.0000
  H   H256      1.0  0.39064000000000004  0.00602999999999994  0.4581999999999999  1.0000
  H   H257      1.0  0.36601  0.9877300000000001  0.3836  1.0000
  H   H258      1.0  0.36157  0.07102999999999995  0.43202  1.0000
  H   H259      1.0  0.13029999999999994  0.8350099999999999  0.4172599999999999  1.0000
  H   H260      1.0  0.20604000000000003  0.8038  0.40933  1.0000
  H   H261      1.0  0.21368999999999996  0.86707  0.4775899999999999  1.0000
  H   H262      1.0  0.3096499999999999  0.16469999999999999  0.23951999999999996  1.0000
  H   H263      1.0  0.26105  0.9521900000000001  0.21601  1.0000
  H   H264      1.0  0.23360000000000003  0.73922  0.00701  1.0000
  H   H265      1.0  0.38471000000000005  0.7656500000000002  0.17597  1.0000
  H   H266      1.0  0.38786  0.9558799999999998  0.25132  1.0000
  H   H267      1.0  0.39439  0.8772000000000001  0.26182  1.0000
  H   H268      1.0  0.45198000000000005  0.90579  0.23840999999999998  1.0000
  H   H269      1.0  0.15638  0.83301  0.010189999999999998  1.0000
  H   H270      1.0  0.19841  0.9214600000000001  0.05734  1.0000
  H   H271      1.0  0.22336  0.87085  0.0006699999999999999  1.0000
  H   H272      1.0  0.27677  0.63534  0.022849999999999995  1.0000
  H   H273      1.0  0.36861  0.6649300000000001  0.05540999999999999  1.0000
  H   H274      1.0  0.3285199999999999  0.6445800000000002  0.09507999999999997  1.0000
  H   H275      1.0  0.46536000000000005  0.27449000000000007  0.19047  1.0000
  H   H276      1.0  0.25891  0.20469000000000004  0.05098  1.0000
  H   H277      1.0  0.51297  0.19667999999999997  0.24113999999999997  1.0000
  H   H278      1.0  0.45437  0.13421  0.24007  1.0000
  H   H279      1.0  0.45691999999999994  0.2248  0.27704999999999996  1.0000
  H   H280      1.0  0.19798000000000002  0.09422999999999998  0.10225999999999999  1.0000
  H   H281      1.0  0.17843  0.11775000000000001  0.0426  1.0000
  H   H282      1.0  0.21998000000000004  0.04438000000000001  0.04370999999999999  1.0000
  H   H283      1.0  0.32831  0.3138500000000001  0.0738  1.0000
  H   H284      1.0  0.4089499999999999  0.35012  0.1372  1.0000
  H   H285      1.0  0.40673000000000004  0.28425  0.07176  1.0000
  H   H286      1.0  0.79462  0.06443  0.28067  1.0000
  H   H287      1.0  0.80975  0.8519600000000003  0.25552  1.0000
  H   H288      1.0  0.93824  0.8078800000000002  0.44504  1.0000
  H   H289      1.0  0.026469999999999976  0.7460699999999999  0.31877999999999995  1.0000
  H   H290      1.0  0.02671000000000001  0.82685  0.26843  1.0000
  H   H291      1.0  0.95959  0.8790200000000002  0.2604699999999999  1.0000
  H   H292      1.0  0.93718  0.7868800000000001  0.22733  1.0000
  H   H293      1.0  0.8689  0.8956900000000001  0.45178999999999997  1.0000
  H   H294      1.0  0.8178099999999999  0.89294  0.38148  1.0000
  H   H295      1.0  0.8863999999999999  0.96421  0.43269  1.0000
  H   H296      1.0  0.0371  0.67972  0.37544  1.0000
  H   H297      1.0  0.9818100000000001  0.68839  0.4124  1.0000
  H   H298      1.0  0.06549999999999993  0.74194  0.4490499999999999  1.0000
  H   H299      1.0  0.9638700000000001  0.2521  0.32948999999999995  1.0000
  H   H300      1.0  0.97562  0.27462  0.49595999999999996  1.0000
  H   H301      1.0  0.8983400000000001  0.18286999999999995  0.4933899999999999  1.0000
  H   H302      1.0  0.96957  0.13759  0.4969  1.0000
  H   H303      1.0  0.88434  0.0942  0.44201999999999997  1.0000
  H   H304      1.0  0.99801  0.36936  0.41061  1.0000
  H   H305      1.0  0.07068  0.34908  0.45925  1.0000
  H   H306      1.0  0.0023499999999999684  0.38038  0.47981  1.0000
  H   H307      1.0  0.92614  0.06355  0.25965  1.0000
  H   H308      1.0  0.93851  0.14320999999999998  0.2526999999999999  1.0000
  H   H309      1.0  0.85503  0.10731000000000002  0.24039  1.0000
  H   H310      1.0  0.72053  0.02331999999999998  0.19607  1.0000
  H   H311      1.0  0.46857  0.68193  0.14598  1.0000
  H   H312      1.0  0.59396  0.5886  0.05365  1.0000
  H   H313      1.0  0.68247  0.6572000000000001  0.054  1.0000
  H   H314      1.0  0.72177  0.7346200000000002  0.12088  1.0000
  H   H315      1.0  0.66749  0.7419800000000001  0.05635  1.0000
  H   H316      1.0  0.50074  0.8039200000000001  0.21049999999999996  1.0000
  H   H317      1.0  0.48743000000000003  0.8440400000000001  0.16178  1.0000
  H   H318      1.0  0.5725  0.85703  0.21710999999999997  1.0000
  H   H319      1.0  0.51503  0.5136700000000001  0.06352999999999999  1.0000
  H   H320      1.0  0.43444  0.5430900000000001  0.039229999999999994  1.0000
  H   H321      1.0  0.47444  0.55155  0.11208999999999997  1.0000
  H   H322      1.0  0.56538  0.05598  0.01018  1.0000
  H   H323      1.0  0.46495  0.09917000000000001  0.12714  1.0000
  H   H324      1.0  0.66094  0.92491  0.05585999999999999  1.0000
  H   H325      1.0  0.6978  0.00628  0.06417  1.0000
  H   H326      1.0  0.62658  0.95248  0.9977299999999999  1.0000
  H   H327      1.0  0.48367000000000004  0.13783  0.00909  1.0000
  H   H328      1.0  0.47003  0.18005999999999997  0.07380999999999999  1.0000
  H   H329      1.0  0.4113499999999999  0.10404  0.0161  1.0000
  H   H330      1.0  0.5356499999999998  0.9697700000000002  0.18400999999999995  1.0000
  H   H331      1.0  0.47857  0.03216999999999999  0.18386999999999998  1.0000
  H   H332      1.0  0.57004  0.059699999999999975  0.22787999999999997  1.0000
  H   H333      1.0  0.2400599999999999  0.01388999999999996  0.7947099999999999  1.0000
  H   H334      1.0  0.44292000000000004  0.006950000000000046  0.78932  1.0000
  H   H335      1.0  0.67423  0.04813999999999996  0.9397299999999998  1.0000
  H   H336      1.0  0.5905299999999999  0.82751  0.84928  1.0000
  H   H337      1.0  0.4080799999999999  0.8513899999999999  0.7861499999999998  1.0000
  H   H338      1.0  0.43426  0.8189900000000002  0.84084  1.0000
  H   H339      1.0  0.46692000000000006  0.79059  0.78655  1.0000
  H   H340      1.0  0.5991899999999999  0.13160999999999992  0.9568599999999998  1.0000
  H   H341      1.0  0.5077599999999998  0.10503999999999987  0.9335599999999997  1.0000
  H   H342      1.0  0.53995  0.11152000000000001  0.88428  1.0000
  H   H343      1.0  0.7527999999999999  0.96448  0.9255099999999999  1.0000
  H   H344      1.0  0.7171099999999999  0.8754999999999997  0.8747499999999998  1.0000
  H   H345      1.0  0.7301899999999998  0.9025699999999998  0.9484499999999998  1.0000
  H   H346      1.0  0.22149999999999995  0.7915999999999999  0.8111299999999999  1.0000
  H   H347      1.0  0.31045000000000006  0.8316800000000002  0.85203  1.0000
  H   H348      1.0  0.25956999999999997  0.8464100000000001  0.78985  1.0000
  H   H349      1.0  0.1647099999999999  0.8391300000000002  0.87385  1.0000
  H   H350      1.0  0.16537999999999994  0.06050000000000003  0.94654  1.0000
  H   H351      1.0  0.25711  0.14056  0.95863  1.0000
  H   H352      1.0  0.23787999999999995  0.11638999999999985  0.8839199999999998  1.0000
  H   H353      1.0  0.3214299999999999  0.11151999999999988  0.9316199999999998  1.0000
  H   H354      1.0  0.08541000000000008  0.88005  0.9168  1.0000
  H   H355      1.0  0.05438999999999997  0.95593  0.909  1.0000
  H   H356      1.0  0.11737000000000003  0.9633899999999997  0.9772799999999999  1.0000
  H   H357      1.0  0.41446  0.060230000000000075  0.73927  1.0000
  H   H358      1.0  0.20225999999999986  0.010359999999999881  0.7155999999999998  1.0000
  H   H359      1.0  0.989  0.9834500000000002  0.50713  1.0000
  H   H360      1.0  0.015479999999999966  0.13437999999999994  0.6762299999999999  1.0000
  H   H361      1.0  0.20486000000000001  0.13611  0.7521299999999999  1.0000
  H   H362      1.0  0.1257  0.14607000000000006  0.7616  1.0000
  H   H363      1.0  0.15794  0.20164999999999997  0.73836  1.0000
  H   H364      1.0  0.08298999999999994  0.90635  0.5102899999999999  1.0000
  H   H365      1.0  0.1713799999999999  0.9486700000000001  0.5572899999999998  1.0000
  H   H366      1.0  0.12044000000000002  0.9734200000000001  0.50058  1.0000
  H   H367      1.0  0.8851900000000001  0.026490000000000007  0.52325  1.0000
  H   H368      1.0  0.9149  0.11829999999999997  0.55518  1.0000
  H   H369      1.0  0.89467  0.07904  0.59541  1.0000
  H   H370      1.0  0.52503  0.21508000000000002  0.69072  1.0000
  H   H371      1.0  0.4537  0.00901999999999998  0.55048  1.0000
  H   H372      1.0  0.44721999999999995  0.2632  0.74168  1.0000
  H   H373      1.0  0.38535999999999987  0.20440999999999998  0.7410999999999999  1.0000
  H   H374      1.0  0.4759999999999999  0.2067999999999999  0.7771899999999998  1.0000
  H   H375      1.0  0.34317  0.9486300000000001  0.60181  1.0000
  H   H376      1.0  0.3665799999999999  0.9289900000000002  0.5420799999999999  1.0000
  H   H377      1.0  0.29344  0.97084  0.54336  1.0000
  H   H378      1.0  0.56347  0.07779000000000003  0.57361  1.0000
  H   H379      1.0  0.5999699999999999  0.15843999999999994  0.6370099999999999  1.0000
  H   H380      1.0  0.53433  0.15639999999999998  0.5715699999999999  1.0000
  C   C1        1.0  0.85443  0.3697700000000001  0.05737999999999999  1.0000
  C   C2        1.0  0.81885  0.39433000000000007  0.14159  1.0000
  C   C3        1.0  0.79901  0.4614  0.15914  1.0000
  C   C4        1.0  0.78076  0.4834300000000001  0.20654  1.0000
  C   C5        1.0  0.78422  0.4436  0.2384  1.0000
  C   C6        1.0  0.8033400000000002  0.37721999999999994  0.21927  1.0000
  C   C7        1.0  0.8199000000000001  0.35128  0.17121  1.0000
  C   C8        1.0  0.83391  0.27806  0.15135999999999997  1.0000
  C   C9        1.0  0.77734  0.22374000000000002  0.10701999999999999  1.0000
  C   C10       1.0  0.78797  0.15417  0.08907999999999999  1.0000
  C   C11       1.0  0.8533599999999999  0.13664000000000004  0.11466999999999998  1.0000
  C   C12       1.0  0.9076  0.19075  0.16025  1.0000
  C   C13       1.0  0.89873  0.26121  0.17991999999999994  1.0000
  C   C14       1.0  0.95722  0.31579  0.23334  1.0000
  C   C15       1.0  0.70489  0.24047000000000002  0.08353  1.0000
  C   C16       1.0  0.8642099999999999  0.06144  0.09397  1.0000
  C   C17       1.0  0.80091  0.51039  0.13199  1.0000
  C   C18       1.0  0.84664  0.57605  0.1676  1.0000
  C   C19       1.0  0.84946  0.6223499999999998  0.14253  1.0000
  C   C20       1.0  0.81002  0.60571  0.08325  1.0000
  C   C21       1.0  0.7628699999999999  0.5422900000000002  0.04959999999999999  1.0000
  C   C22       1.0  0.75724  0.49457  0.07293  1.0000
  C   C23       1.0  0.70373  0.42821  0.033569999999999996  1.0000
  C   C24       1.0  0.82049  0.65378  0.05671  1.0000
  C   C25       1.0  0.89328  0.59743  0.23158  1.0000
  C   C26       1.0  0.76675  0.46685000000000004  0.2896  1.0000
  C   C27       1.0  0.75695  0.53678  0.3146399999999999  1.0000
  C   C28       1.0  0.73595  0.55891  0.36028  1.0000
  C   C29       1.0  0.7239  0.5082300000000001  0.37978  1.0000
  C   C30       1.0  0.73529  0.43861  0.3555099999999999  1.0000
  C   C31       1.0  0.75888  0.4174900000000001  0.31112999999999996  1.0000
  C   C32       1.0  0.7162999999999999  0.38488999999999995  0.37331999999999993  1.0000
  C   C33       1.0  0.64497  0.35883  0.35388  1.0000
  C   C34       1.0  0.6269  0.30716999999999994  0.36918999999999996  1.0000
  C   C35       1.0  0.6777900000000001  0.28064  0.40351  1.0000
  C   C36       1.0  0.74837  0.30502  0.42033  1.0000
  C   C37       1.0  0.7683  0.35589999999999994  0.4049899999999999  1.0000
  C   C38       1.0  0.84402  0.37692  0.41949  1.0000
  C   C39       1.0  0.5888300000000001  0.38363  0.31446  1.0000
  C   C40       1.0  0.65686  0.22736000000000003  0.42168  1.0000
  C   C41       1.0  0.77753  0.68639  0.4305099999999999  1.0000
  C   C42       1.0  0.76229  0.75374  0.4539899999999999  1.0000
  C   C43       1.0  0.69412  0.7674300000000002  0.43419  1.0000
  C   C44       1.0  0.6402999999999999  0.7119200000000002  0.38954999999999995  1.0000
  C   C45       1.0  0.6532999999999999  0.64427  0.36496999999999996  1.0000
  C   C46       1.0  0.72269  0.6314400000000001  0.38565  1.0000
  C   C47       1.0  0.8521900000000001  0.6746400000000001  0.4539899999999999  1.0000
  C   C48       1.0  0.67695  0.83908  0.46057999999999993  1.0000
  C   C49       1.0  0.59385  0.58604  0.3168  1.0000
  C   C50       1.0  0.67392  0.56309  0.455  1.0000
  C   C51       1.0  0.69965  0.7203300000000001  0.54616  1.0000
  C   C52       1.0  0.75765  0.8437099999999998  0.6228699999999999  1.0000
  C   C53       1.0  0.70958  0.87765  0.6447  1.0000
  C   C54       1.0  0.73336  0.94454  0.69001  1.0000
  C   C55       1.0  0.80311  0.97914  0.71541  1.0000
  C   C56       1.0  0.84884  0.94416  0.69203  1.0000
  C   C57       1.0  0.8277399999999999  0.8773899999999998  0.6463099999999999  1.0000
  C   C58       1.0  0.8818200000000002  0.8437400000000002  0.62775  1.0000
  C   C59       1.0  0.9084599999999999  0.86791  0.59661  1.0000
  C   C60       1.0  0.9632399999999999  0.83907  0.58361  1.0000
  C   C61       1.0  0.9926600000000001  0.78765  0.60151  1.0000
  C   C62       1.0  0.96652  0.7658800000000001  0.63378  1.0000
  C   C63       1.0  0.91177  0.7932899999999999  0.6475299999999999  1.0000
  C   C64       1.0  0.8877400000000001  0.77172  0.68518  1.0000
  C   C65       1.0  0.88087  0.92588  0.57942  1.0000
  C   C66       1.0  0.05050000000000004  0.7555999999999999  0.58622  1.0000
  C   C67       1.0  0.63597  0.8440300000000001  0.6226699999999998  1.0000
  C   C68       1.0  0.62196  0.7881600000000001  0.63584  1.0000
  C   C69       1.0  0.68072  0.7626000000000001  0.67261  1.0000
  C   C70       1.0  0.5520299999999999  0.75897  0.6167299999999999  1.0000
  C   C71       1.0  0.4960699999999999  0.7857600000000001  0.5874799999999999  1.0000
  C   C72       1.0  0.51151  0.84225  0.5761499999999999  1.0000
  C   C73       1.0  0.58042  0.8715000000000002  0.5926  1.0000
  C   C74       1.0  0.59384  0.93257  0.57939  1.0000
  C   C75       1.0  0.4212199999999999  0.75597  0.5700099999999999  1.0000
  C   C76       1.0  0.8271300000000001  0.04835999999999989  0.7649599999999998  1.0000
  C   C77       1.0  0.89171  0.08969999999999999  0.78334  1.0000
  C   C78       1.0  0.9156  0.15520999999999988  0.8306299999999999  1.0000
  C   C79       1.0  0.87164  0.18225  0.85949  1.0000
  C   C80       1.0  0.80542  0.14265000000000003  0.8416699999999999  1.0000
  C   C81       1.0  0.78616  0.07597999999999988  0.7960299999999998  1.0000
  C   C82       1.0  0.75442  0.17027  0.86671  1.0000
  C   C83       1.0  0.76888  0.18632000000000007  0.92567  1.0000
  C   C84       1.0  0.71943  0.21367999999999995  0.9472599999999998  1.0000
  C   C85       1.0  0.6550299999999999  0.2236099999999999  0.9118299999999998  1.0000
  C   C86       1.0  0.6401599999999998  0.20324000000000003  0.8527999999999999  1.0000
  C   C87       1.0  0.6885799999999999  0.1779499999999999  0.8294799999999998  1.0000
  C   C88       1.0  0.66878  0.16409999999999997  0.76628  1.0000
  C   C89       1.0  0.83523  0.1738800000000001  0.96642  1.0000
  C   C90       1.0  0.60371  0.25713  0.93582  1.0000
  C   C91       1.0  0.98786  0.1908399999999999  0.8497599999999997  1.0000
  C   C92       1.0  0.0033200000000000113  0.22139999999999993  0.81683  1.0000
  C   C93       1.0  0.07313999999999998  0.24988000000000002  0.83462  1.0000
  C   C94       1.0  0.12797  0.24678  0.88277  1.0000
  C   C95       1.0  0.11149999999999988  0.2138200000000001  0.9134399999999999  1.0000
  C   C96       1.0  0.04248999999999986  0.18585999999999991  0.8978799999999998  1.0000
  C   C97       1.0  0.9475500000000001  0.22206000000000004  0.7619699999999999  1.0000
  C   C98       1.0  0.0267699999999999  0.14727999999999986  0.9296399999999998  1.0000
  C   C99       1.0  0.20253999999999991  0.2782  0.90116  1.0000
  C   C100      1.0  0.8936700000000001  0.29966999999999994  0.9447799999999998  1.0000
  C   C101      1.0  0.62043  0.60491  0.55757  1.0000
  C   C102      1.0  0.64462  0.56888  0.64149  1.0000
  C   C103      1.0  0.7116099999999999  0.54889  0.6590999999999999  1.0000
  C   C104      1.0  0.73334  0.5305300000000001  0.7064399999999998  1.0000
  C   C105      1.0  0.6932799999999999  0.53417  0.7381699999999999  1.0000
  C   C106      1.0  0.62691  0.5531500000000001  0.71885  1.0000
  C   C107      1.0  0.6011999999999998  0.5697  0.6707799999999999  1.0000
  C   C108      1.0  0.52798  0.5837  0.65085  1.0000
  C   C109      1.0  0.47369  0.52707  0.60655  1.0000
  C   C110      1.0  0.40414999999999995  0.5376500000000001  0.5886999999999999  1.0000
  C   C111      1.0  0.38660000000000005  0.60303  0.6144  1.0000
  C   C112      1.0  0.44068000000000007  0.65734  0.65991  1.0000
  C   C113      1.0  0.51112  0.6485299999999999  0.6794799999999999  1.0000
  C   C114      1.0  0.56564  0.7071500000000001  0.7328399999999999  1.0000
  C   C115      1.0  0.49051  0.45464  0.58302  1.0000
  C   C116      1.0  0.31139  0.61375  0.5939  1.0000
  C   C117      1.0  0.76063  0.55069  0.63195  1.0000
  C   C118      1.0  0.82627  0.59639  0.66761  1.0000
  C   C119      1.0  0.8726499999999999  0.59915  0.6426099999999999  1.0000
  C   C120      1.0  0.8561699999999999  0.5596599999999999  0.5833799999999999  1.0000
  C   C121      1.0  0.79275  0.51255  0.5496699999999999  1.0000
  C   C122      1.0  0.74491  0.5069800000000001  0.57289  1.0000
  C   C123      1.0  0.6785100000000002  0.45355000000000006  0.53332  1.0000
  C   C124      1.0  0.90459  0.56979  0.55703  1.0000
  C   C125      1.0  0.84767  0.64318  0.73158  1.0000
  C   C126      1.0  0.71672  0.5178200000000001  0.78987  1.0000
  C   C127      1.0  0.78733  0.51086  0.81633  1.0000
  C   C128      1.0  0.80914  0.4873  0.86043  1.0000
  C   C129      1.0  0.7582400000000001  0.4723400000000001  0.87865  1.0000
  C   C130      1.0  0.6886500000000001  0.48443  0.85506  1.0000
  C   C131      1.0  0.6672399999999999  0.50789  0.8106399999999999  1.0000
  C   C132      1.0  0.6352399999999999  0.46605  0.87336  1.0000
  C   C133      1.0  0.60864  0.39477999999999996  0.8537899999999998  1.0000
  C   C134      1.0  0.5569499999999998  0.3771699999999999  0.8692099999999998  1.0000
  C   C135      1.0  0.53084  0.42843000000000003  0.90368  1.0000
  C   C136      1.0  0.55548  0.49892000000000003  0.92035  1.0000
  C   C137      1.0  0.60647  0.5184200000000001  0.90495  1.0000
  C   C138      1.0  0.62762  0.59398  0.91899  1.0000
  C   C139      1.0  0.6326199999999998  0.33836999999999995  0.8138499999999997  1.0000
  C   C140      1.0  0.47774000000000005  0.4079399999999999  0.9221899999999998  1.0000
  C   C141      1.0  0.9366500000000001  0.52849  0.9305  1.0000
  C   C142      1.0  0.003710000000000007  0.51278  0.95401  1.0000
  C   C143      1.0  0.017040000000000017  0.44445000000000007  0.9339  1.0000
  C   C144      1.0  0.9615  0.39097  0.88881  1.0000
  C   C145      1.0  0.89411  0.40441999999999995  0.8641799999999997  1.0000
  C   C146      1.0  0.8816100000000001  0.47391  0.88539  1.0000
  C   C147      1.0  0.92504  0.60321  0.95425  1.0000
  C   C148      1.0  0.08839000000000002  0.42678000000000005  0.96033  1.0000
  C   C149      1.0  0.83588  0.3453799999999999  0.8153399999999997  1.0000
  C   C150      1.0  0.81196  0.4218400000000001  0.95383  1.0000
  C   C151      1.0  0.9698600000000002  0.45  0.04643999999999999  1.0000
  C   C152      1.0  0.09352  0.50755  0.1226  1.0000
  C   C153      1.0  0.12735999999999997  0.45947  0.14446999999999996  1.0000
  C   C154      1.0  0.19421000000000002  0.48322  0.18977  1.0000
  C   C155      1.0  0.22897000000000003  0.55294  0.21511999999999998  1.0000
  C   C156      1.0  0.19400999999999993  0.5987199999999999  0.19177999999999995  1.0000
  C   C157      1.0  0.12726  0.57769  0.14608  1.0000
  C   C158      1.0  0.09375  0.6320100000000001  0.12773  1.0000
  C   C159      1.0  0.11777  0.65858  0.09648  1.0000
  C   C160      1.0  0.08906999999999998  0.71349  0.08359999999999998  1.0000
  C   C161      1.0  0.03783999999999998  0.7430600000000002  0.10168999999999999  1.0000
  C   C162      1.0  0.016150000000000005  0.71693  0.134  1.0000
  C   C163      1.0  0.04348  0.6620800000000001  0.14767  1.0000
  C   C164      1.0  0.021949999999999973  0.6379200000000002  0.18527999999999994  1.0000
  C   C165      1.0  0.1754  0.63059  0.07898  1.0000
  C   C166      1.0  0.005799999999999999  0.80098  0.08648  1.0000
  C   C167      1.0  0.09367  0.38583  0.12245  1.0000
  C   C168      1.0  0.03781999999999999  0.37175000000000014  0.1356  1.0000
  C   C169      1.0  0.012119999999999988  0.43052  0.17227999999999996  1.0000
  C   C170      1.0  0.008739999999999982  0.30175  0.11653999999999998  1.0000
  C   C171      1.0  0.03563999999999999  0.24578000000000005  0.08738  1.0000
  C   C172      1.0  0.09201  0.26128000000000007  0.07598  1.0000
  C   C173      1.0  0.12108999999999999  0.33025  0.09234  1.0000
  C   C174      1.0  0.18196  0.34366  0.07894  1.0000
  C   C175      1.0  0.0061200000000000004  0.17087  0.07008  1.0000
  C   C176      1.0  0.29821  0.5769  0.26464  1.0000
  C   C177      1.0  0.3397600000000001  0.64141  0.28307  1.0000
  C   C178      1.0  0.40517000000000003  0.66529  0.33046  1.0000
  C   C179      1.0  0.43207  0.62128  0.35930999999999996  1.0000
  C   C180      1.0  0.39227  0.55515  0.34141  1.0000
  C   C181      1.0  0.32568  0.5359700000000001  0.29578  1.0000
  C   C182      1.0  0.41968  0.50407  0.36639  1.0000
  C   C183      1.0  0.43549  0.5185799999999999  0.42529999999999996  1.0000
  C   C184      1.0  0.4629699999999999  0.4692199999999999  0.44695999999999997  1.0000
  C   C185      1.0  0.47324  0.40492  0.4116199999999999  1.0000
  C   C186      1.0  0.4530100000000001  0.38994  0.35257999999999995  1.0000
  C   C187      1.0  0.42755999999999994  0.4383  0.32919999999999994  1.0000
  C   C188      1.0  0.4138  0.4187  0.26604  1.0000
  C   C189      1.0  0.42257  0.58488  0.4657899999999999  1.0000
  C   C190      1.0  0.50711  0.3538000000000001  0.43572  1.0000
  C   C191      1.0  0.44076  0.73757  0.34957  1.0000
  C   C192      1.0  0.47102  0.75306  0.31647  1.0000
  C   C193      1.0  0.49946  0.82292  0.33424  1.0000
  C   C194      1.0  0.4966799999999999  0.87774  0.38255999999999996  1.0000
  C   C195      1.0  0.46386999999999995  0.8612700000000001  0.41332  1.0000
  C   C196      1.0  0.43588  0.79224  0.39774999999999994  1.0000
  C   C197      1.0  0.47136  0.69729  0.26145  1.0000
  C   C198      1.0  0.39727000000000007  0.7766  0.42951999999999996  1.0000
  C   C199      1.0  0.52848  0.95228  0.4011399999999999  1.0000
  C   C200      1.0  0.54957  0.6425299999999999  0.4442299999999999  1.0000
  C   C201      1.0  0.31203  0.7976600000000001  0.9426699999999998  1.0000
  C   C202      1.0  0.2528799999999999  0.67758  0.8585599999999999  1.0000
  C   C203      1.0  0.30226  0.6400200000000001  0.84094  1.0000
  C   C204      1.0  0.2766999999999999  0.5743100000000001  0.7935899999999998  1.0000
  C   C205      1.0  0.2049699999999999  0.54616  0.7618299999999998  1.0000
  C   C206      1.0  0.15786000000000008  0.5845400000000001  0.78101  1.0000
  C   C207      1.0  0.18018999999999996  0.64914  0.82912  1.0000
  C   C208      1.0  0.12681999999999988  0.6829899999999999  0.8489599999999998  1.0000
  C   C209      1.0  0.11690999999999994  0.67072  0.8932999999999998  1.0000
  C   C210      1.0  0.06524  0.69917  0.91117  1.0000
  C   C211      1.0  0.02190999999999994  0.73875  0.88544  1.0000
  C   C212      1.0  0.030369999999999966  0.7474300000000001  0.83986  1.0000
  C   C213      1.0  0.08124999999999985  0.7190699999999999  0.8202799999999999  1.0000
  C   C214      1.0  0.08235000000000009  0.72429  0.76692  1.0000
  C   C215      1.0  0.15735999999999997  0.6218900000000002  0.9168599999999999  1.0000
  C   C216      1.0  0.9671400000000001  0.7698700000000002  0.90592  1.0000
  C   C217      1.0  0.37836  0.66897  0.86806  1.0000
  C   C218      1.0  0.40839000000000003  0.6787099999999998  0.8323399999999999  1.0000
  C   C219      1.0  0.47972999999999993  0.70662  0.8573899999999999  1.0000
  C   C220      1.0  0.52233  0.7269600000000002  0.91673  1.0000
  C   C221      1.0  0.49254999999999993  0.71396  0.9505599999999998  1.0000
  C   C222      1.0  0.4215899999999999  0.6847499999999999  0.9272199999999998  1.0000
  C   C223      1.0  0.39476999999999995  0.6707399999999999  0.9667199999999998  1.0000
  C   C224      1.0  0.59703  0.7635700000000001  0.94307  1.0000
  C   C225      1.0  0.36607  0.66111  0.7682499999999999  1.0000
  C   C226      1.0  0.17683  0.47796000000000005  0.7102599999999999  1.0000
  C   C227      1.0  0.22101999999999997  0.4445200000000001  0.68384  1.0000
  C   C228      1.0  0.19878  0.37678  0.63979  1.0000
  C   C229      1.0  0.12969  0.34360000000000007  0.62161  1.0000
  C   C230      1.0  0.08373  0.37925  0.64525  1.0000
  C   C231      1.0  0.10662999999999993  0.44717000000000007  0.6896099999999998  1.0000
  C   C232      1.0  0.012089999999999925  0.34243000000000007  0.6269699999999999  1.0000
  C   C233      1.0  0.005009999999999958  0.29083  0.6466199999999999  1.0000
  C   C234      1.0  0.9378700000000001  0.25762  0.631  1.0000
  C   C235      1.0  0.8773399999999998  0.27407999999999993  0.5961999999999998  1.0000
  C   C236      1.0  0.88537  0.32769  0.57933  1.0000
  C   C237      1.0  0.95176  0.36279  0.59497  1.0000
  C   C238      1.0  0.95884  0.424  0.58056  1.0000
  C   C239      1.0  0.06895  0.27449000000000007  0.68663  1.0000
  C   C240      1.0  0.80575  0.23492  0.57752  1.0000
  C   C241      1.0  0.2562  0.34794  0.56971  1.0000
  C   C242      1.0  0.2997699999999999  0.30877000000000004  0.5461699999999999  1.0000
  C   C243      1.0  0.33323  0.26052  0.56617  1.0000
  C   C244      1.0  0.32271999999999995  0.25203000000000003  0.6111899999999999  1.0000
  C   C245      1.0  0.27998999999999996  0.29007999999999995  0.6358699999999999  1.0000
  C   C246      1.0  0.24628  0.33844  0.61479  1.0000
  C   C247      1.0  0.22080999999999998  0.39891000000000004  0.54601  1.0000
  C   C248      1.0  0.37838  0.2166  0.53989  1.0000
  C   C249      1.0  0.27064  0.27982  0.68469  1.0000
  C   C250      1.0  0.10772  0.21786  0.54637  1.0000
  C   C251      1.0  0.17286999999999997  0.15339999999999998  0.4537399999999999  1.0000
  C   C252      1.0  0.22085  0.13482  0.37784  1.0000
  C   C253      1.0  0.23291000000000003  0.06488000000000002  0.3559  1.0000
  C   C254      1.0  0.25446  0.043350000000000034  0.31059  1.0000
  C   C255      1.0  0.26372999999999996  0.08768999999999999  0.28518999999999994  1.0000
  C   C256      1.0  0.25217999999999996  0.15681999999999996  0.30866999999999994  1.0000
  C   C257      1.0  0.23118999999999995  0.18150999999999998  0.3544199999999999  1.0000
  C   C258      1.0  0.21608  0.25421  0.37277  1.0000
  C   C259      1.0  0.27136  0.3120200000000001  0.40384  1.0000
  C   C260      1.0  0.25554  0.37982  0.41657  1.0000
  C   C261      1.0  0.18620999999999993  0.39124  0.3984599999999999  1.0000
  C   C262      1.0  0.13219  0.33279  0.36625  1.0000
  C   C263      1.0  0.14585  0.26428000000000007  0.35276  1.0000
  C   C264      1.0  0.08677999999999997  0.20243000000000003  0.31522999999999995  1.0000
  C   C265      1.0  0.34646999999999994  0.30149999999999993  0.4212499999999999  1.0000
  C   C266      1.0  0.16937999999999995  0.46438000000000007  0.41358  1.0000
  C   C267      1.0  0.22133  0.013189999999999969  0.37784999999999996  1.0000
  C   C268      1.0  0.15234999999999996  0.9857499999999999  0.3645299999999999  1.0000
  C   C269      1.0  0.09003  0.007719999999999996  0.32771  1.0000
  C   C270      1.0  0.14230999999999994  0.9347200000000001  0.38348  1.0000
  C   C271      1.0  0.19842000000000004  0.90807  0.41273  1.0000
  C   C272      1.0  0.26621  0.9351100000000001  0.42422999999999994  1.0000
  C   C273      1.0  0.27891  0.98778  0.40794  1.0000
  C   C274      1.0  0.35310000000000014  0.014729999999999974  0.42119  1.0000
  C   C275      1.0  0.18627  0.85054  0.43012999999999996  1.0000
  C   C276      1.0  0.28332  0.062229999999999994  0.23557999999999998  1.0000
  C   C277      1.0  0.30609  0.10844  0.2171  1.0000
  C   C278      1.0  0.32416  0.08508000000000002  0.16971  1.0000
  C   C279      1.0  0.32229  0.012210000000000004  0.14078  1.0000
  C   C280      1.0  0.30064  0.96381  0.15866  1.0000
  C   C281      1.0  0.27992  0.9902000000000001  0.20445999999999998  1.0000
  C   C282      1.0  0.30319  0.8877400000000001  0.13352999999999998  1.0000
  C   C283      1.0  0.26032  0.8433  0.07452  1.0000
  C   C284      1.0  0.26617  0.77226  0.05275999999999999  1.0000
  C   C285      1.0  0.31162  0.7432000000000001  0.08806999999999997  1.0000
  C   C286      1.0  0.35031  0.78728  0.14712  1.0000
  C   C287      1.0  0.34823  0.8590400000000001  0.1706  1.0000
  C   C288      1.0  0.39752000000000004  0.9022800000000001  0.23386999999999994  1.0000
  C   C289      1.0  0.20694  0.86897  0.03394  1.0000
  C   C290      1.0  0.32130999999999993  0.66794  0.06391999999999999  1.0000
  C   C291      1.0  0.34081999999999996  0.13824999999999998  0.15060999999999997  1.0000
  C   C292      1.0  0.40457  0.18625  0.18334999999999996  1.0000
  C   C293      1.0  0.41552999999999995  0.2383  0.16563  1.0000
  C   C294      1.0  0.3642700000000001  0.24535000000000004  0.11769  1.0000
  C   C295      1.0  0.3004200000000001  0.19855000000000003  0.08715  1.0000
  C   C296      1.0  0.28775  0.14509000000000002  0.10264  1.0000
  C   C297      1.0  0.4601700000000001  0.18484999999999996  0.23793999999999996  1.0000
  C   C298      1.0  0.21724000000000002  0.0979  0.07105999999999998  1.0000
  C   C299      1.0  0.37756000000000006  0.30146  0.09927  1.0000
  C   C300      1.0  0.35421  0.9495200000000001  0.05525  1.0000
  C   C301      1.0  0.046599999999999954  0.06201999999999998  0.4425299999999999  1.0000
  C   C302      1.0  0.92691  0.002429999999999966  0.3581599999999999  1.0000
  C   C303      1.0  0.88956  0.05186000000000001  0.34043  1.0000
  C   C304      1.0  0.82415  0.02624999999999998  0.29275  1.0000
  C   C305      1.0  0.7961800000000001  0.9544300000000001  0.26083  1.0000
  C   C306      1.0  0.83436  0.90722  0.28004  1.0000
  C   C307      1.0  0.89857  0.92967  0.32853999999999994  1.0000
  C   C308      1.0  0.9323400000000001  0.87645  0.34862  1.0000
  C   C309      1.0  0.92009  0.86687  0.3930899999999999  1.0000
  C   C310      1.0  0.9487  0.81545  0.41127  1.0000
  C   C311      1.0  0.9884700000000001  0.77212  0.38578  1.0000
  C   C312      1.0  0.99718  0.7803200000000001  0.3401199999999999  1.0000
  C   C313      1.0  0.9686099999999999  0.83087  0.32018  1.0000
  C   C314      1.0  0.97387  0.8316100000000001  0.26670999999999995  1.0000
  C   C315      1.0  0.87116  0.9073300000000002  0.41651  1.0000
  C   C316      1.0  0.01980999999999997  0.7176400000000001  0.40658  1.0000
  C   C317      1.0  0.9185400000000001  0.12801  0.36768  1.0000
  C   C318      1.0  0.9286200000000001  0.15806  0.33207  1.0000
  C   C319      1.0  0.95662  0.22940999999999995  0.35717999999999994  1.0000
  C   C320      1.0  0.9767099999999999  0.27209000000000005  0.41648  1.0000
  C   C321      1.0  0.96341  0.24231000000000005  0.45019  1.0000
  C   C322      1.0  0.93423  0.17129  0.42682  1.0000
  C   C323      1.0  0.9204  0.14455999999999997  0.46643  1.0000
  C   C324      1.0  0.013530000000000004  0.34675  0.44287  1.0000
  C   C325      1.0  0.9113800000000001  0.11563999999999999  0.26805  1.0000
  C   C326      1.0  0.72814  0.92633  0.20915999999999998  1.0000
  C   C327      1.0  0.6947  0.9705900000000002  0.18280999999999994  1.0000
  C   C328      1.0  0.62661  0.9487000000000001  0.13937  1.0000
  C   C329      1.0  0.59324  0.8796800000000002  0.12136999999999999  1.0000
  C   C330      1.0  0.62913  0.8334000000000003  0.14452999999999996  1.0000
  C   C331      1.0  0.69722  0.8561800000000003  0.18856  1.0000
  C   C332      1.0  0.59244  0.76166  0.1262  1.0000
  C   C333      1.0  0.54076  0.75444  0.14572  1.0000
  C   C334      1.0  0.50761  0.68721  0.13001999999999997  1.0000
  C   C335      1.0  0.52427  0.62671  0.09533  1.0000
  C   C336      1.0  0.57793  0.6348700000000002  0.07858  1.0000
  C   C337      1.0  0.61295  0.70135  0.09425999999999998  1.0000
  C   C338      1.0  0.67422  0.70847  0.07996  1.0000
  C   C339      1.0  0.52449  0.81831  0.18591  1.0000
  C   C340      1.0  0.48534  0.55502  0.07677  1.0000
  C   C341      1.0  0.59762  0.0060399999999999985  0.0693  1.0000
  C   C342      1.0  0.55882  0.0499  0.04592  1.0000
  C   C343      1.0  0.51091  0.08377999999999998  0.06619  1.0000
  C   C344      1.0  0.50254  0.07354  0.11132999999999997  1.0000
  C   C345      1.0  0.5404  0.030660000000000017  0.13599  1.0000
  C   C346      1.0  0.58829  0.99642  0.11459  1.0000
  C   C347      1.0  0.64815  0.9700500000000001  0.04532  1.0000
  C   C348      1.0  0.46701  0.12882  0.03977  1.0000
  C   C349      1.0  0.53037  0.022300000000000004  0.18529  1.0000
  C   C350      1.0  0.4673800000000001  0.8588700000000001  0.04682  1.0000
  C   C351      1.0  0.40362  0.92353  0.9536899999999999  1.0000
  C   C352      1.0  0.38499000000000005  0.9706100000000001  0.87727  1.0000
  C   C353      1.0  0.31512  0.9827999999999999  0.8555099999999998  1.0000
  C   C354      1.0  0.29357  0.004470000000000028  0.81027  1.0000
  C   C355      1.0  0.33781  0.013630000000000008  0.78477  1.0000
  C   C356      1.0  0.40686999999999995  0.001919999999999924  0.8080499999999998  1.0000
  C   C357      1.0  0.43157999999999996  0.98082  0.8537499999999999  1.0000
  C   C358      1.0  0.5042199999999999  0.9656399999999998  0.8720699999999999  1.0000
  C   C359      1.0  0.5620099999999999  0.02095999999999991  0.9031499999999998  1.0000
  C   C360      1.0  0.62974  0.005129999999999846  0.9157199999999998  1.0000
  C   C361      1.0  0.6411499999999998  0.93576  0.8974299999999997  1.0000
  C   C362      1.0  0.58274  0.88172  0.8652799999999999  1.0000
  C   C363      1.0  0.51427  0.8953700000000002  0.85195  1.0000
  C   C364      1.0  0.45252  0.8361900000000001  0.81438  1.0000
  C   C365      1.0  0.5516099999999999  0.09614999999999985  0.9206999999999999  1.0000
  C   C366      1.0  0.71422  0.9189300000000001  0.9122  1.0000
  C   C367      1.0  0.2635899999999999  0.97125  0.8775899999999999  1.0000
  C   C368      1.0  0.23618999999999993  0.9022100000000001  0.86426  1.0000
  C   C369      1.0  0.25810999999999995  0.8398  0.8274699999999999  1.0000
  C   C370      1.0  0.18523000000000006  0.89219  0.88327  1.0000
  C   C371      1.0  0.15865999999999997  0.9483300000000001  0.91261  1.0000
  C   C372      1.0  0.18578999999999993  0.01616000000000006  0.92425  1.0000
  C   C373      1.0  0.23834  0.02886999999999996  0.90785  1.0000
  C   C374      1.0  0.2652899999999999  0.10315999999999989  0.9212599999999997  1.0000
  C   C375      1.0  0.10102000000000007  0.9360800000000002  0.92982  1.0000
  C   C376      1.0  0.31216999999999995  0.033339999999999946  0.7352299999999999  1.0000
  C   C377      1.0  0.35821  0.05653999999999998  0.71685  1.0000
  C   C378      1.0  0.33468  0.07478999999999998  0.66955  1.0000
  C   C379      1.0  0.2618  0.07281999999999998  0.64073  1.0000
  C   C380      1.0  0.21358000000000002  0.05076999999999999  0.65858  1.0000
  C   C381      1.0  0.24011999999999997  0.029679999999999998  0.70416  1.0000
  C   C382      1.0  0.13751999999999998  0.05320000000000002  0.63356  1.0000
  C   C383      1.0  0.09310000000000002  0.01029999999999997  0.57456  1.0000
  C   C384      1.0  0.022070000000000006  0.016090000000000014  0.55286  1.0000
  C   C385      1.0  0.99309  0.06154  0.58825  1.0000
  C   C386      1.0  0.03712999999999993  0.10012999999999996  0.6473199999999999  1.0000
  C   C387      1.0  0.10885999999999998  0.09810000000000005  0.67075  1.0000
  C   C388      1.0  0.15210999999999994  0.14735  0.7340399999999999  1.0000
  C   C389      1.0  0.1188  0.9570100000000001  0.53393  1.0000
  C   C390      1.0  0.9178899999999999  0.07126999999999996  0.5640999999999999  1.0000
  C   C391      1.0  0.38781  0.09140000000000002  0.6504  1.0000
  C   C392      1.0  0.43633  0.15480999999999995  0.68341  1.0000
  C   C393      1.0  0.48843  0.16549  0.66567  1.0000
  C   C394      1.0  0.49507  0.11424000000000001  0.61748  1.0000
  C   C395      1.0  0.44784999999999997  0.050629999999999946  0.5867699999999999  1.0000
  C   C396      1.0  0.39431  0.038270000000000005  0.60226  1.0000
  C   C397      1.0  0.43560999999999994  0.21026999999999998  0.7383799999999999  1.0000
  C   C398      1.0  0.34687999999999997  0.9678900000000001  0.5706299999999999  1.0000
  C   C399      1.0  0.5512799999999999  0.12719999999999995  0.5990799999999998  1.0000
  C   C400      1.0  0.19834000000000002  0.10486  0.55542  1.0000
  N   N1        1.0  0.83852  0.37284000000000006  0.09539999999999998  1.0000
  N   N2        1.0  0.6979  0.53051  0.4221999999999999  1.0000
  N   N3        1.0  0.7342899999999999  0.77648  0.57924  1.0000
  N   N4        1.0  0.89171  0.24775000000000005  0.90539  1.0000
  N   N5        1.0  0.62359  0.58884  0.5955199999999999  1.0000
  N   N6        1.0  0.7805  0.4446599999999999  0.9197999999999997  1.0000
  N   N7        1.0  0.026260000000000002  0.48426000000000013  0.07913  1.0000
  N   N8        1.0  0.4976  0.64099  0.40514  1.0000
  N   N9        1.0  0.27768000000000004  0.74348  0.90463  1.0000
  N   N10       1.0  0.11066999999999996  0.27483  0.5804099999999999  1.0000
  N   N11       1.0  0.19688999999999995  0.15495999999999993  0.4212399999999999  1.0000
  N   N12       1.0  0.34183  0.9864400000000006  0.09485  1.0000
  N   N13       1.0  0.9926700000000003  0.027230000000000042  0.40443  1.0000
  N   N14       1.0  0.52418  0.8611200000000002  0.08071  1.0000
  N   N15       1.0  0.40527  0.9469200000000001  0.92083  1.0000
  N   N16       1.0  0.23571000000000003  0.09247000000000001  0.59487  1.0000
