data_image0
_chemical_formula_structural       Mn24H192C348N192
_chemical_formula_sum              "Mn24 H192 C348 N192"
_cell_length_a       30.95018
_cell_length_b       30.92801
_cell_length_c       31.003169999999997
_cell_angle_alpha    108.30084
_cell_angle_beta     110.11278
_cell_angle_gamma    110.54783

_symmetry_space_group_name_H-M    'P 1'
_symmetry_Int_Tables_number       1

loop_
  _symmetry_equiv_pos_as_xyz
  'x,y,z'

loop_
  _atom_site_type_symbol
  _atom_site_label
  _atom_site_symmetry_multiplicity
  _atom_site_fract_x
  _atom_site_fract_y
  _atom_site_fract_z
  _atom_site_occupancy
  Mn  Mn1       1.0  0.49997999999999987  0.49996999999999997  0.9999899999999999  1.0000
  Mn  Mn2       1.0  0.0  1e-05  2e-05  1.0000
  Mn  Mn3       1.0  9.999999999924686e-06  0.4999899999999998  0.4999899999999999  1.0000
  Mn  Mn4       1.0  0.50001  4.000000000001272e-05  0.50004  1.0000
  Mn  Mn5       1.0  1.9999999999992856e-05  0.0  0.50002  1.0000
  Mn  Mn6       1.0  0.50001  0.99999  1e-05  1.0000
  Mn  Mn7       1.0  0.49998999999999977  0.50002  0.4999899999999999  1.0000
  Mn  Mn8       1.0  1.0000000000010777e-05  0.50003  3e-05  1.0000
  Mn  Mn9       1.0  0.5030099999999998  0.6132699999999998  0.9999  1.0000
  Mn  Mn10      1.0  0.9983699999999998  0.99919  0.10924  1.0000
  Mn  Mn11      1.0  0.10750999999999998  0.49802  0.49642  1.0000
  Mn  Mn12      1.0  0.3948299999999999  0.89156  0.39175  1.0000
  Mn  Mn13      1.0  0.9939099999999997  0.00013999999999999852  0.39049  1.0000
  Mn  Mn14      1.0  0.50118  0.88734  0.99849  1.0000
  Mn  Mn15      1.0  0.38920999999999983  0.4997599999999999  0.4981399999999999  1.0000
  Mn  Mn16      1.0  0.10616999999999997  0.60639  0.11088999999999997  1.0000
  Mn  Mn17      1.0  0.4969699999999999  0.38668999999999987  8.999999999999998e-05  1.0000
  Mn  Mn18      1.0  0.0016299999999999804  0.0008099999999999739  0.8908  1.0000
  Mn  Mn19      1.0  0.8925299999999997  0.50198  0.5035999999999999  1.0000
  Mn  Mn20      1.0  0.6051599999999998  0.10845000000000002  0.60827  1.0000
  Mn  Mn21      1.0  0.006109999999999984  0.9998699999999999  0.6095499999999999  1.0000
  Mn  Mn22      1.0  0.4988299999999999  0.11263  0.00152  1.0000
  Mn  Mn23      1.0  0.6107599999999997  0.50022  0.50184  1.0000
  Mn  Mn24      1.0  0.8938399999999997  0.3936399999999999  0.8891299999999998  1.0000
  H   H1        1.0  0.60521  0.77908  0.29995  1.0000
  H   H2        1.0  0.5726199999999999  0.7299299999999996  0.20444999999999997  1.0000
  H   H3        1.0  0.58445  0.63822  0.30981  1.0000
  H   H4        1.0  0.5515699999999998  0.58923  0.21423999999999999  1.0000
  H   H5        1.0  0.8938599999999998  0.18991  0.16625  1.0000
  H   H6        1.0  0.9252999999999998  0.12681999999999996  0.14731  1.0000
  H   H7        1.0  0.9164899999999998  0.22665  0.05025  1.0000
  H   H8        1.0  0.94844  0.16407999999999995  0.03162999999999999  1.0000
  H   H9        1.0  0.9828899999999998  0.30101  0.19496999999999995  1.0000
  H   H10       1.0  0.028479999999999984  0.36262  0.2912  1.0000
  H   H11       1.0  0.83014  0.26690999999999987  0.18143999999999993  1.0000
  H   H12       1.0  0.87573  0.32815  0.27724  1.0000
  H   H13       1.0  0.51969  0.7167  0.32114  1.0000
  H   H14       1.0  0.47481999999999985  0.7669799999999998  0.33829  1.0000
  H   H15       1.0  0.6729299999999997  0.8569199999999999  0.44255  1.0000
  H   H16       1.0  0.6279099999999997  0.90677  0.4596299999999999  1.0000
  H   H17       1.0  0.17027999999999996  0.39386999999999994  0.68906  1.0000
  H   H18       1.0  0.15139999999999998  0.42961000000000005  0.62822  1.0000
  H   H19       1.0  0.05116999999999996  0.40964999999999996  0.7223999999999999  1.0000
  H   H20       1.0  0.03287000000000001  0.44619  0.66232  1.0000
  H   H21       1.0  0.2985  0.10166999999999995  0.27731999999999996  1.0000
  H   H22       1.0  0.20146999999999993  0.06664999999999997  0.22363  1.0000
  H   H23       1.0  0.31403  0.08807999999999998  0.14184  1.0000
  H   H24       1.0  0.21705999999999995  0.052769999999999984  0.08818999999999999  1.0000
  H   H25       1.0  0.3273  0.022930000000000002  0.22388  1.0000
  H   H26       1.0  0.34707999999999994  0.9796199999999998  0.27649  1.0000
  H   H27       1.0  0.4466699999999999  0.17579999999999996  0.36192999999999986  1.0000
  H   H28       1.0  0.4659999999999999  0.13250999999999996  0.41447999999999996  1.0000
  H   H29       1.0  0.19453999999999994  0.47597999999999996  0.7958999999999999  1.0000
  H   H30       1.0  0.29201999999999995  0.52478  0.86092  1.0000
  H   H31       1.0  0.18719999999999987  0.3278999999999999  0.7692299999999997  1.0000
  H   H32       1.0  0.28433999999999987  0.37662  0.83416  1.0000
  H   H33       1.0  0.22313999999999978  0.8248699999999998  0.5210699999999999  1.0000
  H   H34       1.0  0.2744500000000001  0.84518  0.47693  1.0000
  H   H35       1.0  0.3647899999999997  0.9452899999999999  0.6720599999999999  1.0000
  H   H36       1.0  0.4159699999999999  0.9653999999999999  0.6280999999999999  1.0000
  H   H37       1.0  0.8068299999999998  0.69975  0.9762799999999999  1.0000
  H   H38       1.0  0.87017  0.79628  0.01988  1.0000
  H   H39       1.0  0.7751199999999999  0.6866299999999999  0.82509  1.0000
  H   H40       1.0  0.8383699999999995  0.7832799999999996  0.8688099999999997  1.0000
  H   H41       1.0  0.7003299999999999  0.6766399999999999  0.8934199999999998  1.0000
  H   H42       1.0  0.6386399999999999  0.6613599999999997  0.9281799999999998  1.0000
  H   H43       1.0  0.72629  0.55488  0.91381  1.0000
  H   H44       1.0  0.6644699999999997  0.5396299999999999  0.9482999999999999  1.0000
  H   H45       1.0  0.28205999999999976  0.7988299999999998  0.60575  1.0000
  H   H46       1.0  0.2279599999999999  0.7024499999999998  0.57276  1.0000
  H   H47       1.0  0.14291999999999982  0.8114199999999997  0.5834499999999999  1.0000
  H   H48       1.0  0.08896999999999992  0.7154099999999999  0.5504599999999998  1.0000
  H   H49       1.0  0.8964399999999998  0.7052899999999998  0.22908999999999993  1.0000
  H   H50       1.0  0.92776  0.8003499999999999  0.28068  1.0000
  H   H51       1.0  0.9173799999999999  0.68936  0.36649  1.0000
  H   H52       1.0  0.9491999999999995  0.7843299999999997  0.41821  1.0000
  H   H53       1.0  0.6011499999999999  0.8194199999999999  0.80003  1.0000
  H   H54       1.0  0.56808  0.83632  0.86216  1.0000
  H   H55       1.0  0.5844999999999998  0.94109  0.77022  1.0000
  H   H56       1.0  0.5516899999999996  0.9577899999999999  0.8322099999999998  1.0000
  H   H57       1.0  0.51941  0.79294  0.69123  1.0000
  H   H58       1.0  0.4778399999999999  0.69792  0.62851  1.0000
  H   H59       1.0  0.6755099999999998  0.81479  0.7286  1.0000
  H   H60       1.0  0.6336999999999999  0.7198599999999998  0.6660899999999997  1.0000
  H   H61       1.0  0.9835199999999997  0.68336  0.28769  1.0000
  H   H62       1.0  0.028620000000000024  0.66696  0.23725  1.0000
  H   H63       1.0  0.8303099999999998  0.56223  0.14801  1.0000
  H   H64       1.0  0.8753499999999997  0.54613  0.09792999999999999  1.0000
  H   H65       1.0  0.3265999999999999  0.30735  0.60626  1.0000
  H   H66       1.0  0.3458  0.36972  0.57202  1.0000
  H   H67       1.0  0.4442999999999998  0.27384  0.58649  1.0000
  H   H68       1.0  0.46300999999999987  0.33588999999999997  0.5519499999999999  1.0000
  H   H69       1.0  0.19319000000000003  0.71863  0.89949  1.0000
  H   H70       1.0  0.29037999999999986  0.7665899999999997  0.9309299999999999  1.0000
  H   H71       1.0  0.19033999999999993  0.86144  0.9198099999999999  1.0000
  H   H72       1.0  0.2874299999999997  0.9092499999999998  0.9511899999999998  1.0000
  H   H73       1.0  0.17156999999999992  0.77883  0.98285  1.0000
  H   H74       1.0  0.15325999999999995  0.72406  0.024999999999999998  1.0000
  H   H75       1.0  0.05100999999999985  0.6415699999999998  0.8301199999999997  1.0000
  H   H76       1.0  0.03300999999999987  0.5867699999999997  0.8721799999999998  1.0000
  H   H77       1.0  0.29938  0.19799  0.52306  1.0000
  H   H78       1.0  0.20210999999999993  0.13339999999999996  0.4779399999999999  1.0000
  H   H79       1.0  0.3122299999999999  0.2283  0.67339  1.0000
  H   H80       1.0  0.21521999999999988  0.16419999999999996  0.62841  1.0000
  H   H81       1.0  0.27793999999999985  0.47961999999999994  0.17339  1.0000
  H   H82       1.0  0.22526999999999991  0.5218999999999998  0.15217999999999998  1.0000
  H   H83       1.0  0.13757999999999995  0.32614  0.05514  1.0000
  H   H84       1.0  0.08517999999999995  0.36843  0.03411  1.0000
  H   H85       1.0  0.6914800000000001  0.022219999999999997  0.30417  1.0000
  H   H86       1.0  0.6303699999999998  0.97522  0.20712  1.0000
  H   H87       1.0  0.7221899999999998  0.17158999999999996  0.31079999999999997  1.0000
  H   H88       1.0  0.6610999999999998  0.12450999999999997  0.21378  1.0000
  H   H89       1.0  0.7983699999999997  0.10797999999999994  0.3247099999999999  1.0000
  H   H90       1.0  0.8609599999999997  0.07445000000000003  0.34069  1.0000
  H   H91       1.0  0.7707399999999998  0.08632999999999998  0.44522  1.0000
  H   H92       1.0  0.8333299999999997  0.05278999999999993  0.4610299999999999  1.0000
  H   H93       1.0  0.22129  0.39673  0.20180999999999993  1.0000
  H   H94       1.0  0.2749  0.42969  0.29741  1.0000
  H   H95       1.0  0.35968  0.41562999999999994  0.18820999999999993  1.0000
  H   H96       1.0  0.4131899999999999  0.44896  0.2837  1.0000
  H   H97       1.0  0.3947799999999999  0.22090999999999997  0.70003  1.0000
  H   H98       1.0  0.4273599999999999  0.27005  0.79553  1.0000
  H   H99       1.0  0.4155499999999998  0.3617799999999999  0.6901999999999998  1.0000
  H   H100      1.0  0.4484299999999998  0.4107599999999999  0.7857699999999997  1.0000
  H   H101      1.0  0.10613999999999994  0.8101099999999998  0.83376  1.0000
  H   H102      1.0  0.07469999999999997  0.8732  0.85271  1.0000
  H   H103      1.0  0.08349999999999999  0.77335  0.94975  1.0000
  H   H104      1.0  0.05156000000000001  0.83592  0.96838  1.0000
  H   H105      1.0  0.017119999999999854  0.6989999999999998  0.8050399999999998  1.0000
  H   H106      1.0  0.9715199999999998  0.63739  0.7088  1.0000
  H   H107      1.0  0.16986999999999974  0.7330999999999996  0.8185699999999998  1.0000
  H   H108      1.0  0.12427999999999992  0.6718699999999999  0.7227699999999998  1.0000
  H   H109      1.0  0.4802999999999998  0.28329999999999994  0.6788499999999997  1.0000
  H   H110      1.0  0.5251699999999996  0.23302999999999985  0.6617099999999998  1.0000
  H   H111      1.0  0.3270700000000001  0.14309  0.55744  1.0000
  H   H112      1.0  0.3720799999999999  0.09322999999999998  0.54037  1.0000
  H   H113      1.0  0.8297099999999997  0.60612  0.31094999999999995  1.0000
  H   H114      1.0  0.8485999999999999  0.5703799999999998  0.3717899999999999  1.0000
  H   H115      1.0  0.9488099999999998  0.59034  0.27758  1.0000
  H   H116      1.0  0.9671199999999998  0.5538  0.33765999999999996  1.0000
  H   H117      1.0  0.7014899999999997  0.89833  0.72269  1.0000
  H   H118      1.0  0.79852  0.93335  0.77639  1.0000
  H   H119      1.0  0.6859499999999997  0.9119199999999998  0.8581599999999998  1.0000
  H   H120      1.0  0.78292  0.94724  0.91182  1.0000
  H   H121      1.0  0.6727  0.97707  0.77613  1.0000
  H   H122      1.0  0.65291  0.020390000000000023  0.72353  1.0000
  H   H123      1.0  0.5533199999999997  0.8241999999999999  0.63807  1.0000
  H   H124      1.0  0.5339899999999999  0.8674999999999998  0.58553  1.0000
  H   H125      1.0  0.8054399999999998  0.52402  0.2041  1.0000
  H   H126      1.0  0.70797  0.4752  0.13908  1.0000
  H   H127      1.0  0.81277  0.67208  0.23076999999999995  1.0000
  H   H128      1.0  0.71563  0.62335  0.16583  1.0000
  H   H129      1.0  0.7768599999999998  0.17513  0.47894  1.0000
  H   H130      1.0  0.7255499999999998  0.15483  0.52307  1.0000
  H   H131      1.0  0.6352099999999999  0.054709999999999946  0.32793999999999995  1.0000
  H   H132      1.0  0.58403  0.03460999999999999  0.37191  1.0000
  H   H133      1.0  0.19314  0.30024  0.02371  1.0000
  H   H134      1.0  0.12979999999999994  0.20371999999999998  0.98012  1.0000
  H   H135      1.0  0.22486999999999993  0.31339  0.17491999999999994  1.0000
  H   H136      1.0  0.16162  0.21674  0.1312  1.0000
  H   H137      1.0  0.29964  0.32335  0.10658  1.0000
  H   H138      1.0  0.36133  0.33863  0.07182  1.0000
  H   H139      1.0  0.2736999999999999  0.44512  0.08617  1.0000
  H   H140      1.0  0.3355099999999998  0.46034999999999987  0.05168  1.0000
  H   H141      1.0  0.7179399999999998  0.20116999999999993  0.39424999999999993  1.0000
  H   H142      1.0  0.7720499999999997  0.2975499999999999  0.42724  1.0000
  H   H143      1.0  0.8570699999999999  0.18855999999999998  0.41656  1.0000
  H   H144      1.0  0.9110299999999999  0.28457  0.44953  1.0000
  H   H145      1.0  0.10353999999999988  0.2947099999999999  0.7709099999999999  1.0000
  H   H146      1.0  0.07221999999999996  0.19966  0.71934  1.0000
  H   H147      1.0  0.0826  0.31063  0.63351  1.0000
  H   H148      1.0  0.05078999999999995  0.2156599999999999  0.58179  1.0000
  H   H149      1.0  0.39883  0.18056  0.19996  1.0000
  H   H150      1.0  0.43189999999999973  0.16366  0.13782999999999998  1.0000
  H   H151      1.0  0.4154799999999999  0.058899999999999966  0.22978999999999994  1.0000
  H   H152      1.0  0.4482999999999998  0.04218999999999998  0.1678  1.0000
  H   H153      1.0  0.48058  0.20706  0.30876  1.0000
  H   H154      1.0  0.5221599999999998  0.30208  0.37147999999999987  1.0000
  H   H155      1.0  0.3244699999999999  0.18519999999999995  0.27139  1.0000
  H   H156      1.0  0.36628  0.28013  0.3339  1.0000
  H   H157      1.0  0.016459999999999947  0.3166399999999999  0.7123099999999999  1.0000
  H   H158      1.0  0.9713599999999996  0.33304999999999996  0.7627399999999999  1.0000
  H   H159      1.0  0.16966999999999985  0.43776999999999977  0.8519899999999998  1.0000
  H   H160      1.0  0.12463999999999982  0.45386999999999983  0.9020599999999998  1.0000
  H   H161      1.0  0.67341  0.69267  0.39373999999999987  1.0000
  H   H162      1.0  0.6541999999999998  0.6302999999999997  0.4279899999999999  1.0000
  H   H163      1.0  0.5556999999999996  0.7261699999999999  0.4134999999999999  1.0000
  H   H164      1.0  0.53699  0.66412  0.44803999999999994  1.0000
  H   H165      1.0  0.8068099999999998  0.2813799999999999  0.10052  1.0000
  H   H166      1.0  0.70962  0.23341  0.06908  1.0000
  H   H167      1.0  0.80968  0.13857  0.08018999999999998  1.0000
  H   H168      1.0  0.7125899999999997  0.09076  0.04882  1.0000
  H   H169      1.0  0.8284399999999997  0.22118999999999997  0.01715  1.0000
  H   H170      1.0  0.8467499999999997  0.27596999999999994  0.9750199999999999  1.0000
  H   H171      1.0  0.9489899999999998  0.35845  0.1699  1.0000
  H   H172      1.0  0.9669799999999998  0.41325  0.12784  1.0000
  H   H173      1.0  0.7006199999999998  0.80202  0.47693  1.0000
  H   H174      1.0  0.79789  0.8666099999999998  0.52206  1.0000
  H   H175      1.0  0.6877699999999998  0.77171  0.32661  1.0000
  H   H176      1.0  0.7847799999999998  0.8358099999999998  0.3716  1.0000
  H   H177      1.0  0.7220499999999997  0.5203999999999999  0.8265999999999998  1.0000
  H   H178      1.0  0.7747299999999996  0.4781199999999999  0.8478299999999998  1.0000
  H   H179      1.0  0.8623999999999998  0.67388  0.94486  1.0000
  H   H180      1.0  0.9147999999999997  0.6316  0.9658899999999998  1.0000
  H   H181      1.0  0.30852000000000007  0.9777700000000001  0.69584  1.0000
  H   H182      1.0  0.3696299999999999  0.024779999999999983  0.79288  1.0000
  H   H183      1.0  0.27779999999999977  0.8284  0.6891999999999998  1.0000
  H   H184      1.0  0.3388899999999999  0.8754699999999997  0.7862199999999998  1.0000
  H   H185      1.0  0.20161999999999983  0.8919999999999997  0.67529  1.0000
  H   H186      1.0  0.13903999999999975  0.9255399999999998  0.6593199999999998  1.0000
  H   H187      1.0  0.22927000000000003  0.91367  0.5548  1.0000
  H   H188      1.0  0.16667999999999986  0.9472099999999998  0.53899  1.0000
  H   H189      1.0  0.77869  0.60328  0.79818  1.0000
  H   H190      1.0  0.72508  0.5703299999999999  0.7025799999999998  1.0000
  H   H191      1.0  0.6403000000000002  0.58439  0.81178  1.0000
  H   H192      1.0  0.5867999999999997  0.5510599999999999  0.7162999999999998  1.0000
  C   C1        1.0  0.54301  0.62935  0.14720999999999998  1.0000
  C   C2        1.0  0.5605599999999998  0.65651  0.20317999999999997  1.0000
  C   C3        1.0  0.5937899999999998  0.7375399999999999  0.28144  1.0000
  C   C4        1.0  0.5989000000000001  0.7128600000000002  0.31259  1.0000
  C   C5        1.0  0.5752999999999999  0.7101399999999999  0.22786  1.0000
  C   C6        1.0  0.58253  0.65895  0.28732  1.0000
  C   C7        1.0  0.5636599999999998  0.63095  0.23330999999999993  1.0000
  C   C8        1.0  0.9560299999999998  0.10214999999999999  0.07783999999999999  1.0000
  C   C9        1.0  0.9382699999999998  0.1404  0.08754  1.0000
  C   C10       1.0  0.9052299999999999  0.18395999999999996  0.13631  1.0000
  C   C11       1.0  0.9012099999999997  0.21207999999999996  0.10865999999999998  1.0000
  C   C12       1.0  0.9230799999999998  0.14865999999999996  0.12595999999999996  1.0000
  C   C13       1.0  0.9176399999999997  0.20459  0.07139  1.0000
  C   C14       1.0  0.9358899999999998  0.16923999999999997  0.060729999999999985  1.0000
  C   C15       1.0  0.9829799999999999  0.3889999999999999  0.34616999999999987  1.0000
  C   C16       1.0  0.95511  0.3504  0.29024  1.0000
  C   C17       1.0  0.9592899999999998  0.30717  0.21279999999999996  1.0000
  C   C18       1.0  0.9031899999999998  0.28087  0.18049999999999997  1.0000
  C   C19       1.0  0.98501  0.34155  0.26671  1.0000
  C   C20       1.0  0.8736199999999997  0.28801  0.20482  1.0000
  C   C21       1.0  0.8990799999999997  0.3223999999999999  0.25895999999999997  1.0000
  C   C22       1.0  0.5202299999999996  0.8675700000000001  0.41117  1.0000
  C   C23       1.0  0.54829  0.83997  0.4007399999999999  1.0000
  C   C24       1.0  0.5436399999999999  0.7582899999999999  0.3517599999999999  1.0000
  C   C25       1.0  0.59976  0.78253  0.38179  1.0000
  C   C26       1.0  0.51825  0.78631  0.36105  1.0000
  C   C27       1.0  0.6294599999999998  0.8365  0.41982  1.0000
  C   C28       1.0  0.60428  0.86504  0.42948  1.0000
  C   C29       1.0  0.07946999999999993  0.4581999999999999  0.6023799999999999  1.0000
  C   C30       1.0  0.08999999999999984  0.43922999999999984  0.6402199999999998  1.0000
  C   C31       1.0  0.13964999999999986  0.40464999999999984  0.6827299999999998  1.0000
  C   C32       1.0  0.11071999999999989  0.39717999999999987  0.7088099999999998  1.0000
  C   C33       1.0  0.12942999999999993  0.42496999999999996  0.6488599999999999  1.0000
  C   C34       1.0  0.07294999999999993  0.41328999999999977  0.70152  1.0000
  C   C35       1.0  0.06250999999999998  0.43410999999999994  0.6676599999999999  1.0000
  C   C36       1.0  0.14569  0.04057999999999996  0.12365999999999998  1.0000
  C   C37       1.0  0.20265999999999992  0.05818999999999998  0.15241999999999997  1.0000
  C   C38       1.0  0.28098  0.09127999999999997  0.23595999999999998  1.0000
  C   C39       1.0  0.31439999999999985  0.09945999999999997  0.21439999999999998  1.0000
  C   C40       1.0  0.22638999999999992  0.07134000000000001  0.20589  1.0000
  C   C41       1.0  0.29  0.08406  0.16049  1.0000
  C   C42       1.0  0.23496999999999996  0.06374999999999999  0.12974999999999998  1.0000
  C   C43       1.0  0.42007  0.024829999999999963  0.37772999999999995  1.0000
  C   C44       1.0  0.4089699999999999  0.05288000000000001  0.34901  1.0000
  C   C45       1.0  0.3581499999999999  0.04728999999999998  0.26553999999999994  1.0000
  C   C46       1.0  0.3865399999999999  0.10294  0.28822  1.0000
  C   C47       1.0  0.36911  0.022690000000000002  0.29502  1.0000
  C   C48       1.0  0.4248799999999998  0.13271999999999998  0.34241999999999995  1.0000
  C   C49       1.0  0.43609  0.10836  0.37252  1.0000
  C   C50       1.0  0.35145999999999983  0.48342  0.89176  1.0000
  C   C51       1.0  0.2945  0.45391  0.85228  1.0000
  C   C52       1.0  0.21412999999999993  0.45408  0.80422  1.0000
  C   C53       1.0  0.18322999999999987  0.3982699999999999  0.7784699999999998  1.0000
  C   C54       1.0  0.2687499999999999  0.48161999999999994  0.84061  1.0000
  C   C55       1.0  0.20958999999999994  0.37101  0.78928  1.0000
  C   C56       1.0  0.2644899999999999  0.39828999999999987  0.82577  1.0000
  C   C57       1.0  0.37677000000000005  0.91848  0.52135  1.0000
  C   C58       1.0  0.3485499999999998  0.9073399999999999  0.5493899999999999  1.0000
  C   C59       1.0  0.2653  0.85597  0.54464  1.0000
  C   C60       1.0  0.2894799999999999  0.88465  0.59988  1.0000
  C   C61       1.0  0.29401999999999995  0.86713  0.51973  1.0000
  C   C62       1.0  0.34428000000000003  0.9234200000000001  0.62923  1.0000
  C   C63       1.0  0.37358999999999987  0.9349  0.6045599999999999  1.0000
  C   C64       1.0  0.8972099999999998  0.85335  0.9759499999999998  1.0000
  C   C65       1.0  0.85907  0.7962  0.94736  1.0000
  C   C66       1.0  0.8139699999999997  0.7176999999999997  0.9525299999999999  1.0000
  C   C67       1.0  0.78729  0.68538  0.89738  1.0000
  C   C68       1.0  0.8492899999999998  0.77188  0.97719  1.0000
  C   C69       1.0  0.79626  0.71008  0.86786  1.0000
  C   C70       1.0  0.8317599999999996  0.7647899999999997  0.89234  1.0000
  C   C71       1.0  0.6088  0.58973  0.95839  1.0000
  C   C72       1.0  0.64684  0.59894  0.93987  1.0000
  C   C73       1.0  0.6923899999999997  0.6463599999999997  0.9051399999999997  1.0000
  C   C74       1.0  0.71698  0.61597  0.8996  1.0000
  C   C75       1.0  0.6578899999999998  0.6380799999999995  0.9247499999999997  1.0000
  C   C76       1.0  0.7069499999999997  0.57813  0.9162  1.0000
  C   C77       1.0  0.6722299999999997  0.56946  0.9359699999999999  1.0000
  C   C78       1.0  0.12506  0.64567  0.54225  1.0000
  C   C79       1.0  0.15494  0.7024399999999998  0.5603  1.0000
  C   C80       1.0  0.23989999999999986  0.78079  0.5942399999999999  1.0000
  C   C81       1.0  0.21719999999999998  0.813  0.5991599999999999  1.0000
  C   C82       1.0  0.20957999999999993  0.72663  0.57543  1.0000
  C   C83       1.0  0.1622700000000001  0.78816  0.58205  1.0000
  C   C84       1.0  0.13139  0.73372  0.56305  1.0000
  C   C85       1.0  0.9570599999999997  0.8549399999999998  0.38069999999999987  1.0000
  C   C86       1.0  0.9398499999999996  0.79879  0.35282  1.0000
  C   C87       1.0  0.90753  0.72237  0.27041  1.0000
  C   C88       1.0  0.9028799999999998  0.6894999999999999  0.29329999999999995  1.0000
  C   C89       1.0  0.9252999999999997  0.77577  0.29927  1.0000
  C   C90       1.0  0.9189599999999998  0.7131  0.34703999999999996  1.0000
  C   C91       1.0  0.9371699999999997  0.7669599999999999  0.37661999999999995  1.0000
  C   C92       1.0  0.5412499999999996  0.9092599999999997  0.89082  1.0000
  C   C93       1.0  0.5583699999999999  0.8987799999999999  0.8521199999999998  1.0000
  C   C94       1.0  0.59047  0.8498899999999999  0.8069599999999998  1.0000
  C   C95       1.0  0.5969299999999997  0.87995  0.78127  1.0000
  C   C96       1.0  0.57177  0.85912  0.8418  1.0000
  C   C97       1.0  0.5815799999999998  0.91803  0.79033  1.0000
  C   C98       1.0  0.5626999999999999  0.9275699999999999  0.8252499999999998  1.0000
  C   C99       1.0  0.5249899999999998  0.64595  0.6031  1.0000
  C   C100      1.0  0.5527099999999998  0.7023599999999998  0.6419499999999998  1.0000
  C   C101      1.0  0.5447999999999997  0.77739  0.68567  1.0000
  C   C102      1.0  0.6007999999999998  0.81202  0.71367  1.0000
  C   C103      1.0  0.52119  0.72389  0.65045  1.0000
  C   C104      1.0  0.6320499999999999  0.78988  0.7065099999999997  1.0000
  C   C105      1.0  0.60859  0.73596  0.67118  1.0000
  C   C106      1.0  0.9826299999999998  0.5930699999999999  0.13661  1.0000
  C   C107      1.0  0.9550499999999998  0.6043499999999998  0.16454  1.0000
  C   C108      1.0  0.9596999999999999  0.65297  0.24618  1.0000
  C   C109      1.0  0.9036099999999998  0.62252  0.22227999999999998  1.0000
  C   C110      1.0  0.9851499999999995  0.64402  0.21803999999999996  1.0000
  C   C111      1.0  0.8737999999999998  0.58508  0.16828  1.0000
  C   C112      1.0  0.8989999999999998  0.57587  0.13963999999999996  1.0000
  C   C113      1.0  0.41730999999999985  0.39661  0.54216  1.0000
  C   C114      1.0  0.40663999999999983  0.3580799999999999  0.5606899999999999  1.0000
  C   C115      1.0  0.35711  0.31398000000000004  0.59513  1.0000
  C   C116      1.0  0.38555999999999985  0.2873399999999999  0.60115  1.0000
  C   C117      1.0  0.3674999999999999  0.3487899999999999  0.57557  1.0000
  C   C118      1.0  0.42296  0.29519  0.58431  1.0000
  C   C119      1.0  0.43358  0.33008999999999994  0.56445  1.0000
  C   C120      1.0  0.3517999999999999  0.8678199999999998  0.9590799999999999  1.0000
  C   C121      1.0  0.29511999999999977  0.8409199999999998  0.94251  1.0000
  C   C122      1.0  0.21369999999999986  0.76039  0.9106799999999998  1.0000
  C   C123      1.0  0.18409999999999976  0.7860399999999995  0.9058399999999998  1.0000
  C   C124      1.0  0.26818999999999993  0.7871199999999999  0.9284599999999997  1.0000
  C   C125      1.0  0.21167999999999987  0.8401099999999998  0.9216499999999999  1.0000
  C   C126      1.0  0.26652999999999993  0.8674099999999999  0.93967  1.0000
  C   C127      1.0  0.08082999999999999  0.62257  0.9790099999999999  1.0000
  C   C128      1.0  0.09117999999999972  0.6520199999999996  0.9515499999999998  1.0000
  C   C129      1.0  0.1406699999999999  0.73693  0.9584899999999997  1.0000
  C   C130      1.0  0.11123999999999998  0.71474  0.90331  1.0000
  C   C131      1.0  0.1308299999999999  0.7063499999999997  0.9822999999999998  1.0000
  C   C132      1.0  0.07317  0.66023  0.87289  1.0000
  C   C133      1.0  0.06299000000000002  0.62898  0.89648  1.0000
  C   C134      1.0  0.14501  0.10439999999999999  0.52168  1.0000
  C   C135      1.0  0.20221  0.14372  0.55008  1.0000
  C   C136      1.0  0.28115  0.1904  0.54627  1.0000
  C   C137      1.0  0.31371  0.21684  0.60163  1.0000
  C   C138      1.0  0.22654  0.15430999999999995  0.52081  1.0000
  C   C139      1.0  0.28873  0.2074  0.63052  1.0000
  C   C140      1.0  0.23377999999999993  0.17128000000000002  0.60531  1.0000
  C   C141      1.0  0.12258999999999998  0.47569  0.07993  1.0000
  C   C142      1.0  0.15166999999999997  0.4482999999999999  0.0909  1.0000
  C   C143      1.0  0.23581  0.45497  0.14247  1.0000
  C   C144      1.0  0.21245999999999995  0.39948999999999996  0.11489999999999997  1.0000
  C   C145      1.0  0.20627999999999994  0.4789499999999999  0.13072  1.0000
  C   C146      1.0  0.15765  0.36917  0.07630999999999999  1.0000
  C   C147      1.0  0.12758999999999998  0.39292999999999995  0.06422  1.0000
  C   C148      1.0  0.60479  0.01784999999999998  0.14740999999999999  1.0000
  C   C149      1.0  0.6414499999999995  0.04683  0.20429999999999998  1.0000
  C   C150      1.0  0.68449  0.04469999999999999  0.28452  1.0000
  C   C151      1.0  0.7103599999999998  0.10029999999999999  0.31488  1.0000
  C   C152      1.0  0.6505099999999999  0.018199999999999977  0.23021999999999995  1.0000
  C   C153      1.0  0.7017899999999998  0.12855000000000005  0.2886  1.0000
  C   C154      1.0  0.6676099999999998  0.10224999999999995  0.23385999999999996  1.0000
  C   C155      1.0  0.8893999999999997  0.04371999999999995  0.4114099999999999  1.0000
  C   C156      1.0  0.8516499999999998  0.06218000000000003  0.40242  1.0000
  C   C157      1.0  0.8062299999999998  0.09627  0.35487  1.0000
  C   C158      1.0  0.7810799999999998  0.10102999999999997  0.38483  1.0000
  C   C159      1.0  0.84112  0.07738  0.36349  1.0000
  C   C160      1.0  0.79072  0.0845  0.42253  1.0000
  C   C161      1.0  0.8257599999999998  0.06532999999999994  0.4314799999999999  1.0000
  C   C162      1.0  0.3763199999999999  0.45789  0.35355  1.0000
  C   C163      1.0  0.34760999999999986  0.44082  0.29719999999999996  1.0000
  C   C164      1.0  0.2632799999999999  0.40792  0.21945999999999993  1.0000
  C   C165      1.0  0.2857299999999999  0.402  0.18706  1.0000
  C   C166      1.0  0.29332999999999987  0.42663  0.27326999999999996  1.0000
  C   C167      1.0  0.34037999999999996  0.41813999999999996  0.21153999999999998  1.0000
  C   C168      1.0  0.3710499999999999  0.43724999999999997  0.26577  1.0000
  C   C169      1.0  0.45697000000000004  0.37062  0.85279  1.0000
  C   C170      1.0  0.43942999999999993  0.3434799999999999  0.7968199999999999  1.0000
  C   C171      1.0  0.4062099999999999  0.26246  0.71855  1.0000
  C   C172      1.0  0.4010999999999998  0.28713999999999984  0.6873999999999999  1.0000
  C   C173      1.0  0.4246899999999998  0.28983999999999993  0.7721299999999999  1.0000
  C   C174      1.0  0.41746999999999995  0.3410499999999999  0.71268  1.0000
  C   C175      1.0  0.43633  0.36905  0.7667  1.0000
  C   C176      1.0  0.04397999999999993  0.89786  0.9221899999999997  1.0000
  C   C177      1.0  0.06172999999999989  0.8596  0.9124799999999997  1.0000
  C   C178      1.0  0.09477999999999986  0.81606  0.8637099999999998  1.0000
  C   C179      1.0  0.09879999999999989  0.78794  0.8913499999999998  1.0000
  C   C180      1.0  0.0769199999999998  0.8513599999999998  0.8740599999999997  1.0000
  C   C181      1.0  0.08235999999999997  0.7954199999999999  0.92862  1.0000
  C   C182      1.0  0.06409999999999992  0.83076  0.9392799999999998  1.0000
  C   C183      1.0  0.017030000000000014  0.61102  0.65384  1.0000
  C   C184      1.0  0.04488999999999994  0.64962  0.7097699999999998  1.0000
  C   C185      1.0  0.040709999999999996  0.69285  0.78721  1.0000
  C   C186      1.0  0.09681999999999988  0.7191499999999997  0.8195099999999998  1.0000
  C   C187      1.0  0.014989999999999911  0.65846  0.7333  1.0000
  C   C188      1.0  0.12637999999999985  0.7120099999999998  0.79519  1.0000
  C   C189      1.0  0.10091999999999991  0.67762  0.74104  1.0000
  C   C190      1.0  0.4797599999999999  0.13244  0.58883  1.0000
  C   C191      1.0  0.45171  0.16003  0.59926  1.0000
  C   C192      1.0  0.4563599999999998  0.24171999999999993  0.6482399999999999  1.0000
  C   C193      1.0  0.4002299999999999  0.21747000000000005  0.6182  1.0000
  C   C194      1.0  0.4817399999999998  0.21369999999999986  0.6389399999999997  1.0000
  C   C195      1.0  0.37053  0.1635  0.58018  1.0000
  C   C196      1.0  0.3957099999999999  0.13495999999999994  0.57052  1.0000
  C   C197      1.0  0.92055  0.5418  0.39762  1.0000
  C   C198      1.0  0.9099999999999998  0.56076  0.35977  1.0000
  C   C199      1.0  0.8603399999999999  0.5953399999999999  0.31726999999999994  1.0000
  C   C200      1.0  0.8892699999999999  0.6028099999999997  0.29119  1.0000
  C   C201      1.0  0.8705699999999998  0.57502  0.3511399999999999  1.0000
  C   C202      1.0  0.92704  0.5867  0.29846999999999996  1.0000
  C   C203      1.0  0.93748  0.56588  0.33233  1.0000
  C   C204      1.0  0.8542899999999998  0.95942  0.87637  1.0000
  C   C205      1.0  0.79733  0.94182  0.8476  1.0000
  C   C206      1.0  0.71901  0.90872  0.76405  1.0000
  C   C207      1.0  0.6855899999999999  0.90053  0.78561  1.0000
  C   C208      1.0  0.7735999999999997  0.92867  0.7941299999999999  1.0000
  C   C209      1.0  0.7099799999999999  0.91594  0.8395099999999998  1.0000
  C   C210      1.0  0.7650099999999996  0.9362599999999996  0.8702599999999998  1.0000
  C   C211      1.0  0.57992  0.97518  0.62229  1.0000
  C   C212      1.0  0.5910299999999997  0.9471299999999996  0.651  1.0000
  C   C213      1.0  0.6418499999999999  0.9527199999999998  0.73447  1.0000
  C   C214      1.0  0.61345  0.8970599999999999  0.7117799999999997  1.0000
  C   C215      1.0  0.63088  0.97732  0.705  1.0000
  C   C216      1.0  0.5751099999999998  0.86728  0.65758  1.0000
  C   C217      1.0  0.5638999999999996  0.8916499999999999  0.6274899999999999  1.0000
  C   C218      1.0  0.64852  0.51656  0.10822999999999998  1.0000
  C   C219      1.0  0.7054799999999998  0.54607  0.14771999999999996  1.0000
  C   C220      1.0  0.78586  0.54591  0.19577999999999995  1.0000
  C   C221      1.0  0.8167499999999998  0.60173  0.22152999999999995  1.0000
  C   C222      1.0  0.7312399999999998  0.51837  0.15939  1.0000
  C   C223      1.0  0.79038  0.62898  0.21071999999999994  1.0000
  C   C224      1.0  0.7354899999999998  0.60169  0.17421999999999996  1.0000
  C   C225      1.0  0.62322  0.08155  0.47865  1.0000
  C   C226      1.0  0.6514499999999998  0.09267000000000003  0.45062  1.0000
  C   C227      1.0  0.7346999999999998  0.14402999999999996  0.45535999999999993  1.0000
  C   C228      1.0  0.7105199999999997  0.11534999999999994  0.4001299999999999  1.0000
  C   C229      1.0  0.7059799999999997  0.13287999999999994  0.4802799999999999  1.0000
  C   C230      1.0  0.6557199999999997  0.07658000000000002  0.37078  1.0000
  C   C231      1.0  0.62641  0.06510999999999997  0.39545  1.0000
  C   C232      1.0  0.10278  0.14666  0.02408  1.0000
  C   C233      1.0  0.14091999999999993  0.20381  0.05265  1.0000
  C   C234      1.0  0.186  0.2823  0.047469999999999984  1.0000
  C   C235      1.0  0.21267999999999998  0.31463  0.10261999999999998  1.0000
  C   C236      1.0  0.15068999999999994  0.22812  0.022819999999999993  1.0000
  C   C237      1.0  0.20373  0.28994  0.13215  1.0000
  C   C238      1.0  0.16822999999999996  0.23521999999999996  0.10766999999999997  1.0000
  C   C239      1.0  0.39117999999999997  0.4102399999999999  0.0416  1.0000
  C   C240      1.0  0.35314  0.40105  0.06013  1.0000
  C   C241      1.0  0.30758  0.35364  0.09485999999999997  1.0000
  C   C242      1.0  0.28299999999999986  0.38403  0.10038  1.0000
  C   C243      1.0  0.3420799999999999  0.36191  0.07524  1.0000
  C   C244      1.0  0.29303  0.42186999999999997  0.08379  1.0000
  C   C245      1.0  0.3277499999999999  0.43053  0.06402  1.0000
  C   C246      1.0  0.8749499999999999  0.35432  0.45774999999999993  1.0000
  C   C247      1.0  0.8450599999999997  0.2975499999999999  0.43969  1.0000
  C   C248      1.0  0.7600999999999998  0.2192  0.40577  1.0000
  C   C249      1.0  0.7827899999999998  0.18699  0.40084  1.0000
  C   C250      1.0  0.7904299999999999  0.27336  0.42457  1.0000
  C   C251      1.0  0.8377299999999996  0.21182999999999994  0.41795999999999994  1.0000
  C   C252      1.0  0.8685999999999998  0.26626  0.43695  1.0000
  C   C253      1.0  0.04294000000000001  0.14506000000000005  0.61932  1.0000
  C   C254      1.0  0.06012999999999999  0.2012  0.64719  1.0000
  C   C255      1.0  0.09244999999999991  0.27763  0.7295999999999998  1.0000
  C   C256      1.0  0.09709999999999988  0.31049999999999994  0.7066999999999998  1.0000
  C   C257      1.0  0.07468999999999992  0.22422999999999993  0.70073  1.0000
  C   C258      1.0  0.08101999999999981  0.2868899999999998  0.6529599999999998  1.0000
  C   C259      1.0  0.06281999999999989  0.23302999999999985  0.6233799999999999  1.0000
  C   C260      1.0  0.45873999999999987  0.09072  0.10917999999999997  1.0000
  C   C261      1.0  0.4416199999999999  0.1012  0.14787  1.0000
  C   C262      1.0  0.4095199999999999  0.15009  0.19303  1.0000
  C   C263      1.0  0.40304999999999996  0.12002999999999998  0.21872  1.0000
  C   C264      1.0  0.42822  0.14086  0.15819  1.0000
  C   C265      1.0  0.4184099999999999  0.08195999999999995  0.20966999999999994  1.0000
  C   C266      1.0  0.43729  0.07242  0.17475  1.0000
  C   C267      1.0  0.4749899999999999  0.35404  0.39689  1.0000
  C   C268      1.0  0.4472699999999999  0.29764  0.35804  1.0000
  C   C269      1.0  0.4551899999999999  0.22260999999999997  0.31432  1.0000
  C   C270      1.0  0.39919  0.18798  0.28633  1.0000
  C   C271      1.0  0.47879999999999984  0.2761099999999999  0.3495399999999999  1.0000
  C   C272      1.0  0.36794  0.21012  0.29349  1.0000
  C   C273      1.0  0.3914  0.26404  0.32881  1.0000
  C   C274      1.0  0.017349999999999872  0.4069399999999999  0.8633899999999998  1.0000
  C   C275      1.0  0.04492999999999984  0.39564999999999984  0.83546  1.0000
  C   C276      1.0  0.040279999999999906  0.3470299999999999  0.7538199999999998  1.0000
  C   C277      1.0  0.09637999999999987  0.37748  0.7777199999999999  1.0000
  C   C278      1.0  0.014829999999999968  0.35599  0.78196  1.0000
  C   C279      1.0  0.12617999999999985  0.4149199999999999  0.8317199999999998  1.0000
  C   C280      1.0  0.10097999999999983  0.4241199999999999  0.8603599999999998  1.0000
  C   C281      1.0  0.5826699999999999  0.60339  0.45782  1.0000
  C   C282      1.0  0.59336  0.64194  0.43931  1.0000
  C   C283      1.0  0.6428999999999998  0.68604  0.40487  1.0000
  C   C284      1.0  0.6144399999999999  0.71267  0.39884999999999987  1.0000
  C   C285      1.0  0.6324999999999996  0.6512299999999999  0.42442999999999986  1.0000
  C   C286      1.0  0.5770399999999998  0.7048299999999998  0.4156899999999999  1.0000
  C   C287      1.0  0.56641  0.66992  0.43554  1.0000
  C   C288      1.0  0.6482  0.13217  0.04092  1.0000
  C   C289      1.0  0.70489  0.15908  0.057489999999999986  1.0000
  C   C290      1.0  0.7862999999999998  0.23961999999999994  0.08933  1.0000
  C   C291      1.0  0.8159099999999999  0.21397999999999992  0.09416  1.0000
  C   C292      1.0  0.73181  0.21289  0.07153999999999999  1.0000
  C   C293      1.0  0.7883299999999998  0.1599  0.07836  1.0000
  C   C294      1.0  0.7334899999999998  0.1326  0.06033  1.0000
  C   C295      1.0  0.9191699999999996  0.37747  0.02101  1.0000
  C   C296      1.0  0.9088299999999998  0.34801  0.04846999999999999  1.0000
  C   C297      1.0  0.85934  0.26309  0.04152  1.0000
  C   C298      1.0  0.8887599999999998  0.28528  0.0967  1.0000
  C   C299      1.0  0.8691699999999998  0.29368  0.017719999999999996  1.0000
  C   C300      1.0  0.9268299999999998  0.3397899999999999  0.12712  1.0000
  C   C301      1.0  0.9369999999999998  0.37105  0.10354  1.0000
  C   C302      1.0  0.8549999999999998  0.8956  0.47833  1.0000
  C   C303      1.0  0.79779  0.8562899999999999  0.4499199999999999  1.0000
  C   C304      1.0  0.7188399999999997  0.8096099999999999  0.4537199999999999  1.0000
  C   C305      1.0  0.6862899999999997  0.78317  0.3983599999999999  1.0000
  C   C306      1.0  0.7734599999999997  0.8456899999999998  0.4791899999999999  1.0000
  C   C307      1.0  0.7112699999999998  0.7926099999999997  0.36946999999999997  1.0000
  C   C308      1.0  0.7662299999999999  0.8287199999999999  0.3946899999999999  1.0000
  C   C309      1.0  0.87741  0.52433  0.92008  1.0000
  C   C310      1.0  0.84832  0.55172  0.90911  1.0000
  C   C311      1.0  0.7641799999999999  0.54505  0.85753  1.0000
  C   C312      1.0  0.7875199999999999  0.60052  0.8851  1.0000
  C   C313      1.0  0.7937099999999998  0.52107  0.86929  1.0000
  C   C314      1.0  0.8423399999999998  0.63084  0.9236799999999997  1.0000
  C   C315      1.0  0.8723999999999998  0.60709  0.9357799999999997  1.0000
  C   C316      1.0  0.39520999999999995  0.9821399999999998  0.8526  1.0000
  C   C317      1.0  0.3585499999999999  0.95316  0.7957099999999999  1.0000
  C   C318      1.0  0.31551  0.9552899999999999  0.7154899999999998  1.0000
  C   C319      1.0  0.2896299999999999  0.8996899999999998  0.6851199999999998  1.0000
  C   C320      1.0  0.34949  0.98179  0.76979  1.0000
  C   C321      1.0  0.29821  0.87144  0.7114  1.0000
  C   C322      1.0  0.33238999999999985  0.8977399999999998  0.76614  1.0000
  C   C323      1.0  0.11060000000000002  0.9562899999999998  0.58861  1.0000
  C   C324      1.0  0.14835999999999994  0.93782  0.5975999999999999  1.0000
  C   C325      1.0  0.19375999999999993  0.90372  0.6451299999999998  1.0000
  C   C326      1.0  0.21891999999999986  0.8989599999999998  0.61517  1.0000
  C   C327      1.0  0.15887999999999994  0.9226100000000002  0.63652  1.0000
  C   C328      1.0  0.2092799999999999  0.9154999999999998  0.57748  1.0000
  C   C329      1.0  0.17423999999999992  0.9346799999999998  0.56854  1.0000
  C   C330      1.0  0.62365  0.54211  0.64644  1.0000
  C   C331      1.0  0.6523799999999997  0.5591999999999997  0.7027899999999999  1.0000
  C   C332      1.0  0.7366999999999998  0.59209  0.78053  1.0000
  C   C333      1.0  0.7142499999999997  0.5980099999999999  0.8129299999999999  1.0000
  C   C334      1.0  0.7066499999999997  0.5733799999999998  0.72672  1.0000
  C   C335      1.0  0.6596  0.58187  0.78845  1.0000
  C   C336      1.0  0.62893  0.5627599999999998  0.73422  1.0000
  C   C337      1.0  0.6248599999999997  0.7476299999999999  0.3729099999999999  1.0000
  C   C338      1.0  0.87748  0.24794  0.11997  1.0000
  C   C339      1.0  0.12168999999999999  0.37061  0.74273  1.0000
  C   C340      1.0  0.37587  0.12767  0.25196  1.0000
  C   C341      1.0  0.25395999999999996  0.87378  0.6246299999999999  1.0000
  C   C342      1.0  0.7514899999999998  0.6246999999999998  0.87349  1.0000
  C   C343      1.0  0.8782999999999995  0.6293899999999999  0.25726999999999994  1.0000
  C   C344      1.0  0.62411  0.87233  0.74804  1.0000
  C   C345      1.0  0.3751299999999999  0.25237  0.62708  1.0000
  C   C346      1.0  0.12253000000000004  0.75208  0.88004  1.0000
  C   C347      1.0  0.24848999999999988  0.3752999999999999  0.1265  1.0000
  C   C348      1.0  0.74604  0.12621  0.37537  1.0000
  N   N1        1.0  0.53338  0.5798  0.11958  1.0000
  N   N2        1.0  0.5201299999999998  0.57193  0.07121  1.0000
  N   N3        1.0  0.52171  0.6158  0.06983  1.0000
  N   N4        1.0  0.5358499999999998  0.65228  0.11676  1.0000
  N   N5        1.0  0.9651799999999998  0.08283999999999997  0.03817  1.0000
  N   N6        1.0  0.97887  0.04831  0.04528  1.0000
  N   N7        1.0  0.9781599999999998  0.04736  0.08845  1.0000
  N   N8        1.0  0.9640899999999998  0.08044  0.10944  1.0000
  N   N9        1.0  0.9596899999999997  0.40629999999999994  0.3722699999999999  1.0000
  N   N10       1.0  0.9996  0.4422  0.42125  1.0000
  N   N11       1.0  0.04570999999999993  0.4461199999999999  0.42421  1.0000
  N   N12       1.0  0.036559999999999995  0.41338  0.37796  1.0000
  N   N13       1.0  0.54299  0.9171  0.4519999999999999  1.0000
  N   N14       1.0  0.50266  0.92525  0.44676999999999994  1.0000
  N   N15       1.0  0.45691  0.88157  0.40378999999999987  1.0000
  N   N16       1.0  0.46662999999999977  0.8448799999999997  0.3807399999999999  1.0000
  N   N17       1.0  0.039800000000000016  0.4685  0.58398  1.0000
  N   N18       1.0  0.046029999999999904  0.48277999999999993  0.5492099999999999  1.0000
  N   N19       1.0  0.08839000000000001  0.48107  0.54711  1.0000
  N   N20       1.0  0.10974  0.4656  0.57957  1.0000
  N   N21       1.0  0.1169  0.03199  0.07429  1.0000
  N   N22       1.0  0.06783999999999997  0.018329999999999996  0.06637999999999998  1.0000
  N   N23       1.0  0.06768  0.01916  0.11035  1.0000
  N   N24       1.0  0.11557999999999999  0.03288999999999999  0.14652999999999997  1.0000
  N   N25       1.0  0.45987  0.04611000000000001  0.42806  1.0000
  N   N26       1.0  0.4539599999999999  0.004609999999999956  0.43531999999999993  1.0000
  N   N27       1.0  0.41174999999999995  0.95983  0.39047  1.0000
  N   N28       1.0  0.39002  0.97117  0.35396  1.0000
  N   N29       1.0  0.3792599999999998  0.4618599999999999  0.9113399999999998  1.0000
  N   N30       1.0  0.4287299999999998  0.5023899999999998  0.9465999999999998  1.0000
  N   N31       1.0  0.43056999999999984  0.5473299999999999  0.9480899999999999  1.0000
  N   N32       1.0  0.38281999999999977  0.5366  0.91421  1.0000
  N   N33       1.0  0.42666  0.9597599999999998  0.54227  1.0000
  N   N34       1.0  0.4340399999999998  0.9536699999999999  0.50142  1.0000
  N   N35       1.0  0.3897299999999999  0.90979  0.4573  1.0000
  N   N36       1.0  0.35351999999999995  0.8869599999999997  0.46859  1.0000
  N   N37       1.0  0.91785  0.8835699999999997  0.95645  1.0000
  N   N38       1.0  0.9516299999999996  0.9324199999999999  0.9979199999999999  1.0000
  N   N39       1.0  0.9506699999999998  0.9311399999999999  0.04098  1.0000
  N   N40       1.0  0.9171  0.8823499999999997  0.028269999999999993  1.0000
  N   N41       1.0  0.5893199999999998  0.54926  0.96808  1.0000
  N   N42       1.0  0.55504  0.55508  0.98221  1.0000
  N   N43       1.0  0.5540699999999997  0.59823  0.98112  1.0000
  N   N44       1.0  0.5872599999999997  0.62061  0.9663599999999998  1.0000
  N   N45       1.0  0.07551999999999998  0.61734  0.53448  1.0000
  N   N46       1.0  0.06655  0.56824  0.52  1.0000
  N   N47       1.0  0.10969000000000001  0.56742  0.51904  1.0000
  N   N48       1.0  0.1464999999999999  0.6149699999999998  0.53238  1.0000
  N   N49       1.0  0.9682399999999998  0.88374  0.43043  1.0000
  N   N50       1.0  0.9808599999999997  0.93207  0.4368599999999999  1.0000
  N   N51       1.0  0.9772799999999999  0.9319599999999998  0.39209  1.0000
  N   N52       1.0  0.9623599999999999  0.88447  0.35642999999999997  1.0000
  N   N53       1.0  0.5330299999999998  0.9501  0.90926  1.0000
  N   N54       1.0  0.5198899999999995  0.9453999999999999  0.9446599999999998  1.0000
  N   N55       1.0  0.52018  0.9025  0.94727  1.0000
  N   N56       1.0  0.5333299999999997  0.87922  0.9140999999999998  1.0000
  N   N57       1.0  0.5460099999999999  0.6178899999999998  0.58444  1.0000
  N   N58       1.0  0.5041  0.56888  0.54922  1.0000
  N   N59       1.0  0.45934999999999987  0.56808  0.54693  1.0000
  N   N60       1.0  0.47109999999999996  0.61526  0.57996  1.0000
  N   N61       1.0  0.9588099999999996  0.55218  0.08685  1.0000
  N   N62       1.0  0.9985899999999998  0.5557799999999999  0.07809999999999999  1.0000
  N   N63       1.0  0.045120000000000014  0.59793  0.12177999999999997  1.0000
  N   N64       1.0  0.03640999999999995  0.62197  0.15894999999999995  1.0000
  N   N65       1.0  0.45778999999999986  0.4163  0.53273  1.0000
  N   N66       1.0  0.4517900000000001  0.45133  0.51871  1.0000
  N   N67       1.0  0.40861  0.45221  0.51978  1.0000
  N   N68       1.0  0.3865199999999999  0.41854  0.53423  1.0000
  N   N69       1.0  0.38063  0.91781  0.96823  1.0000
  N   N70       1.0  0.42932  0.92601  0.98097  1.0000
  N   N71       1.0  0.42975999999999986  0.88191  0.9795299999999998  1.0000
  N   N72       1.0  0.3817699999999998  0.8449  0.96594  1.0000
  N   N73       1.0  0.040799999999999975  0.57207  0.9574599999999999  1.0000
  N   N74       1.0  0.047169999999999955  0.56402  0.99838  1.0000
  N   N75       1.0  0.08988  0.60851  0.04311999999999999  1.0000
  N   N76       1.0  0.11146999999999997  0.64573  0.03226  1.0000
  N   N77       1.0  0.11671999999999995  0.08361999999999993  0.5423899999999999  1.0000
  N   N78       1.0  0.06715999999999991  0.04866999999999997  0.5013599999999999  1.0000
  N   N79       1.0  0.06593999999999997  0.04868999999999999  0.45729  1.0000
  N   N80       1.0  0.11382999999999993  0.08323999999999995  0.4688599999999999  1.0000
  N   N81       1.0  0.07329999999999996  0.45495999999999986  0.03811  1.0000
  N   N82       1.0  0.06534999999999995  0.4956899999999999  0.045189999999999994  1.0000
  N   N83       1.0  0.10871999999999994  0.53945  0.09018  1.0000
  N   N84       1.0  0.14479999999999996  0.52815  0.11271999999999997  1.0000
  N   N85       1.0  0.5861099999999998  0.03894000000000001  0.11839  1.0000
  N   N86       1.0  0.5530499999999999  0.9986699999999998  0.06944  1.0000
  N   N87       1.0  0.5520099999999998  0.95438  0.06903  1.0000
  N   N88       1.0  0.5840199999999999  0.96525  0.11729999999999999  1.0000
  N   N89       1.0  0.90854  0.033779999999999935  0.4514999999999999  1.0000
  N   N90       1.0  0.9422399999999997  0.01914  0.44504  1.0000
  N   N91       1.0  0.9431  0.02025999999999996  0.40200999999999987  1.0000
  N   N92       1.0  0.9104999999999998  0.03554  0.38019  1.0000
  N   N93       1.0  0.42604999999999976  0.4669199999999998  0.38282999999999995  1.0000
  N   N94       1.0  0.43318999999999974  0.47967  0.4309999999999999  1.0000
  N   N95       1.0  0.38875  0.4784999999999999  0.43026  1.0000
  N   N96       1.0  0.3528699999999999  0.4652  0.38272  1.0000
  N   N97       1.0  0.46660999999999986  0.42016999999999993  0.88041  1.0000
  N   N98       1.0  0.47983999999999977  0.42802999999999986  0.9287799999999998  1.0000
  N   N99       1.0  0.47826  0.38416  0.93016  1.0000
  N   N100      1.0  0.4641299999999999  0.34768999999999994  0.88323  1.0000
  N   N101      1.0  0.03481999999999987  0.9171699999999999  0.9618599999999998  1.0000
  N   N102      1.0  0.021129999999999927  0.95169  0.9547499999999999  1.0000
  N   N103      1.0  0.021839999999999776  0.9526399999999997  0.9115799999999997  1.0000
  N   N104      1.0  0.035910000000000074  0.91957  0.89059  1.0000
  N   N105      1.0  0.040329999999999984  0.5937199999999999  0.62774  1.0000
  N   N106      1.0  0.00042999999999994686  0.5578099999999998  0.57876  1.0000
  N   N107      1.0  0.95431  0.55389  0.5758099999999999  1.0000
  N   N108      1.0  0.9634499999999998  0.5866199999999999  0.6220499999999999  1.0000
  N   N109      1.0  0.45701  0.08290999999999997  0.548  1.0000
  N   N110      1.0  0.4973399999999999  0.07474999999999998  0.55324  1.0000
  N   N111      1.0  0.54308  0.11844  0.59622  1.0000
  N   N112      1.0  0.5333699999999998  0.15513  0.61927  1.0000
  N   N113      1.0  0.9602099999999999  0.53149  0.4160099999999999  1.0000
  N   N114      1.0  0.9539999999999998  0.51721  0.45078  1.0000
  N   N115      1.0  0.9116499999999995  0.51893  0.4529  1.0000
  N   N116      1.0  0.8902899999999998  0.5344  0.42044  1.0000
  N   N117      1.0  0.88308  0.9680199999999999  0.92574  1.0000
  N   N118      1.0  0.9321499999999998  0.9816899999999998  0.9336499999999998  1.0000
  N   N119      1.0  0.9323099999999994  0.9808499999999997  0.8896799999999998  1.0000
  N   N120      1.0  0.88441  0.96711  0.8534999999999999  1.0000
  N   N121      1.0  0.5401199999999997  0.9539099999999999  0.5719499999999998  1.0000
  N   N122      1.0  0.54602  0.9954  0.5647  1.0000
  N   N123      1.0  0.5882499999999997  0.040179999999999945  0.6095499999999999  1.0000
  N   N124      1.0  0.60998  0.02885000000000003  0.64605  1.0000
  N   N125      1.0  0.62071  0.53811  0.08865  1.0000
  N   N126      1.0  0.5712399999999997  0.49758  0.05339  1.0000
  N   N127      1.0  0.56941  0.4526399999999999  0.0519  1.0000
  N   N128      1.0  0.61716  0.46337  0.08579  1.0000
  N   N129      1.0  0.57333  0.04025999999999997  0.4577399999999999  1.0000
  N   N130      1.0  0.5659499999999998  0.04635999999999993  0.49858999999999987  1.0000
  N   N131      1.0  0.6102699999999999  0.09022999999999994  0.5427099999999999  1.0000
  N   N132      1.0  0.6464799999999999  0.11304999999999994  0.5314199999999999  1.0000
  N   N133      1.0  0.08213999999999999  0.11644999999999998  0.04358999999999998  1.0000
  N   N134      1.0  0.048359999999999986  0.06759  0.00212  1.0000
  N   N135      1.0  0.04931999999999992  0.06887000000000004  0.95905  1.0000
  N   N136      1.0  0.08286999999999994  0.11764999999999999  0.97175  1.0000
  N   N137      1.0  0.4106599999999999  0.45071  0.031909999999999994  1.0000
  N   N138      1.0  0.44492999999999977  0.44488  0.017769999999999998  1.0000
  N   N139      1.0  0.4458999999999999  0.40174  0.01887  1.0000
  N   N140      1.0  0.41270999999999997  0.37935999999999986  0.03364  1.0000
  N   N141      1.0  0.9244999999999999  0.3826399999999998  0.46550999999999987  1.0000
  N   N142      1.0  0.9334699999999998  0.43173999999999996  0.4799899999999999  1.0000
  N   N143      1.0  0.8903399999999999  0.43256999999999995  0.48095999999999994  1.0000
  N   N144      1.0  0.8535199999999998  0.3850299999999999  0.46762  1.0000
  N   N145      1.0  0.03177999999999995  0.11625  0.5695899999999999  1.0000
  N   N146      1.0  0.01915999999999991  0.06791999999999988  0.5631699999999998  1.0000
  N   N147      1.0  0.022729999999999983  0.06803  0.60793  1.0000
  N   N148      1.0  0.03762999999999992  0.11551999999999991  0.6435899999999999  1.0000
  N   N149      1.0  0.4669699999999999  0.04987  0.09075  1.0000
  N   N150      1.0  0.4801199999999999  0.054579999999999976  0.055349999999999996  1.0000
  N   N151      1.0  0.47981999999999986  0.09746999999999999  0.05273999999999999  1.0000
  N   N152      1.0  0.46666999999999986  0.12074999999999998  0.0859  1.0000
  N   N153      1.0  0.4539699999999999  0.3821  0.41553  1.0000
  N   N154      1.0  0.4958699999999998  0.43110999999999994  0.45074999999999993  1.0000
  N   N155      1.0  0.54063  0.43191999999999997  0.45305  1.0000
  N   N156      1.0  0.5288799999999999  0.3847399999999999  0.4200299999999999  1.0000
  N   N157      1.0  0.04118999999999988  0.4478199999999998  0.9131599999999997  1.0000
  N   N158      1.0  0.0014099999999998838  0.44424  0.9219099999999998  1.0000
  N   N159      1.0  0.9548799999999998  0.40208999999999995  0.87823  1.0000
  N   N160      1.0  0.9635799999999999  0.37803999999999993  0.8410599999999999  1.0000
  N   N161      1.0  0.54219  0.5837  0.4672499999999999  1.0000
  N   N162      1.0  0.5481799999999997  0.5486599999999998  0.4812599999999999  1.0000
  N   N163      1.0  0.5913699999999997  0.54779  0.48019999999999996  1.0000
  N   N164      1.0  0.61347  0.5814799999999999  0.46577  1.0000
  N   N165      1.0  0.61938  0.08217999999999999  0.03176999999999999  1.0000
  N   N166      1.0  0.57069  0.07397  0.01903  1.0000
  N   N167      1.0  0.5702499999999998  0.11807  0.02048  1.0000
  N   N168      1.0  0.61823  0.15509  0.03406  1.0000
  N   N169      1.0  0.9591899999999998  0.42797  0.04257  1.0000
  N   N170      1.0  0.9528299999999998  0.4360199999999999  0.0016499999999999996  1.0000
  N   N171      1.0  0.9101199999999998  0.39153  0.9569  1.0000
  N   N172      1.0  0.8885399999999999  0.3543099999999998  0.9677699999999998  1.0000
  N   N173      1.0  0.8832999999999999  0.9163799999999999  0.45763  1.0000
  N   N174      1.0  0.93286  0.95133  0.49867  1.0000
  N   N175      1.0  0.93407  0.9513  0.54274  1.0000
  N   N176      1.0  0.8861599999999997  0.91676  0.53115  1.0000
  N   N177      1.0  0.9266999999999997  0.54507  0.96191  1.0000
  N   N178      1.0  0.9346499999999995  0.5043399999999998  0.9548399999999998  1.0000
  N   N179      1.0  0.8912899999999998  0.4605799999999999  0.9098499999999998  1.0000
  N   N180      1.0  0.8551999999999997  0.47187  0.8873  1.0000
  N   N181      1.0  0.4139  0.9610399999999999  0.8816099999999999  1.0000
  N   N182      1.0  0.44695999999999986  0.0013099999999998722  0.9305699999999998  1.0000
  N   N183      1.0  0.44798999999999994  0.04560999999999987  0.9309799999999998  1.0000
  N   N184      1.0  0.4159799999999999  0.03473000000000003  0.88271  1.0000
  N   N185      1.0  0.09146999999999988  0.96622  0.54852  1.0000
  N   N186      1.0  0.057770000000000044  0.98087  0.55499  1.0000
  N   N187      1.0  0.056899999999999964  0.9797399999999999  0.59801  1.0000
  N   N188      1.0  0.08949999999999989  0.9644599999999998  0.6198299999999999  1.0000
  N   N189      1.0  0.57393  0.5330899999999998  0.6171599999999999  1.0000
  N   N190      1.0  0.56679  0.52033  0.56899  1.0000
  N   N191      1.0  0.6112299999999999  0.5214899999999998  0.5697299999999998  1.0000
  N   N192      1.0  0.6471099999999999  0.5348099999999999  0.6172699999999999  1.0000
