data_image0
_chemical_formula_structural       Zn72H160C192O272
_chemical_formula_sum              "Zn72 H160 C192 O272"
_cell_length_a       21.07122
_cell_length_b       21.3441
_cell_length_c       21.20962
_cell_angle_alpha    89.90315
_cell_angle_beta     89.93201
_cell_angle_gamma    89.96689

_symmetry_space_group_name_H-M    'P 1'
_symmetry_Int_Tables_number       1

loop_
  _symmetry_equiv_pos_as_xyz
  'x,y,z'

loop_
  _atom_site_type_symbol
  _atom_site_label
  _atom_site_symmetry_multiplicity
  _atom_site_fract_x
  _atom_site_fract_y
  _atom_site_fract_z
  _atom_site_occupancy
  Zn  Zn1       1.0  0.59302  0.8596699999999999  0.8399500000000001  1.0000
  Zn  Zn2       1.0  0.46144  0.76952  0.9893100000000002  1.0000
  Zn  Zn3       1.0  0.84452  0.86327  0.96802  1.0000
  Zn  Zn4       1.0  0.8419200000000001  0.59349  0.8601500000000002  1.0000
  Zn  Zn5       1.0  0.98976  0.4620699999999999  0.76865  1.0000
  Zn  Zn6       1.0  0.98907  0.83975  0.8695000000000002  1.0000
  Zn  Zn7       1.0  0.8599100000000001  0.8396699999999999  0.5932  1.0000
  Zn  Zn8       1.0  0.7693200000000001  0.98919  0.46267  1.0000
  Zn  Zn9       1.0  0.87113  0.96306  0.84423  1.0000
  Zn  Zn10      1.0  0.9074400000000001  0.14164  0.34014  1.0000
  Zn  Zn11      1.0  0.03858000000000001  0.23004  0.48836000000000007  1.0000
  Zn  Zn12      1.0  0.65447  0.13494  0.4694  1.0000
  Zn  Zn13      1.0  0.6582000000000001  0.4059  0.36219  1.0000
  Zn  Zn14      1.0  0.51291  0.53876  0.26844  1.0000
  Zn  Zn15      1.0  0.50909  0.16098  0.36816  1.0000
  Zn  Zn16      1.0  0.6393500000000001  0.15994  0.09242000000000002  1.0000
  Zn  Zn17      1.0  0.7305  0.011139999999999999  0.96372  1.0000
  Zn  Zn18      1.0  0.63019  0.0376  0.3437  1.0000
  Zn  Zn19      1.0  0.40667  0.36019  0.6599400000000001  1.0000
  Zn  Zn20      1.0  0.53998  0.26623  0.51207  1.0000
  Zn  Zn21      1.0  0.15550000000000003  0.36332  0.53059  1.0000
  Zn  Zn22      1.0  0.15783  0.09231  0.63854  1.0000
  Zn  Zn23      1.0  0.01098  0.96407  0.73064  1.0000
  Zn  Zn24      1.0  0.00953  0.3375699999999999  0.6306700000000001  1.0000
  Zn  Zn25      1.0  0.14111  0.33894  0.9075100000000001  1.0000
  Zn  Zn26      1.0  0.22967000000000004  0.48728  0.03682  1.0000
  Zn  Zn27      1.0  0.12849000000000002  0.46057  0.65524  1.0000
  Zn  Zn28      1.0  0.0919  0.64019  0.15989  1.0000
  Zn  Zn29      1.0  0.9618000000000001  0.73182  0.01066  1.0000
  Zn  Zn30      1.0  0.34455  0.63621  0.03188  1.0000
  Zn  Zn31      1.0  0.34129  0.9071699999999999  0.141  1.0000
  Zn  Zn32      1.0  0.48791000000000007  0.03635  0.2305  1.0000
  Zn  Zn33      1.0  0.49119  0.6621  0.12871  1.0000
  Zn  Zn34      1.0  0.36127  0.66035  0.40656000000000003  1.0000
  Zn  Zn35      1.0  0.26834  0.513  0.53815  1.0000
  Zn  Zn36      1.0  0.36911  0.53799  0.15437  1.0000
  Zn  Zn37      1.0  0.4070500000000001  0.14039  0.1602  1.0000
  Zn  Zn38      1.0  0.53842  0.23023999999999997  0.010680000000000002  1.0000
  Zn  Zn39      1.0  0.15593  0.13661  0.0319  1.0000
  Zn  Zn40      1.0  0.15828  0.40657  0.13984  1.0000
  Zn  Zn41      1.0  0.01021  0.53792  0.23135  1.0000
  Zn  Zn42      1.0  0.00978  0.16009  0.13056  1.0000
  Zn  Zn43      1.0  0.14005  0.16038  0.40685  1.0000
  Zn  Zn44      1.0  0.2301  0.010989999999999996  0.53733  1.0000
  Zn  Zn45      1.0  0.12915  0.0371  0.15592  1.0000
  Zn  Zn46      1.0  0.09248  0.85838  0.6599400000000001  1.0000
  Zn  Zn47      1.0  0.96144  0.7701399999999999  0.51149  1.0000
  Zn  Zn48      1.0  0.34464  0.8656999999999999  0.53029  1.0000
  Zn  Zn49      1.0  0.34183  0.59401  0.63794  1.0000
  Zn  Zn50      1.0  0.4874  0.46106  0.73192  1.0000
  Zn  Zn51      1.0  0.4888600000000001  0.83972  0.63209  1.0000
  Zn  Zn52      1.0  0.36067  0.8402599999999999  0.9076200000000001  1.0000
  Zn  Zn53      1.0  0.26944  0.98879  0.03633  1.0000
  Zn  Zn54      1.0  0.36957000000000007  0.96345  0.6560900000000001  1.0000
  Zn  Zn55      1.0  0.59347  0.63985  0.33997  1.0000
  Zn  Zn56      1.0  0.46006  0.73401  0.48797  1.0000
  Zn  Zn57      1.0  0.8443700000000001  0.63654  0.46970000000000006  1.0000
  Zn  Zn58      1.0  0.84233  0.90774  0.36154  1.0000
  Zn  Zn59      1.0  0.9889500000000001  0.0359  0.2695  1.0000
  Zn  Zn60      1.0  0.99093  0.66248  0.36939  1.0000
  Zn  Zn61      1.0  0.85884  0.6611  0.09252000000000002  1.0000
  Zn  Zn62      1.0  0.7703200000000001  0.51278  0.96318  1.0000
  Zn  Zn63      1.0  0.87154  0.53908  0.34479  1.0000
  Zn  Zn64      1.0  0.9080600000000001  0.35993  0.84018  1.0000
  Zn  Zn65      1.0  0.03812  0.26826  0.9894100000000001  1.0000
  Zn  Zn66      1.0  0.6549700000000002  0.36383  0.96784  1.0000
  Zn  Zn67      1.0  0.65866  0.09282999999999997  0.85901  1.0000
  Zn  Zn68      1.0  0.51205  0.9637699999999999  0.76977  1.0000
  Zn  Zn69      1.0  0.50785  0.33773  0.87138  1.0000
  Zn  Zn70      1.0  0.63876  0.33953  0.59346  1.0000
  Zn  Zn71      1.0  0.73165  0.487  0.46182  1.0000
  Zn  Zn72      1.0  0.63079  0.46174  0.84577  1.0000
  H   H1        1.0  0.61504  0.69626  0.87571  1.0000
  H   H2        1.0  0.65365  0.6857999999999999  0.99813  1.0000
  H   H3        1.0  0.68602  0.79162  0.006100000000000001  1.0000
  H   H4        1.0  0.7591  0.78871  0.8832800000000001  1.0000
  H   H5        1.0  0.96318  0.44378  0.65306  1.0000
  H   H6        1.0  0.011340000000000001  0.49768  0.62751  1.0000
  H   H7        1.0  0.19358  0.36804999999999993  0.64495  1.0000
  H   H8        1.0  0.87524  0.61553  0.6959  1.0000
  H   H9        1.0  0.99789  0.65416  0.68684  1.0000
  H   H10       1.0  0.0045899999999999995  0.6875  0.79258  1.0000
  H   H11       1.0  0.88195  0.7603299999999998  0.78772  1.0000
  H   H12       1.0  0.65274  0.95836  0.43968  1.0000
  H   H13       1.0  0.6229400000000002  0.01599  0.48308000000000006  1.0000
  H   H14       1.0  0.63607  0.18019  0.36473  1.0000
  H   H15       1.0  0.69626  0.87545  0.61585  1.0000
  H   H16       1.0  0.68721  0.99752  0.65462  1.0000
  H   H17       1.0  0.79295  0.005100000000000001  0.68717  1.0000
  H   H18       1.0  0.79186  0.8819899999999999  0.7593000000000001  1.0000
  H   H19       1.0  0.44370000000000004  0.6501  0.9559900000000001  1.0000
  H   H20       1.0  0.48466  0.6265  0.01955  1.0000
  H   H21       1.0  0.88449  0.3043  0.37546000000000007  1.0000
  H   H22       1.0  0.8463600000000001  0.31318  0.49844  1.0000
  H   H23       1.0  0.81312  0.20797999999999997  0.5066  1.0000
  H   H24       1.0  0.74017  0.21096  0.38380000000000003  1.0000
  H   H25       1.0  0.53699  0.55623  0.15126  1.0000
  H   H26       1.0  0.48852  0.50285  0.12692000000000003  1.0000
  H   H27       1.0  0.30585  0.63173  0.14503  1.0000
  H   H28       1.0  0.6253  0.38366999999999996  0.19611  1.0000
  H   H29       1.0  0.50197  0.34618  0.18687  1.0000
  H   H30       1.0  0.49424  0.31225  0.29225  1.0000
  H   H31       1.0  0.61687  0.23931999999999998  0.28835  1.0000
  H   H32       1.0  0.8477  0.04202999999999999  0.9388700000000001  1.0000
  H   H33       1.0  0.87707  0.98364  0.98268  1.0000
  H   H34       1.0  0.86543  0.81909  0.86457  1.0000
  H   H35       1.0  0.80442  0.12448999999999999  0.11607000000000003  1.0000
  H   H36       1.0  0.8134300000000001  0.0021200000000000004  0.15531  1.0000
  H   H37       1.0  0.70757  0.99467  0.18821  1.0000
  H   H38       1.0  0.70761  0.11808999999999999  0.25888  1.0000
  H   H39       1.0  0.05705  0.35009  0.45536  1.0000
  H   H40       1.0  0.01857  0.37407999999999997  0.52094  1.0000
  H   H41       1.0  0.38444  0.19623999999999997  0.62525  1.0000
  H   H42       1.0  0.34678  0.18635  0.50217  1.0000
  H   H43       1.0  0.31362  0.29151  0.49313000000000007  1.0000
  H   H44       1.0  0.24023000000000003  0.28902  0.6159  1.0000
  H   H45       1.0  0.03873  0.94444  0.84816  1.0000
  H   H46       1.0  0.98794  0.99671  0.87311  1.0000
  H   H47       1.0  0.80782  0.86859  0.8542100000000001  1.0000
  H   H48       1.0  0.12469  0.11638  0.80415  1.0000
  H   H49       1.0  0.00199  0.15474  0.8135400000000002  1.0000
  H   H50       1.0  0.99461  0.18854  0.7079900000000001  1.0000
  H   H51       1.0  0.11749  0.2601  0.7105800000000001  1.0000
  H   H52       1.0  0.34771  0.45724999999999993  0.061630000000000004  1.0000
  H   H53       1.0  0.37779  0.51732  0.01932  1.0000
  H   H54       1.0  0.36522  0.67934  0.13532  1.0000
  H   H55       1.0  0.30455  0.3755  0.88389  1.0000
  H   H56       1.0  0.31184000000000006  0.49805999999999995  0.8452300000000001  1.0000
  H   H57       1.0  0.20686000000000002  0.5056  0.81143  1.0000
  H   H58       1.0  0.20746  0.38207  0.74079  1.0000
  H   H59       1.0  0.55611  0.14974  0.54448  1.0000
  H   H60       1.0  0.51614  0.1272  0.47982  1.0000
  H   H61       1.0  0.11545000000000001  0.8036799999999998  0.12446000000000002  1.0000
  H   H62       1.0  0.15404  0.81405  0.0015500000000000002  1.0000
  H   H63       1.0  0.18705  0.70857  0.9936  1.0000
  H   H64       1.0  0.25923  0.71063  0.11647  1.0000
  H   H65       1.0  0.46171  0.0555  0.34734  1.0000
  H   H66       1.0  0.51222  0.0033099999999999996  0.37323  1.0000
  H   H67       1.0  0.69373  0.13161  0.35383  1.0000
  H   H68       1.0  0.37593  0.88398  0.3045300000000001  1.0000
  H   H69       1.0  0.49876  0.8456200000000001  0.31278  1.0000
  H   H70       1.0  0.50552  0.81156  0.2074  1.0000
  H   H71       1.0  0.3826  0.73897  0.21142  1.0000
  H   H72       1.0  0.15125  0.5414  0.56105  1.0000
  H   H73       1.0  0.12293000000000001  0.4834399999999999  0.51753  1.0000
  H   H74       1.0  0.13396  0.32067  0.63518  1.0000
  H   H75       1.0  0.19567000000000004  0.62507  0.3839100000000001  1.0000
  H   H76       1.0  0.18722000000000003  0.50256  0.34565  1.0000
  H   H77       1.0  0.29269  0.4944  0.31237  1.0000
  H   H78       1.0  0.29157  0.61778  0.24041  1.0000
  H   H79       1.0  0.94225  0.8493399999999999  0.04449000000000001  1.0000
  H   H80       1.0  0.9821  0.8741099999999999  0.98019  1.0000
  H   H81       1.0  0.38497000000000003  0.30378  0.12430000000000002  1.0000
  H   H82       1.0  0.34636  0.31418  0.00186  1.0000
  H   H83       1.0  0.31396  0.20837  0.99393  1.0000
  H   H84       1.0  0.24091  0.21132  0.11673  1.0000
  H   H85       1.0  0.03654  0.55616  0.34692  1.0000
  H   H86       1.0  0.9888400000000002  0.50202  0.37235  1.0000
  H   H87       1.0  0.8063400000000001  0.63219  0.355  1.0000
  H   H88       1.0  0.12473  0.38447999999999993  0.3040800000000001  1.0000
  H   H89       1.0  0.00209  0.34586  0.31307  1.0000
  H   H90       1.0  0.99544  0.31246  0.20735  1.0000
  H   H91       1.0  0.11809000000000001  0.23969999999999997  0.21227  1.0000
  H   H92       1.0  0.34779  0.04214  0.5604200000000001  1.0000
  H   H93       1.0  0.37699000000000005  0.9833899999999999  0.5175  1.0000
  H   H94       1.0  0.36322  0.8190999999999999  0.63476  1.0000
  H   H95       1.0  0.30373  0.12459999999999999  0.38415  1.0000
  H   H96       1.0  0.31276000000000004  0.00244  0.34548  1.0000
  H   H97       1.0  0.20703  0.9948799999999999  0.31287  1.0000
  H   H98       1.0  0.20811  0.11799  0.24069000000000002  1.0000
  H   H99       1.0  0.55637  0.35001  0.04455  1.0000
  H   H100      1.0  0.51579  0.37337  0.97995  1.0000
  H   H101      1.0  0.11551  0.69566  0.62451  1.0000
  H   H102      1.0  0.15364  0.68683  0.50151  1.0000
  H   H103      1.0  0.18689  0.79204  0.49339  1.0000
  H   H104      1.0  0.25974  0.7891399999999998  0.61627  1.0000
  H   H105      1.0  0.4632  0.44402  0.84873  1.0000
  H   H106      1.0  0.51146  0.49758  0.87234  1.0000
  H   H107      1.0  0.69415  0.36832  0.85489  1.0000
  H   H108      1.0  0.37471  0.61632  0.80389  1.0000
  H   H109      1.0  0.49802  0.65378  0.81311  1.0000
  H   H110      1.0  0.5057900000000001  0.68772  0.70777  1.0000
  H   H111      1.0  0.38309  0.7606899999999999  0.71167  1.0000
  H   H112      1.0  0.15225  0.95791  0.061070000000000006  1.0000
  H   H113      1.0  0.12298  0.01636  0.017260000000000005  1.0000
  H   H114      1.0  0.13512  0.1812  0.13570000000000002  1.0000
  H   H115      1.0  0.19566  0.87549  0.88392  1.0000
  H   H116      1.0  0.18654  0.9978999999999999  0.84472  1.0000
  H   H117      1.0  0.29241  0.00538  0.8117400000000001  1.0000
  H   H118      1.0  0.29224  0.88195  0.74106  1.0000
  H   H119      1.0  0.943  0.64985  0.54479  1.0000
  H   H120      1.0  0.98113  0.626  0.47887  1.0000
  H   H121      1.0  0.61558  0.8037199999999999  0.37475  1.0000
  H   H122      1.0  0.65326  0.8136799999999998  0.49777  1.0000
  H   H123      1.0  0.68639  0.70848  0.50691  1.0000
  H   H124      1.0  0.7597700000000001  0.71109  0.38409000000000004  1.0000
  H   H125      1.0  0.96078  0.05567999999999999  0.15198  1.0000
  H   H126      1.0  0.0124  0.00407  0.1268  1.0000
  H   H127      1.0  0.19211  0.13107  0.14552  1.0000
  H   H128      1.0  0.8753000000000001  0.88362  0.19578  1.0000
  H   H129      1.0  0.99799  0.84524  0.18648000000000003  1.0000
  H   H130      1.0  0.005360000000000002  0.81146  0.29202000000000006  1.0000
  H   H131      1.0  0.8825  0.73987  0.28942000000000007  1.0000
  H   H132      1.0  0.65242  0.54282  0.9385  1.0000
  H   H133      1.0  0.62251  0.48273999999999995  0.9809500000000001  1.0000
  H   H134      1.0  0.63458  0.3208  0.86449  1.0000
  H   H135      1.0  0.69542  0.62444  0.11611  1.0000
  H   H136      1.0  0.68816  0.5019  0.15476  1.0000
  H   H137      1.0  0.7932000000000001  0.49438999999999994  0.18856  1.0000
  H   H138      1.0  0.7924500000000001  0.61794  0.2592  1.0000
  H   H139      1.0  0.44409  0.8502499999999998  0.45620000000000005  1.0000
  H   H140      1.0  0.48505  0.87277  0.51926  1.0000
  H   H141      1.0  0.8845100000000001  0.19636999999999996  0.8755300000000001  1.0000
  H   H142      1.0  0.8459800000000001  0.1859  0.99845  1.0000
  H   H143      1.0  0.81295  0.2914  0.00642  1.0000
  H   H144      1.0  0.74077  0.28931  0.8835400000000001  1.0000
  H   H145      1.0  0.53864  0.9442999999999999  0.6527400000000001  1.0000
  H   H146      1.0  0.4875800000000001  0.99588  0.62646  1.0000
  H   H147      1.0  0.30616  0.8682599999999999  0.6461300000000001  1.0000
  H   H148      1.0  0.62407  0.11606  0.69548  1.0000
  H   H149      1.0  0.50123  0.15436  0.68722  1.0000
  H   H150      1.0  0.49447  0.18845  0.79258  1.0000
  H   H151      1.0  0.6174600000000001  0.26097  0.78857  1.0000
  H   H152      1.0  0.84872  0.45856  0.4388800000000001  1.0000
  H   H153      1.0  0.8769600000000001  0.51654  0.4824400000000001  1.0000
  H   H154      1.0  0.8661400000000001  0.67925  0.36485000000000006  1.0000
  H   H155      1.0  0.80426  0.37483  0.61612  1.0000
  H   H156      1.0  0.8128200000000001  0.49748  0.65431  1.0000
  H   H157      1.0  0.70733  0.50561  0.68769  1.0000
  H   H158      1.0  0.7085  0.38231  0.75963  1.0000
  H   H159      1.0  0.05776  0.15072  0.9558000000000001  1.0000
  H   H160      1.0  0.01713  0.12601  0.01927  1.0000
  C   C1        1.0  0.63063  0.73118  0.90987  1.0000
  C   C2        1.0  0.57182  0.75817  0.9389  1.0000
  C   C3        1.0  0.67846  0.70467  0.95663  1.0000
  C   C4        1.0  0.71699  0.65264  0.9244100000000001  1.0000
  C   C5        1.0  0.71604  0.7648800000000001  0.9733100000000001  1.0000
  C   C6        1.0  0.7776000000000001  0.75159  0.00816  1.0000
  C   C7        1.0  0.71708  0.8020599999999999  0.9107300000000002  1.0000
  C   C8        1.0  0.7102  0.8737  0.91918  1.0000
  C   C9        1.0  0.90904  0.63138  0.73138  1.0000
  C   C10       1.0  0.9380400000000001  0.57262  0.75832  1.0000
  C   C11       1.0  0.95586  0.67894  0.70497  1.0000
  C   C12       1.0  0.9235700000000001  0.71662  0.65222  1.0000
  C   C13       1.0  0.97169  0.71676  0.76524  1.0000
  C   C14       1.0  0.005220000000000001  0.77853  0.75259  1.0000
  C   C15       1.0  0.90834  0.71798  0.80139  1.0000
  C   C16       1.0  0.91628  0.71158  0.8727700000000003  1.0000
  C   C17       1.0  0.73177  0.90935  0.63126  1.0000
  C   C18       1.0  0.7586700000000001  0.93827  0.57221  1.0000
  C   C19       1.0  0.70575  0.9559999999999998  0.6791600000000001  1.0000
  C   C20       1.0  0.65223  0.9245299999999999  0.71675  1.0000
  C   C21       1.0  0.7669100000000001  0.9713599999999999  0.71671  1.0000
  C   C22       1.0  0.75553  0.00443  0.7789700000000002  1.0000
  C   C23       1.0  0.8038600000000001  0.90934  0.71707  1.0000
  C   C24       1.0  0.8749  0.91815  0.7108400000000001  1.0000
  C   C25       1.0  0.86897  0.26896  0.40940000000000004  1.0000
  C   C26       1.0  0.92762  0.24124  0.43834000000000006  1.0000
  C   C27       1.0  0.82163  0.29509  0.45673  1.0000
  C   C28       1.0  0.78355  0.34786  0.42496000000000006  1.0000
  C   C29       1.0  0.78426  0.23517  0.47316  1.0000
  C   C30       1.0  0.72247  0.24878  0.50753  1.0000
  C   C31       1.0  0.7827900000000001  0.19811  0.41054000000000007  1.0000
  C   C32       1.0  0.7909200000000001  0.12622  0.41945000000000005  1.0000
  C   C33       1.0  0.5909  0.36834  0.23159  1.0000
  C   C34       1.0  0.56219  0.42716999999999994  0.2590700000000001  1.0000
  C   C35       1.0  0.54363  0.32111  0.20535  1.0000
  C   C36       1.0  0.57513  0.28269  0.15277  1.0000
  C   C37       1.0  0.52755  0.28312  0.26547000000000004  1.0000
  C   C38       1.0  0.49394000000000005  0.22134  0.25144  1.0000
  C   C39       1.0  0.59084  0.28202  0.30209  1.0000
  C   C40       1.0  0.58308  0.2879  0.37389  1.0000
  C   C41       1.0  0.76899  0.09038  0.13144  1.0000
  C   C42       1.0  0.7415  0.06154  0.07274  1.0000
  C   C43       1.0  0.7947700000000001  0.04372  0.17960000000000004  1.0000
  C   C44       1.0  0.84725  0.07623  0.21706  1.0000
  C   C45       1.0  0.73397  0.02847  0.21703000000000003  1.0000
  C   C46       1.0  0.74678  0.99555  0.27949  1.0000
  C   C47       1.0  0.69686  0.09061  0.21676000000000004  1.0000
  C   C48       1.0  0.62508  0.08187  0.20944000000000002  1.0000
  C   C49       1.0  0.36895  0.23101999999999998  0.59047  1.0000
  C   C50       1.0  0.4279700000000001  0.25893  0.56169  1.0000
  C   C51       1.0  0.32133  0.20491  0.54337  1.0000
  C   C52       1.0  0.2827  0.15264  0.57515  1.0000
  C   C53       1.0  0.28407  0.26529  0.5267  1.0000
  C   C54       1.0  0.22217  0.25175  0.4927700000000001  1.0000
  C   C55       1.0  0.28296  0.30218  0.5892500000000002  1.0000
  C   C56       1.0  0.28978  0.37411999999999995  0.58048  1.0000
  C   C57       1.0  0.0908  0.13141  0.76833  1.0000
  C   C58       1.0  0.06223000000000001  0.07251  0.74137  1.0000
  C   C59       1.0  0.043910000000000005  0.17901  0.7947500000000001  1.0000
  C   C60       1.0  0.07667  0.21665  0.84702  1.0000
  C   C61       1.0  0.02802  0.21697  0.73508  1.0000
  C   C62       1.0  0.9949300000000001  0.27898  0.7487  1.0000
  C   C63       1.0  0.09117  0.21754  0.69785  1.0000
  C   C64       1.0  0.08332000000000002  0.2103  0.62615  1.0000
  C   C65       1.0  0.2686  0.40912  0.8683500000000002  1.0000
  C   C66       1.0  0.24167  0.4382499999999999  0.92694  1.0000
  C   C67       1.0  0.29419  0.45625  0.82055  1.0000
  C   C68       1.0  0.34772  0.42450999999999994  0.7833000000000001  1.0000
  C   C69       1.0  0.23333000000000004  0.47143  0.78287  1.0000
  C   C70       1.0  0.2449  0.50548  0.7205000000000001  1.0000
  C   C71       1.0  0.19616  0.40928  0.7831000000000001  1.0000
  C   C72       1.0  0.12438  0.41749  0.7897600000000001  1.0000
  C   C73       1.0  0.13072000000000003  0.76884  0.09001  1.0000
  C   C74       1.0  0.07203000000000001  0.74062  0.06104  1.0000
  C   C75       1.0  0.17865  0.79547  0.04323  1.0000
  C   C76       1.0  0.21637000000000003  0.84768  0.07609  1.0000
  C   C77       1.0  0.21602  0.73546  0.02687  1.0000
  C   C78       1.0  0.2781  0.7485200000000001  0.9928900000000002  1.0000
  C   C79       1.0  0.21681  0.69794  0.08944  1.0000
  C   C80       1.0  0.20874000000000004  0.62558  0.08081  1.0000
  C   C81       1.0  0.40936  0.8682899999999999  0.26847  1.0000
  C   C82       1.0  0.43782  0.92678  0.24049000000000004  1.0000
  C   C83       1.0  0.45672  0.82103  0.29473  1.0000
  C   C84       1.0  0.42491  0.7833399999999999  0.34769000000000005  1.0000
  C   C85       1.0  0.47235  0.78299  0.2351  1.0000
  C   C86       1.0  0.50624  0.7211  0.24801000000000004  1.0000
  C   C87       1.0  0.40872  0.78186  0.19881000000000004  1.0000
  C   C88       1.0  0.41628  0.7895099999999999  0.12729  1.0000
  C   C89       1.0  0.23108000000000004  0.59076  0.36852  1.0000
  C   C90       1.0  0.25805999999999996  0.56189  0.42765000000000003  1.0000
  C   C91       1.0  0.20563000000000003  0.54387  0.32063  1.0000
  C   C92       1.0  0.15301  0.57574  0.28234  1.0000
  C   C93       1.0  0.26664  0.52822  0.28297  1.0000
  C   C94       1.0  0.25396  0.49419  0.22084  1.0000
  C   C95       1.0  0.30322  0.5908399999999999  0.2829400000000001  1.0000
  C   C96       1.0  0.37442  0.58231  0.28836  1.0000
  C   C97       1.0  0.36938000000000004  0.26884  0.09016  1.0000
  C   C98       1.0  0.42816  0.2419  0.06112  1.0000
  C   C99       1.0  0.32155  0.29533  0.04338000000000001  1.0000
  C   C100      1.0  0.283  0.34734  0.07556  1.0000
  C   C101      1.0  0.28399  0.23512  0.026730000000000004  1.0000
  C   C102      1.0  0.22242  0.24837  0.9919000000000002  1.0000
  C   C103      1.0  0.28295  0.19794999999999996  0.08932  1.0000
  C   C104      1.0  0.28989  0.12634  0.08078000000000002  1.0000
  C   C105      1.0  0.09096  0.36860999999999994  0.26859  1.0000
  C   C106      1.0  0.061970000000000004  0.4273700000000001  0.24165  1.0000
  C   C107      1.0  0.04413  0.32107  0.29499  1.0000
  C   C108      1.0  0.07642  0.28338  0.34778  1.0000
  C   C109      1.0  0.028360000000000003  0.28323  0.23471000000000003  1.0000
  C   C110      1.0  0.9948000000000001  0.22146999999999997  0.2474  1.0000
  C   C111      1.0  0.0917  0.28201  0.19858000000000003  1.0000
  C   C112      1.0  0.08366  0.28829  0.12724  1.0000
  C   C113      1.0  0.26827  0.09064  0.36875  1.0000
  C   C114      1.0  0.24145  0.061709999999999994  0.42784  1.0000
  C   C115      1.0  0.29429  0.04396  0.32088  1.0000
  C   C116      1.0  0.34785  0.07539  0.28327  1.0000
  C   C117      1.0  0.23311000000000004  0.0286  0.28333  1.0000
  C   C118      1.0  0.24462  0.99551  0.22109000000000004  1.0000
  C   C119      1.0  0.19615  0.09063  0.28293  1.0000
  C   C120      1.0  0.12504  0.0819  0.28926  1.0000
  C   C121      1.0  0.131  0.73101  0.59056  1.0000
  C   C122      1.0  0.07231  0.75872  0.56165  1.0000
  C   C123      1.0  0.17838  0.7049  0.54323  1.0000
  C   C124      1.0  0.21654  0.65215  0.57502  1.0000
  C   C125      1.0  0.21576  0.76483  0.52681  1.0000
  C   C126      1.0  0.27767  0.7513799999999999  0.4927  1.0000
  C   C127      1.0  0.21716  0.80189  0.58946  1.0000
  C   C128      1.0  0.20892  0.87377  0.58049  1.0000
  C   C129      1.0  0.40912000000000004  0.63162  0.7684  1.0000
  C   C130      1.0  0.4378600000000001  0.57278  0.74093  1.0000
  C   C131      1.0  0.45637000000000005  0.67885  0.79463  1.0000
  C   C132      1.0  0.42491  0.7173499999999999  0.84718  1.0000
  C   C133      1.0  0.47247  0.71686  0.73452  1.0000
  C   C134      1.0  0.50612  0.77861  0.74845  1.0000
  C   C135      1.0  0.40914  0.71798  0.6979200000000001  1.0000
  C   C136      1.0  0.4169800000000001  0.71222  0.6262200000000001  1.0000
  C   C137      1.0  0.23103000000000004  0.9096399999999999  0.86854  1.0000
  C   C138      1.0  0.25849  0.9385  0.92725  1.0000
  C   C139      1.0  0.20519  0.95631  0.8204000000000001  1.0000
  C   C140      1.0  0.15267000000000003  0.92378  0.7829400000000001  1.0000
  C   C141      1.0  0.26601  0.97156  0.78295  1.0000
  C   C142      1.0  0.25315  0.004469999999999999  0.7205400000000001  1.0000
  C   C143      1.0  0.30311000000000005  0.90942  0.78316  1.0000
  C   C144      1.0  0.37483  0.91812  0.79037  1.0000
  C   C145      1.0  0.63107  0.7689299999999999  0.40951000000000004  1.0000
  C   C146      1.0  0.5720800000000001  0.7410499999999999  0.43833  1.0000
  C   C147      1.0  0.67868  0.79501  0.45662  1.0000
  C   C148      1.0  0.71749  0.8470999999999999  0.42478000000000005  1.0000
  C   C149      1.0  0.7159  0.73466  0.47329000000000004  1.0000
  C   C150      1.0  0.77783  0.7482099999999999  0.50714  1.0000
  C   C151      1.0  0.71706  0.6978  0.4107  1.0000
  C   C152      1.0  0.71029  0.62595  0.41953000000000007  1.0000
  C   C153      1.0  0.9091900000000002  0.86861  0.23163  1.0000
  C   C154      1.0  0.93777  0.92753  0.25853  1.0000
  C   C155      1.0  0.9560700000000001  0.8209799999999999  0.20528000000000002  1.0000
  C   C156      1.0  0.9233200000000001  0.78339  0.15301  1.0000
  C   C157      1.0  0.9719600000000002  0.7830099999999999  0.26493  1.0000
  C   C158      1.0  0.00505  0.72099  0.25127  1.0000
  C   C159      1.0  0.9088  0.78247  0.30216  1.0000
  C   C160      1.0  0.91666  0.78971  0.3739  1.0000
  C   C161      1.0  0.73139  0.5908399999999999  0.13163  1.0000
  C   C162      1.0  0.75834  0.56175  0.07301  1.0000
  C   C163      1.0  0.70584  0.54368  0.17943  1.0000
  C   C164      1.0  0.65239  0.57554  0.21672000000000002  1.0000
  C   C165      1.0  0.7667100000000001  0.52854  0.21711  1.0000
  C   C166      1.0  0.75506  0.49448999999999993  0.27948  1.0000
  C   C167      1.0  0.8038  0.59072  0.21692  1.0000
  C   C168      1.0  0.87555  0.58246  0.21023  1.0000
  C   C169      1.0  0.8692500000000001  0.23117  0.9100000000000001  1.0000
  C   C170      1.0  0.9279300000000001  0.25935  0.9389600000000002  1.0000
  C   C171      1.0  0.82133  0.2045  0.95679  1.0000
  C   C172      1.0  0.7836200000000001  0.1523  0.92393  1.0000
  C   C173      1.0  0.7839600000000001  0.26453  0.9731500000000001  1.0000
  C   C174      1.0  0.72189  0.25156  0.00721  1.0000
  C   C175      1.0  0.78314  0.30208  0.9105900000000002  1.0000
  C   C176      1.0  0.7911300000000001  0.37444999999999995  0.91927  1.0000
  C   C177      1.0  0.59064  0.13171  0.73153  1.0000
  C   C178      1.0  0.56219  0.07322  0.75944  1.0000
  C   C179      1.0  0.54327  0.17894  0.70527  1.0000
  C   C180      1.0  0.57507  0.21670999999999999  0.65236  1.0000
  C   C181      1.0  0.52763  0.21702  0.76487  1.0000
  C   C182      1.0  0.49375  0.27892  0.7519  1.0000
  C   C183      1.0  0.59125  0.21815  0.8012  1.0000
  C   C184      1.0  0.58369  0.21056000000000002  0.87274  1.0000
  C   C185      1.0  0.7689400000000001  0.40923  0.63146  1.0000
  C   C186      1.0  0.74194  0.43811  0.5723  1.0000
  C   C187      1.0  0.79442  0.45616  0.67934  1.0000
  C   C188      1.0  0.8470200000000001  0.42423  0.71757  1.0000
  C   C189      1.0  0.73339  0.47175999999999996  0.7170300000000001  1.0000
  C   C190      1.0  0.74614  0.50575  0.7792000000000001  1.0000
  C   C191      1.0  0.69681  0.40917  0.71707  1.0000
  C   C192      1.0  0.62555  0.41767999999999994  0.71148  1.0000
  O   O1        1.0  0.66356  0.77972  0.8749800000000001  1.0000
  O   O2        1.0  0.5521  0.81019  0.9188000000000001  1.0000
  O   O3        1.0  0.54267  0.72421  0.98064  1.0000
  O   O4        1.0  0.69503  0.59581  0.9319500000000002  1.0000
  O   O5        1.0  0.76437  0.66777  0.89224  1.0000
  O   O6        1.0  0.77518  0.71273  0.05343  1.0000
  O   O7        1.0  0.8297  0.77945  0.99104  1.0000
  O   O8        1.0  0.7558  0.90466  0.9507700000000002  1.0000
  O   O9        1.0  0.66403  0.90031  0.89628  1.0000
  O   O10       1.0  0.53087  0.91909  0.8377  1.0000
  O   O11       1.0  0.44360000000000005  0.6195199999999998  0.99632  1.0000
  O   O12       1.0  0.87326  0.66443  0.7792000000000001  1.0000
  O   O13       1.0  0.91796  0.55304  0.8105600000000001  1.0000
  O   O14       1.0  0.97928  0.54346  0.7239000000000001  1.0000
  O   O15       1.0  0.93088  0.69403  0.5954500000000001  1.0000
  O   O16       1.0  0.89038  0.7633199999999999  0.66636  1.0000
  O   O17       1.0  0.05238000000000001  0.77693  0.71559  1.0000
  O   O18       1.0  0.98403  0.82943  0.7797000000000001  1.0000
  O   O19       1.0  0.94109  0.7598  0.90511  1.0000
  O   O20       1.0  0.89896  0.66295  0.89963  1.0000
  O   O21       1.0  0.83924  0.53085  0.9185600000000002  1.0000
  O   O22       1.0  0.00355  0.45233999999999996  0.62577  1.0000
  O   O23       1.0  0.78033  0.87382  0.66401  1.0000
  O   O24       1.0  0.81114  0.9183999999999999  0.55271  1.0000
  O   O25       1.0  0.72353  0.97952  0.54333  1.0000
  O   O26       1.0  0.59556  0.9327699999999999  0.69346  1.0000
  O   O27       1.0  0.66641  0.8919199999999999  0.76373  1.0000
  O   O28       1.0  0.7185  0.05128  0.7774000000000001  1.0000
  O   O29       1.0  0.78311  0.98433  0.8307900000000001  1.0000
  O   O30       1.0  0.90609  0.9503999999999999  0.7548400000000001  1.0000
  O   O31       1.0  0.9028000000000002  0.8954  0.66312  1.0000
  O   O32       1.0  0.91936  0.8396  0.53062  1.0000
  O   O33       1.0  0.62422  0.9998099999999999  0.43914  1.0000
  O   O34       1.0  0.85079  0.8622599999999999  0.87149  1.0000
  O   O35       1.0  0.83539  0.22174  0.37424  1.0000
  O   O36       1.0  0.94715  0.18939  0.41881000000000007  1.0000
  O   O37       1.0  0.9570300000000002  0.2751  0.47935  1.0000
  O   O38       1.0  0.80519  0.40412999999999993  0.43477000000000005  1.0000
  O   O39       1.0  0.73684  0.33353999999999995  0.39094  1.0000
  O   O40       1.0  0.72312  0.28681  0.5522600000000001  1.0000
  O   O41       1.0  0.6715  0.21985  0.48770000000000013  1.0000
  O   O42       1.0  0.74515  0.09504  0.45116  1.0000
  O   O43       1.0  0.8375300000000001  0.10049  0.39776  1.0000
  O   O44       1.0  0.96849  0.08070999999999999  0.33703000000000005  1.0000
  O   O45       1.0  0.0586  0.38059  0.49593  1.0000
  O   O46       1.0  0.62637  0.33492  0.27931000000000006  1.0000
  O   O47       1.0  0.58423  0.44720999999999994  0.31009  1.0000
  O   O48       1.0  0.51959  0.45609999999999995  0.22611  1.0000
  O   O49       1.0  0.56703  0.30403  0.09575  1.0000
  O   O50       1.0  0.60796  0.23577  0.16707  1.0000
  O   O51       1.0  0.44705  0.22323  0.21528  1.0000
  O   O52       1.0  0.51521  0.17009  0.27831000000000006  1.0000
  O   O53       1.0  0.55653  0.24038  0.40597000000000005  1.0000
  O   O54       1.0  0.60277  0.33541  0.40202  1.0000
  O   O55       1.0  0.66141  0.47058  0.41847  1.0000
  O   O56       1.0  0.49706  0.54792  0.12403000000000002  1.0000
  O   O57       1.0  0.7209  0.12637  0.16412  1.0000
  O   O58       1.0  0.68946  0.08091  0.05305000000000001  1.0000
  O   O59       1.0  0.77639  0.020179999999999997  0.043980000000000005  1.0000
  O   O60       1.0  0.9043700000000001  0.06667  0.19495  1.0000
  O   O61       1.0  0.83258  0.11053  0.26267  1.0000
  O   O62       1.0  0.78461  0.95028  0.27873000000000003  1.0000
  O   O63       1.0  0.71775  0.01585  0.33065000000000005  1.0000
  O   O64       1.0  0.59479  0.05019  0.25566  1.0000
  O   O65       1.0  0.5978600000000001  0.10245  0.16357  1.0000
  O   O66       1.0  0.57989  0.16003  0.02946  1.0000
  O   O67       1.0  0.8774200000000001  0.0008500000000000001  0.93948  1.0000
  O   O68       1.0  0.64892  0.13677  0.36895  1.0000
  O   O69       1.0  0.33562  0.27908  0.6253  1.0000
  O   O70       1.0  0.44816000000000006  0.3092  0.5840400000000001  1.0000
  O   O71       1.0  0.4562  0.22658999999999999  0.51796  1.0000
  O   O72       1.0  0.3041400000000001  0.09598  0.56621  1.0000
  O   O73       1.0  0.23578  0.16707  0.60881  1.0000
  O   O74       1.0  0.22373000000000004  0.21454  0.44708  1.0000
  O   O75       1.0  0.17005000000000003  0.27822  0.51239  1.0000
  O   O76       1.0  0.24384000000000003  0.40456  0.54818  1.0000
  O   O77       1.0  0.33511  0.40146  0.6029600000000002  1.0000
  O   O78       1.0  0.46917  0.41945  0.66113  1.0000
  O   O79       1.0  0.55644  0.11973999999999999  0.50431  1.0000
  O   O80       1.0  0.12678  0.16454  0.72079  1.0000
  O   O81       1.0  0.08175  0.05234  0.68932  1.0000
  O   O82       1.0  0.02139  0.04382  0.77621  1.0000
  O   O83       1.0  0.06766  0.19501  0.90382  1.0000
  O   O84       1.0  0.11076000000000001  0.26258  0.8324100000000001  1.0000
  O   O85       1.0  0.9482700000000001  0.27852  0.78554  1.0000
  O   O86       1.0  0.01693  0.32911  0.7203900000000001  1.0000
  O   O87       1.0  0.05923  0.25883  0.59373  1.0000
  O   O88       1.0  0.10005  0.16183  0.59934  1.0000
  O   O89       1.0  0.16011  0.02987  0.58003  1.0000
  O   O90       1.0  0.9982000000000001  0.95161  0.87617  1.0000
  O   O91       1.0  0.22061000000000003  0.37325  0.8355800000000002  1.0000
  O   O92       1.0  0.18889000000000003  0.41900999999999994  0.94698  1.0000
  O   O93       1.0  0.2765  0.4788299999999999  0.9561600000000001  1.0000
  O   O94       1.0  0.40437  0.43420999999999993  0.80545  1.0000
  O   O95       1.0  0.33323  0.39027  0.73738  1.0000
  O   O96       1.0  0.28099  0.55164  0.72121  1.0000
  O   O97       1.0  0.21575  0.48504  0.66947  1.0000
  O   O98       1.0  0.09371  0.44989  0.7448100000000001  1.0000
  O   O99       1.0  0.09709  0.39471999999999996  0.83626  1.0000
  O   O100      1.0  0.08165  0.33674  0.96994  1.0000
  O   O101      1.0  0.37623  0.49913999999999986  0.06258  1.0000
  O   O102      1.0  0.14936  0.36404  0.63123  1.0000
  O   O103      1.0  0.16403  0.72112  0.12551  1.0000
  O   O104      1.0  0.05245  0.6895399999999999  0.08163000000000001  1.0000
  O   O105      1.0  0.043620000000000006  0.77424  0.01838  1.0000
  O   O106      1.0  0.19451  0.9042  0.06728  1.0000
  O   O107      1.0  0.26269  0.83297  0.11029000000000003  1.0000
  O   O108      1.0  0.2778  0.7857699999999999  0.94712  1.0000
  O   O109      1.0  0.3293  0.72093  0.013240000000000002  1.0000
  O   O110      1.0  0.25534  0.59474  0.049450000000000015  1.0000
  O   O111      1.0  0.16315  0.59962  0.10186000000000002  1.0000
  O   O112      1.0  0.031120000000000002  0.57894  0.16112  1.0000
  O   O113      1.0  0.94129  0.87973  0.00401  1.0000
  O   O114      1.0  0.37268000000000007  0.8346099999999999  0.22234  1.0000
  O   O115      1.0  0.4179  0.9473099999999999  0.18908  1.0000
  O   O116      1.0  0.47894  0.95548  0.27515  1.0000
  O   O117      1.0  0.43343  0.8056299999999998  0.4043  1.0000
  O   O118      1.0  0.39175000000000004  0.73656  0.33374  1.0000
  O   O119      1.0  0.55269  0.72147  0.28473  1.0000
  O   O120      1.0  0.4846  0.67145  0.21899000000000005  1.0000
  O   O121      1.0  0.44211000000000006  0.74241  0.09437  1.0000
  O   O122      1.0  0.39712  0.8377  0.10112  1.0000
  O   O123      1.0  0.33728  0.9690499999999999  0.08148000000000001  1.0000
  O   O124      1.0  0.50231  0.04821999999999999  0.37465  1.0000
  O   O125      1.0  0.27908  0.62647  0.33549  1.0000
  O   O126      1.0  0.30913  0.58378  0.4482300000000001  1.0000
  O   O127      1.0  0.22451  0.51932  0.45605000000000007  1.0000
  O   O128      1.0  0.09576000000000001  0.56665  0.30416  1.0000
  O   O129      1.0  0.16788  0.60939  0.23642  1.0000
  O   O130      1.0  0.21594  0.44879  0.22327000000000002  1.0000
  O   O131      1.0  0.28232  0.51206  0.16867  1.0000
  O   O132      1.0  0.40517  0.55242  0.24240000000000003  1.0000
  O   O133      1.0  0.4031  0.60262  0.33649  1.0000
  O   O134      1.0  0.41936  0.66266  0.47037000000000007  1.0000
  O   O135      1.0  0.12214  0.50096  0.56086  1.0000
  O   O136      1.0  0.35018  0.63678  0.12926  1.0000
  O   O137      1.0  0.33647  0.22026999999999997  0.12506  1.0000
  O   O138      1.0  0.44792  0.18975999999999998  0.08122  1.0000
  O   O139      1.0  0.45731  0.27581  0.019430000000000003  1.0000
  O   O140      1.0  0.30486  0.40421  0.06799  1.0000
  O   O141      1.0  0.23561000000000004  0.33218  0.10775  1.0000
  O   O142      1.0  0.22474  0.28724  0.94666  1.0000
  O   O143      1.0  0.17036  0.22044999999999998  0.009010000000000002  1.0000
  O   O144      1.0  0.24434  0.09525  0.04922  1.0000
  O   O145      1.0  0.33618  0.09970999999999998  0.10361  1.0000
  O   O146      1.0  0.46904000000000007  0.08084  0.16237000000000001  1.0000
  O   O147      1.0  0.55656  0.38058  0.00384  1.0000
  O   O148      1.0  0.12678  0.33555  0.22081000000000003  1.0000
  O   O149      1.0  0.08207  0.44697  0.18941  1.0000
  O   O150      1.0  0.0207  0.45650999999999997  0.27604  1.0000
  O   O151      1.0  0.06909  0.30604  0.40458  1.0000
  O   O152      1.0  0.10955  0.2367  0.33371  1.0000
  O   O153      1.0  0.94768  0.22317999999999996  0.2845  1.0000
  O   O154      1.0  0.01583  0.17046  0.22032000000000002  1.0000
  O   O155      1.0  0.058780000000000006  0.24001  0.09505  1.0000
  O   O156      1.0  0.10096  0.33693  0.10038  1.0000
  O   O157      1.0  0.16066  0.46916  0.08133000000000001  1.0000
  O   O158      1.0  0.9963700000000001  0.54733  0.37427  1.0000
  O   O159      1.0  0.21966  0.12613  0.336  1.0000
  O   O160      1.0  0.18884  0.08156  0.44728000000000007  1.0000
  O   O161      1.0  0.27647  0.020549999999999995  0.45686000000000004  1.0000
  O   O162      1.0  0.40449  0.06723  0.30646  1.0000
  O   O163      1.0  0.33351  0.10801  0.2362  1.0000
  O   O164      1.0  0.28154  0.94863  0.22266  1.0000
  O   O165      1.0  0.21719  0.01568  0.16918  1.0000
  O   O166      1.0  0.09382  0.04964999999999999  0.24515  1.0000
  O   O167      1.0  0.09724  0.10457  0.33680000000000004  1.0000
  O   O168      1.0  0.08045  0.16043  0.46921  1.0000
  O   O169      1.0  0.37786  0.0013300000000000002  0.56075  1.0000
  O   O170      1.0  0.14951  0.13783  0.12832  1.0000
  O   O171      1.0  0.16461  0.77819  0.62577  1.0000
  O   O172      1.0  0.052750000000000005  0.8105999999999999  0.58122  1.0000
  O   O173      1.0  0.04285  0.72489  0.52068  1.0000
  O   O174      1.0  0.19485  0.5958799999999999  0.56528  1.0000
  O   O175      1.0  0.26328  0.66651  0.60896  1.0000
  O   O176      1.0  0.27743  0.71333  0.44781  1.0000
  O   O177      1.0  0.32842  0.7803199999999999  0.51299  1.0000
  O   O178      1.0  0.25469  0.9052899999999999  0.54898  1.0000
  O   O179      1.0  0.16223  0.89947  0.60202  1.0000
  O   O180      1.0  0.031380000000000005  0.91923  0.6630500000000001  1.0000
  O   O181      1.0  0.94134  0.61923  0.50422  1.0000
  O   O182      1.0  0.37360000000000004  0.6651  0.72072  1.0000
  O   O183      1.0  0.41575  0.55272  0.6898700000000001  1.0000
  O   O184      1.0  0.48050000000000004  0.54389  0.77382  1.0000
  O   O185      1.0  0.43306  0.696  0.9041700000000001  1.0000
  O   O186      1.0  0.39205  0.76424  0.8327900000000001  1.0000
  O   O187      1.0  0.55291  0.77677  0.78473  1.0000
  O   O188      1.0  0.4849200000000001  0.82996  0.7215900000000001  1.0000
  O   O189      1.0  0.44347  0.7596799999999999  0.59402  1.0000
  O   O190      1.0  0.39731  0.66436  0.5979500000000001  1.0000
  O   O191      1.0  0.33854  0.52946  0.58153  1.0000
  O   O192      1.0  0.503  0.45260999999999996  0.8759900000000002  1.0000
  O   O193      1.0  0.2791  0.87367  0.8358500000000001  1.0000
  O   O194      1.0  0.31056  0.91913  0.9469500000000001  1.0000
  O   O195      1.0  0.22362  0.97983  0.95604  1.0000
  O   O196      1.0  0.09557  0.93338  0.80503  1.0000
  O   O197      1.0  0.16745  0.88946  0.7373500000000001  1.0000
  O   O198      1.0  0.21537  0.04987  0.72128  1.0000
  O   O199      1.0  0.28201  0.9842099999999999  0.6693  1.0000
  O   O200      1.0  0.40515  0.94989  0.74425  1.0000
  O   O201      1.0  0.40217  0.8973399999999999  0.83628  1.0000
  O   O202      1.0  0.42019  0.83989  0.97044  1.0000
  O   O203      1.0  0.1226  0.9991299999999999  0.060440000000000015  1.0000
  O   O204      1.0  0.35100000000000003  0.86266  0.63098  1.0000
  O   O205      1.0  0.6644  0.72092  0.37465  1.0000
  O   O206      1.0  0.55186  0.6907499999999999  0.41598  1.0000
  O   O207      1.0  0.54389  0.7734  0.48208000000000006  1.0000
  O   O208      1.0  0.6959  0.90375  0.4338600000000001  1.0000
  O   O209      1.0  0.76425  0.83255  0.39121000000000006  1.0000
  O   O210      1.0  0.77631  0.78543  0.55292  1.0000
  O   O211      1.0  0.8299000000000001  0.72181  0.48735  1.0000
  O   O212      1.0  0.75609  0.59539  0.45181  1.0000
  O   O213      1.0  0.66477  0.59855  0.39705  1.0000
  O   O214      1.0  0.53092  0.58057  0.33923000000000003  1.0000
  O   O215      1.0  0.44407  0.8799  0.4962500000000001  1.0000
  O   O216      1.0  0.8732300000000001  0.83551  0.27922  1.0000
  O   O217      1.0  0.91833  0.9476399999999999  0.3106400000000001  1.0000
  O   O218      1.0  0.97849  0.95635  0.22367000000000006  1.0000
  O   O219      1.0  0.9323600000000001  0.8051  0.09623  1.0000
  O   O220      1.0  0.8892300000000001  0.73746  0.1675  1.0000
  O   O221      1.0  0.05169000000000001  0.72147  0.21445  1.0000
  O   O222      1.0  0.9830300000000002  0.6709  0.27962  1.0000
  O   O223      1.0  0.9407  0.7412  0.40628000000000003  1.0000
  O   O224      1.0  0.8999300000000001  0.8382  0.4007  1.0000
  O   O225      1.0  0.83924  0.97014  0.4199700000000001  1.0000
  O   O226      1.0  0.0013800000000000004  0.048889999999999996  0.12367  1.0000
  O   O227      1.0  0.77929  0.62675  0.16444  1.0000
  O   O228      1.0  0.8110700000000001  0.58098  0.053  1.0000
  O   O229      1.0  0.72349  0.52118  0.04377  1.0000
  O   O230      1.0  0.59569  0.56573  0.19466000000000003  1.0000
  O   O231      1.0  0.66695  0.60981  0.26251  1.0000
  O   O232      1.0  0.71899  0.44834  0.27878000000000003  1.0000
  O   O233      1.0  0.78421  0.51495  0.33051  1.0000
  O   O234      1.0  0.9062000000000001  0.54987  0.25507  1.0000
  O   O235      1.0  0.90277  0.60532  0.16374  1.0000
  O   O236      1.0  0.91841  0.66332  0.030170000000000002  1.0000
  O   O237      1.0  0.6243  0.50078  0.9376900000000001  1.0000
  O   O238      1.0  0.85049  0.63614  0.36909  1.0000
  O   O239      1.0  0.8359500000000001  0.27891  0.87454  1.0000
  O   O240      1.0  0.94749  0.31048  0.9184000000000002  1.0000
  O   O241      1.0  0.95635  0.22573  0.98159  1.0000
  O   O242      1.0  0.80547  0.09575  0.9327400000000001  1.0000
  O   O243      1.0  0.73735  0.16706  0.88972  1.0000
  O   O244      1.0  0.72219  0.21429  0.05297000000000001  1.0000
  O   O245      1.0  0.67073  0.27924  0.9870100000000003  1.0000
  O   O246      1.0  0.74455  0.40524999999999994  0.9505800000000001  1.0000
  O   O247      1.0  0.83686  0.40042  0.89831  1.0000
  O   O248      1.0  0.9688600000000002  0.42112000000000005  0.83891  1.0000
  O   O249      1.0  0.05829  0.12046  0.99621  1.0000
  O   O250      1.0  0.62727  0.16536  0.77767  1.0000
  O   O251      1.0  0.58207  0.05265999999999999  0.8108200000000001  1.0000
  O   O252      1.0  0.52106  0.0445  0.7247500000000001  1.0000
  O   O253      1.0  0.56659  0.19447  0.59567  1.0000
  O   O254      1.0  0.60816  0.26346  0.66626  1.0000
  O   O255      1.0  0.4473  0.2785  0.7151900000000001  1.0000
  O   O256      1.0  0.51548  0.32855  0.78089  1.0000
  O   O257      1.0  0.55794  0.25758  0.90567  1.0000
  O   O258      1.0  0.60286  0.16222  0.8988800000000002  1.0000
  O   O259      1.0  0.66271  0.03084  0.91842  1.0000
  O   O260      1.0  0.49805  0.95112  0.6252700000000001  1.0000
  O   O261      1.0  0.7209300000000001  0.37354  0.6645100000000002  1.0000
  O   O262      1.0  0.69086  0.41636  0.55184  1.0000
  O   O263      1.0  0.7755400000000001  0.48071  0.54392  1.0000
  O   O264      1.0  0.90432  0.43326  0.69585  1.0000
  O   O265      1.0  0.83207  0.39062  0.76351  1.0000
  O   O266      1.0  0.78402  0.55113  0.77673  1.0000
  O   O267      1.0  0.71766  0.48768  0.8313  1.0000
  O   O268      1.0  0.59481  0.4476299999999999  0.75751  1.0000
  O   O269      1.0  0.59696  0.39739  0.66354  1.0000
  O   O270      1.0  0.58058  0.3376  0.52965  1.0000
  O   O271      1.0  0.87786  0.49901  0.43912  1.0000
  O   O272      1.0  0.64975  0.36334  0.87056  1.0000
