data_image0
_chemical_formula_structural       Cu24H192C384N80O96
_chemical_formula_sum              "Cu24 H192 C384 N80 O96"
_cell_length_a       35.03813
_cell_length_b       35.04286
_cell_length_c       35.6267
_cell_angle_alpha    119.45397
_cell_angle_beta     119.45423000000001
_cell_angle_gamma    89.98501000000002

_symmetry_space_group_name_H-M    'P 1'
_symmetry_Int_Tables_number       1

loop_
  _symmetry_equiv_pos_as_xyz
  'x,y,z'

loop_
  _atom_site_type_symbol
  _atom_site_label
  _atom_site_symmetry_multiplicity
  _atom_site_fract_x
  _atom_site_fract_y
  _atom_site_fract_z
  _atom_site_occupancy
  Cu  Cu1       1.0  0.77965  0.9334199999999999  0.9999599999999998  1.0000
  Cu  Cu2       1.0  0.81144  0.74002  0.7713899999999999  1.0000
  Cu  Cu3       1.0  0.2872199999999999  0.08711  0.0  1.0000
  Cu  Cu4       1.0  0.71278  0.9128899999999999  0.0  1.0000
  Cu  Cu5       1.0  0.9599299999999996  0.03145999999999986  0.7714499999999997  1.0000
  Cu  Cu6       1.0  0.93351  0.22039  9.999999999999997e-06  1.0000
  Cu  Cu7       1.0  0.04236999999999991  0.7548099999999999  0.7048  1.0000
  Cu  Cu8       1.0  0.03140000000000003  0.81151  0.77147  1.0000
  Cu  Cu9       1.0  0.33767999999999987  0.05001999999999998  0.29524  1.0000
  Cu  Cu10      1.0  0.91286  0.28723999999999994  0.99997  1.0000
  Cu  Cu11      1.0  0.08713  0.71275  2.9999999999999994e-05  1.0000
  Cu  Cu12      1.0  0.22033999999999995  0.06657999999999999  3.999999999999999e-05  1.0000
  Cu  Cu13      1.0  0.25995  0.04006999999999996  0.22863999999999998  1.0000
  Cu  Cu14      1.0  0.7547899999999997  0.66234  0.70477  1.0000
  Cu  Cu15      1.0  0.74004  0.9599299999999996  0.7713599999999998  1.0000
  Cu  Cu16      1.0  0.06648999999999997  0.77961  0.9999899999999999  1.0000
  Cu  Cu17      1.0  0.05008999999999999  0.9576599999999998  0.2952699999999999  1.0000
  Cu  Cu18      1.0  0.9576299999999999  0.24519  0.2952  1.0000
  Cu  Cu19      1.0  0.9686  0.18848999999999994  0.22851999999999995  1.0000
  Cu  Cu20      1.0  0.04006999999999998  0.9685399999999998  0.22854999999999995  1.0000
  Cu  Cu21      1.0  0.6623199999999998  0.9499899999999997  0.7047599999999998  1.0000
  Cu  Cu22      1.0  0.24520999999999998  0.33765999999999996  0.29522999999999994  1.0000
  Cu  Cu23      1.0  0.94991  0.042339999999999864  0.7047299999999997  1.0000
  Cu  Cu24      1.0  0.18855999999999995  0.25998  0.22860999999999995  1.0000
  H   H1        1.0  0.58029  0.28266  0.24543999999999994  1.0000
  H   H2        1.0  0.2384799999999999  0.7858299999999999  0.7773099999999998  1.0000
  H   H3        1.0  0.27834999999999993  0.72598  0.22927999999999996  1.0000
  H   H4        1.0  0.20623  0.39233  0.40573  1.0000
  H   H5        1.0  0.7372099999999999  0.8217499999999998  0.7232799999999998  1.0000
  H   H6        1.0  0.18688999999999997  0.40510999999999997  0.21709999999999996  1.0000
  H   H7        1.0  0.5897799999999997  0.8989999999999999  0.3668099999999999  1.0000
  H   H8        1.0  0.10099000000000004  0.22291999999999998  0.63323  1.0000
  H   H9        1.0  0.71744  0.33486  0.75455  1.0000
  H   H10       1.0  0.53224  0.41035  0.63338  1.0000
  H   H11       1.0  0.24901  0.03483000000000004  0.48546  1.0000
  H   H12       1.0  0.41970999999999997  0.71735  0.75457  1.0000
  H   H13       1.0  0.5966500000000001  0.41683000000000003  0.27111  1.0000
  H   H14       1.0  0.6629699999999997  0.3994599999999999  0.6817799999999999  1.0000
  H   H15       1.0  0.93868  0.15415999999999996  0.86728  1.0000
  H   H16       1.0  0.7929599999999998  0.47078000000000003  0.86674  1.0000
  H   H17       1.0  0.66516  0.96295  0.24566999999999994  1.0000
  H   H18       1.0  0.35279999999999995  0.5977199999999999  0.6388699999999999  1.0000
  H   H19       1.0  0.3924299999999999  0.19973999999999992  0.40592999999999996  1.0000
  H   H20       1.0  0.71065  0.47215  0.4428199999999999  1.0000
  H   H21       1.0  0.4506499999999999  0.24897999999999995  0.48542999999999986  1.0000
  H   H22       1.0  0.89229  0.5862499999999999  0.17192  1.0000
  H   H23       1.0  0.7216499999999999  0.2740199999999999  0.7707199999999997  1.0000
  H   H24       1.0  0.2869599999999998  0.6029199999999999  0.7156199999999998  1.0000
  H   H25       1.0  0.2822899999999999  0.6629599999999999  0.6818199999999998  1.0000
  H   H26       1.0  0.96997  0.18821  0.7831199999999999  1.0000
  H   H27       1.0  0.70702  0.052669999999999995  0.09513999999999999  1.0000
  H   H28       1.0  0.57152  0.88742  0.28434  1.0000
  H   H29       1.0  0.3352099999999999  0.3327599999999999  0.24294999999999994  1.0000
  H   H30       1.0  0.4284799999999999  0.11258999999999987  0.7156599999999997  1.0000
  H   H31       1.0  0.91019  0.33518  0.24287999999999996  1.0000
  H   H32       1.0  0.66722  0.09244999999999998  0.75708  1.0000
  H   H33       1.0  0.71391  0.95881  0.36102999999999996  1.0000
  H   H34       1.0  0.4022199999999999  0.7138599999999997  0.3609799999999999  1.0000
  H   H35       1.0  0.58325  0.3257  0.72881  1.0000
  H   H36       1.0  0.5950599999999997  0.96985  0.7829499999999998  1.0000
  H   H37       1.0  0.013900000000000013  0.09867  0.27667  1.0000
  H   H38       1.0  0.7636  0.5495  0.51479  1.0000
  H   H39       1.0  0.9509099999999999  0.50337  0.22918999999999995  1.0000
  H   H40       1.0  0.27943  0.58557  0.17162999999999995  1.0000
  H   H41       1.0  0.8544099999999998  0.59686  0.27115  1.0000
  H   H42       1.0  0.8131099999999997  0.59489  0.7828999999999998  1.0000
  H   H43       1.0  0.018849999999999992  0.28229  0.68176  1.0000
  H   H44       1.0  0.052719999999999996  0.38813  0.09513  1.0000
  H   H45       1.0  0.3879799999999999  0.04250999999999998  0.09510999999999997  1.0000
  H   H46       1.0  0.40334999999999993  0.58317  0.72889  1.0000
  H   H47       1.0  0.47077  0.07384999999999992  0.8666799999999998  1.0000
  H   H48       1.0  0.54293  0.013270000000000013  0.27937  1.0000
  H   H49       1.0  0.05348999999999995  0.08984999999999997  0.40683999999999987  1.0000
  H   H50       1.0  0.40494  0.030150000000000007  0.21705  1.0000
  H   H51       1.0  0.95891  0.6471700000000001  0.36101  1.0000
  H   H52       1.0  0.77699  0.4676699999999999  0.36657  1.0000
  H   H53       1.0  0.77311  0.89052  0.1195  1.0000
  H   H54       1.0  0.49665999999999977  0.7216699999999998  0.7707999999999998  1.0000
  H   H55       1.0  0.58614  0.27964  0.17178  1.0000
  H   H56       1.0  0.96524  0.76353  0.51466  1.0000
  H   H57       1.0  0.26279  0.17825  0.27672  1.0000
  H   H58       1.0  0.08980999999999986  0.6648299999999999  0.7571199999999998  1.0000
  H   H59       1.0  0.14558999999999994  0.4031399999999999  0.7288499999999999  1.0000
  H   H60       1.0  0.4721699999999999  0.7321999999999997  0.44277999999999995  1.0000
  H   H61       1.0  0.72593  0.9509499999999999  0.22933  1.0000
  H   H62       1.0  0.95759  0.29312  0.90491  1.0000
  H   H63       1.0  0.6039799999999997  0.20709  0.13329999999999997  1.0000
  H   H64       1.0  0.33277999999999996  0.9075499999999999  0.24291999999999994  1.0000
  H   H65       1.0  0.41287000000000007  0.73635  0.25548  1.0000
  H   H66       1.0  0.99156  0.23847999999999991  0.7773099999999998  1.0000
  H   H67       1.0  0.2636999999999999  0.7340299999999998  0.7207599999999997  1.0000
  H   H68       1.0  0.73394  0.45703999999999995  0.72069  1.0000
  H   H69       1.0  0.22301  0.5323299999999999  0.63343  1.0000
  H   H70       1.0  0.18814  0.8131899999999997  0.78303  1.0000
  H   H71       1.0  0.7362999999999997  0.26597  0.27924  1.0000
  H   H72       1.0  0.46109  0.00849  0.22276  1.0000
  H   H73       1.0  0.6005199999999998  0.98119  0.3182899999999999  1.0000
  H   H74       1.0  0.76196  0.9208099999999999  0.18496  1.0000
  H   H75       1.0  0.9865999999999999  0.7937199999999996  0.5941699999999999  1.0000
  H   H76       1.0  0.31718  0.05347999999999997  0.40686999999999995  1.0000
  H   H77       1.0  0.3532899999999999  0.31706999999999996  0.40667999999999993  1.0000
  H   H78       1.0  0.33484  0.03706000000000001  0.75433  1.0000
  H   H79       1.0  0.013269999999999983  0.7364899999999998  0.2793  1.0000
  H   H80       1.0  0.8002  0.9865099999999999  0.59406  1.0000
  H   H81       1.0  0.33702999999999994  0.60054  0.3182199999999999  1.0000
  H   H82       1.0  0.98673  0.2635199999999999  0.7206999999999999  1.0000
  H   H83       1.0  0.8425099999999996  0.51918  0.25534999999999997  1.0000
  H   H84       1.0  0.037099999999999994  0.41969999999999996  0.75457  1.0000
  H   H85       1.0  0.34632  0.22912  0.11953999999999998  1.0000
  H   H86       1.0  0.22689999999999985  0.10948999999999992  0.8804999999999997  1.0000
  H   H87       1.0  0.042409999999999996  0.70689  0.09508999999999998  1.0000
  H   H88       1.0  0.46776  0.58965  0.3666199999999999  1.0000
  H   H89       1.0  0.030029999999999973  0.81179  0.21687999999999993  1.0000
  H   H90       1.0  0.09250000000000003  0.08982999999999998  0.75708  1.0000
  H   H91       1.0  0.6120199999999998  0.9574999999999997  0.9048899999999998  1.0000
  H   H92       1.0  0.2929800000000001  0.94733  0.90486  1.0000
  H   H93       1.0  0.7130399999999999  0.3970799999999999  0.28437999999999997  1.0000
  H   H94       1.0  0.54935  0.7510299999999998  0.51457  1.0000
  H   H95       1.0  0.89051  0.34624  0.11938999999999998  1.0000
  H   H96       1.0  0.19794  0.89384  0.12565  1.0000
  H   H97       1.0  0.9075000000000001  0.91017  0.24293  1.0000
  H   H98       1.0  0.9629  0.58031  0.24542999999999995  1.0000
  H   H99       1.0  0.041089999999999925  0.35284000000000004  0.63899  1.0000
  H   H100      1.0  0.7357699999999998  0.23794999999999988  0.8149299999999998  1.0000
  H   H101      1.0  0.1539699999999999  0.9284499999999999  0.8671099999999999  1.0000
  H   H102      1.0  0.6828199999999999  0.94652  0.5931299999999999  1.0000
  H   H103      1.0  0.6536799999999999  0.77088  0.8804599999999999  1.0000
  H   H104      1.0  0.39947999999999995  0.01880999999999997  0.6817099999999999  1.0000
  H   H105      1.0  0.7509999999999997  0.9651799999999999  0.5145399999999999  1.0000
  H   H106      1.0  0.19979999999999995  0.013489999999999941  0.4059399999999999  1.0000
  H   H107      1.0  0.6029899999999998  0.4285999999999999  0.7156899999999998  1.0000
  H   H108      1.0  0.41675  0.67431  0.27119  1.0000
  H   H109      1.0  0.10624999999999987  0.07229999999999989  0.8744799999999998  1.0000
  H   H110      1.0  0.41435999999999984  0.10783999999999991  0.8281599999999998  1.0000
  H   H111      1.0  0.28671  0.06129999999999998  0.13287999999999997  1.0000
  H   H112      1.0  0.9102899999999999  0.64676  0.59332  1.0000
  H   H113      1.0  0.84603  0.07155999999999998  0.13289  1.0000
  H   H114      1.0  0.9472799999999999  0.6118799999999996  0.9048699999999997  1.0000
  H   H115      1.0  0.32549  0.14560000000000003  0.72869  1.0000
  H   H116      1.0  0.58564  0.8921599999999998  0.17184  1.0000
  H   H117      1.0  0.97071  0.71067  0.4428599999999999  1.0000
  H   H118      1.0  0.23803999999999997  0.07918999999999997  0.81504  1.0000
  H   H119      1.0  0.17837999999999996  0.01401000000000001  0.27672  1.0000
  H   H120      1.0  0.82163  0.9859899999999998  0.7232799999999998  1.0000
  H   H121      1.0  0.15748999999999994  0.48082  0.74465  1.0000
  H   H122      1.0  0.8990199999999998  0.77709  0.36678  1.0000
  H   H123      1.0  0.9277499999999999  0.2316999999999999  0.12554999999999997  1.0000
  H   H124      1.0  0.39702  0.5713999999999998  0.28431  1.0000
  H   H125      1.0  0.5770299999999999  0.7358099999999999  0.8149599999999999  1.0000
  H   H126      1.0  0.28609  0.041190000000000004  0.63897  1.0000
  H   H127      1.0  0.9263399999999999  0.60422  0.13336  1.0000
  H   H128      1.0  0.26354999999999995  0.15739999999999998  0.7445999999999999  1.0000
  H   H129      1.0  0.50334  0.27833  0.2292  1.0000
  H   H130      1.0  0.034759999999999944  0.23647999999999994  0.48533999999999994  1.0000
  H   H131      1.0  0.88743  0.71308  0.2844  1.0000
  H   H132      1.0  0.28935  0.52785  0.55718  1.0000
  H   H133      1.0  0.7708699999999999  0.22683000000000003  0.88044  1.0000
  H   H134      1.0  0.60757  0.80026  0.59407  1.0000
  H   H135      1.0  0.41386  0.7203599999999998  0.82822  1.0000
  H   H136      1.0  0.9013599999999999  0.73719  0.72336  1.0000
  H   H137      1.0  0.11256999999999993  0.2869199999999999  0.7155999999999999  1.0000
  H   H138      1.0  0.10770999999999993  0.4137499999999999  0.82808  1.0000
  H   H139      1.0  0.76823  0.80201  0.87428  1.0000
  H   H140      1.0  0.71329  0.93871  0.86712  1.0000
  H   H141      1.0  0.09863999999999995  0.26281  0.27663999999999994  1.0000
  H   H142      1.0  0.6647999999999997  0.66725  0.7570499999999998  1.0000
  H   H143      1.0  0.8937499999999998  0.9276999999999999  0.12552999999999997  1.0000
  H   H144      1.0  0.5871399999999998  0.2636499999999999  0.7445199999999997  1.0000
  H   H145      1.0  0.28256  0.66514  0.24545  1.0000
  H   H146      1.0  0.73645  0.8426  0.25541  1.0000
  H   H147      1.0  0.51895  0.41283  0.25533  1.0000
  H   H148      1.0  0.98115  0.71771  0.31824  1.0000
  H   H149      1.0  0.21421999999999994  0.46103  0.22269  1.0000
  H   H150      1.0  0.5292299999999999  0.92615  0.13331999999999997  1.0000
  H   H151      1.0  0.6471999999999999  0.40229  0.36113  1.0000
  H   H152      1.0  0.67451  0.8543999999999999  0.27131  1.0000
  H   H153      1.0  0.8020599999999998  0.10616  0.87435  1.0000
  H   H154      1.0  0.81186  0.18680999999999995  0.21696999999999994  1.0000
  H   H155      1.0  0.92088  0.4229599999999999  0.18496  1.0000
  H   H156      1.0  0.5278299999999998  0.26780999999999994  0.5572199999999999  1.0000
  H   H157      1.0  0.07912  0.57704  0.81504  1.0000
  H   H158      1.0  0.06131999999999999  0.8458399999999998  0.13272  1.0000
  H   H159      1.0  0.78578  0.53898  0.7773099999999998  1.0000
  H   H160      1.0  0.27407  0.04904999999999998  0.77067  1.0000
  H   H161      1.0  0.48104999999999987  0.5871699999999997  0.7446699999999999  1.0000
  H   H162      1.0  0.73227  0.97068  0.44297  1.0000
  H   H163      1.0  0.64671  0.68293  0.59332  1.0000
  H   H164      1.0  0.22913  0.7731699999999999  0.11955999999999997  1.0000
  H   H165      1.0  0.79377  0.6076699999999998  0.59427  1.0000
  H   H166      1.0  0.26772999999999997  0.029329999999999898  0.5570299999999999  1.0000
  H   H167      1.0  0.26606  0.54297  0.27931  1.0000
  H   H168      1.0  0.07169999999999997  0.2869199999999999  0.13297  1.0000
  H   H169      1.0  0.20703999999999995  0.5292199999999998  0.13326  1.0000
  H   H170      1.0  0.94651  0.91015  0.59317  1.0000
  H   H171      1.0  0.9861099999999999  0.9013299999999997  0.72334  1.0000
  H   H172      1.0  0.04909000000000003  0.49663999999999997  0.77081  1.0000
  H   H173      1.0  0.76152  0.21416999999999994  0.22269  1.0000
  H   H174      1.0  0.26423  0.7620499999999998  0.18507  1.0000
  H   H175      1.0  0.39603  0.79292  0.8667  1.0000
  H   H176      1.0  0.0722499999999999  0.7683  0.8744599999999998  1.0000
  H   H177      1.0  0.5389099999999998  0.9915099999999999  0.7772399999999998  1.0000
  H   H178      1.0  0.08971  0.35324999999999995  0.40667999999999993  1.0000
  H   H179      1.0  0.41022  0.10099999999999996  0.63319  1.0000
  H   H180      1.0  0.72058  0.41444  0.82837  1.0000
  H   H181      1.0  0.07365999999999996  0.39577999999999997  0.8666399999999999  1.0000
  H   H182      1.0  0.029289999999999983  0.28933  0.55714  1.0000
  H   H183      1.0  0.59778  0.28614999999999996  0.63902  1.0000
  H   H184      1.0  0.45707  0.9867399999999998  0.72063  1.0000
  H   H185      1.0  0.23176999999999998  0.19799000000000003  0.12572  1.0000
  H   H186      1.0  0.9282999999999999  0.7130899999999998  0.8670299999999997  1.0000
  H   H187      1.0  0.008439999999999994  0.76152  0.22269  1.0000
  H   H188      1.0  0.10948999999999999  0.65377  0.88061  1.0000
  H   H189      1.0  0.42297  0.2641899999999999  0.18503999999999998  1.0000
  H   H190      1.0  0.23639999999999994  0.4505  0.4852199999999999  1.0000
  H   H191      1.0  0.7177099999999998  0.33704  0.31818  1.0000
  H   H192      1.0  0.013399999999999988  0.20629  0.40584  1.0000
  C   C1        1.0  0.7051399999999999  0.7983499999999999  0.6853999999999999  1.0000
  C   C2        1.0  0.95313  0.16637  0.82112  1.0000
  C   C3        1.0  0.26814999999999994  0.03989999999999997  0.31154999999999994  1.0000
  C   C4        1.0  0.31569999999999987  0.80974  0.81941  1.0000
  C   C5        1.0  0.1106799999999999  0.5412899999999999  0.7703099999999999  1.0000
  C   C6        1.0  0.69092  0.41566  0.72251  1.0000
  C   C7        1.0  0.61692  0.91195  0.3653999999999999  1.0000
  C   C8        1.0  0.6594999999999998  0.2289399999999999  0.7701799999999998  1.0000
  C   C9        1.0  0.21444  0.48219999999999996  0.54093  1.0000
  C   C10       1.0  0.6501399999999999  0.3347699999999999  0.7410199999999998  1.0000
  C   C11       1.0  0.028160000000000004  0.32818  0.79675  1.0000
  C   C12       1.0  0.7015  0.11410000000000002  0.79257  1.0000
  C   C13       1.0  0.8818799999999998  0.16302999999999998  0.21049999999999994  1.0000
  C   C14       1.0  0.8262299999999999  0.6318799999999999  0.6119999999999999  1.0000
  C   C15       1.0  0.3167799999999999  0.13290999999999997  0.31196999999999997  1.0000
  C   C16       1.0  0.13123999999999994  0.46757999999999994  0.7470199999999999  1.0000
  C   C17       1.0  0.22099999999999995  0.09651  0.79652  1.0000
  C   C18       1.0  0.30482  0.2495  0.33886999999999995  1.0000
  C   C19       1.0  0.18779999999999994  0.46608  0.19430999999999995  1.0000
  C   C20       1.0  0.23566999999999996  0.54468  0.17365  1.0000
  C   C21       1.0  0.9577899999999999  0.8918599999999999  0.6119899999999999  1.0000
  C   C22       1.0  0.66235  0.9349999999999999  0.41075  1.0000
  C   C23       1.0  0.5465999999999999  0.3831599999999999  0.6346599999999999  1.0000
  C   C24       1.0  0.16312999999999994  0.32873  0.21058999999999994  1.0000
  C   C25       1.0  0.01974999999999996  0.11301999999999994  0.31456999999999996  1.0000
  C   C26       1.0  0.2496  0.03411999999999996  0.3389499999999999  1.0000
  C   C27       1.0  0.33764999999999995  0.06499999999999995  0.5892499999999999  1.0000
  C   C28       1.0  0.45146999999999987  0.28371999999999997  0.49587999999999993  1.0000
  C   C29       1.0  0.056829999999999985  0.3352099999999999  0.11079999999999997  1.0000
  C   C30       1.0  0.68586  0.8752599999999999  0.26181  1.0000
  C   C31       1.0  0.779  0.90349  0.20349  1.0000
  C   C32       1.0  0.76327  0.006889999999999998  0.07  1.0000
  C   C33       1.0  0.46771999999999986  0.6157399999999998  0.7470199999999999  1.0000
  C   C34       1.0  0.34501  0.7353599999999998  0.24034999999999998  1.0000
  C   C35       1.0  0.019899999999999966  0.17383999999999997  0.38806999999999997  1.0000
  C   C36       1.0  0.28753999999999985  0.5861799999999999  0.6809299999999998  1.0000
  C   C37       1.0  0.3129799999999998  0.05473999999999991  0.6376599999999998  1.0000
  C   C38       1.0  0.16003999999999993  0.80002  0.07237999999999999  1.0000
  C   C39       1.0  0.67144  0.95258  0.7895099999999999  1.0000
  C   C40       1.0  0.6970799999999999  0.95161  0.4083099999999999  1.0000
  C   C41       1.0  0.32682  0.18414  0.33901  1.0000
  C   C42       1.0  0.7367899999999997  0.77781  0.8587399999999998  1.0000
  C   C43       1.0  0.90898  0.3214699999999999  0.20739  1.0000
  C   C44       1.0  0.32832  0.76864  0.79683  1.0000
  C   C45       1.0  0.04368999999999999  0.74229  0.11838999999999997  1.0000
  C   C46       1.0  0.3710499999999998  0.76428  0.8263299999999998  1.0000
  C   C47       1.0  0.0910199999999999  0.6785299999999999  0.7926099999999998  1.0000
  C   C48       1.0  0.06500999999999993  0.2516399999999999  0.5893099999999999  1.0000
  C   C49       1.0  0.08805999999999996  0.2515  0.63464  1.0000
  C   C50       1.0  0.7503999999999998  0.96589  0.6610499999999998  1.0000
  C   C51       1.0  0.30849  0.7142999999999998  0.23739999999999997  1.0000
  C   C52       1.0  0.28572  0.07107  0.76254  1.0000
  C   C53       1.0  0.7484999999999999  0.4534199999999999  0.3653399999999999  1.0000
  C   C54       1.0  0.034079999999999944  0.08942999999999994  0.3388299999999999  1.0000
  C   C55       1.0  0.23999999999999996  0.8103399999999997  0.13861999999999997  1.0000
  C   C56       1.0  0.053959999999999994  0.77548  0.11072999999999998  1.0000
  C   C57       1.0  0.28876999999999997  0.5433899999999999  0.5918099999999998  1.0000
  C   C58       1.0  0.65499  0.26465  0.75965  1.0000
  C   C59       1.0  0.31994999999999996  0.06396999999999996  0.7531499999999999  1.0000
  C   C60       1.0  0.4005  0.03369999999999999  0.15578  1.0000
  C   C61       1.0  0.88932  0.45872  0.22969999999999993  1.0000
  C   C62       1.0  0.6785199999999999  0.70151  0.7925399999999999  1.0000
  C   C63       1.0  0.89866  0.32821  0.13854999999999998  1.0000
  C   C64       1.0  0.46854999999999997  0.028179999999999986  0.79676  1.0000
  C   C65       1.0  0.18418  0.012220000000000005  0.33899  1.0000
  C   C66       1.0  0.48219999999999985  0.32658999999999994  0.5409799999999999  1.0000
  C   C67       1.0  0.1790799999999999  0.91454  0.85988  1.0000
  C   C68       1.0  0.09472  0.28752  0.68092  1.0000
  C   C69       1.0  0.90352  0.42444  0.20346  1.0000
  C   C70       1.0  0.12209999999999997  0.4005999999999999  0.15576999999999996  1.0000
  C   C71       1.0  0.25543  0.2802799999999999  0.21250999999999995  1.0000
  C   C72       1.0  0.98644  0.7036099999999997  0.25531  1.0000
  C   C73       1.0  0.8009399999999999  0.15034  0.18699999999999994  1.0000
  C   C74       1.0  0.47569999999999996  0.6622799999999998  0.4107099999999999  1.0000
  C   C75       1.0  0.46606999999999993  0.006549999999999973  0.19434999999999994  1.0000
  C   C76       1.0  0.7155699999999999  0.16186999999999996  0.8164899999999999  1.0000
  C   C77       1.0  0.34943999999999986  0.68655  0.7522299999999997  1.0000
  C   C78       1.0  0.8380899999999998  0.8991  0.18347999999999995  1.0000
  C   C79       1.0  0.24483999999999997  0.87797  0.84425  1.0000
  C   C80       1.0  0.9190199999999998  0.61899  0.19537  1.0000
  C   C81       1.0  0.37712999999999997  0.26213999999999993  0.4127399999999999  1.0000
  C   C82       1.0  0.68702  0.9452600000000001  0.36234  1.0000
  C   C83       1.0  0.7423999999999997  0.07470999999999997  0.11843  1.0000
  C   C84       1.0  0.7445799999999997  0.7197199999999998  0.7874999999999998  1.0000
  C   C85       1.0  0.62287  0.73786  0.58726  1.0000
  C   C86       1.0  0.5433999999999999  0.3030399999999999  0.5917999999999999  1.0000
  C   C87       1.0  0.8451199999999999  0.6731999999999998  0.6610499999999998  1.0000
  C   C88       1.0  0.44822  0.01357  0.74468  1.0000
  C   C89       1.0  0.4962  0.99029  0.18063  1.0000
  C   C90       1.0  0.30673  0.06317999999999999  0.07007999999999999  1.0000
  C   C91       1.0  0.8102899999999997  0.89867  0.1386  1.0000
  C   C92       1.0  0.03990000000000001  0.04346  0.31146  1.0000
  C   C93       1.0  0.38109999999999994  0.72361  0.8046899999999999  1.0000
  C   C94       1.0  0.12466999999999989  0.4239899999999998  0.7382199999999998  1.0000
  C   C95       1.0  0.6289499999999999  0.23571999999999999  0.17366999999999996  1.0000
  C   C96       1.0  0.45866  0.34046  0.22977999999999998  1.0000
  C   C97       1.0  0.7198099999999998  0.7329099999999998  0.8141299999999998  1.0000
  C   C98       1.0  0.012199999999999996  0.15494  0.33901  1.0000
  C   C99       1.0  0.006539999999999948  0.7281699999999998  0.19427999999999995  1.0000
  C   C100      1.0  0.9718399999999999  0.67182  0.20324999999999993  1.0000
  C   C101      1.0  0.04438000000000001  0.21222000000000002  0.49586  1.0000
  C   C102      1.0  0.82092  0.08545999999999998  0.14012  1.0000
  C   C103      1.0  0.32821  0.24  0.1386  1.0000
  C   C104      1.0  0.10808999999999992  0.3457699999999999  0.3879599999999999  1.0000
  C   C105      1.0  0.9930599999999998  0.6932299999999999  0.9299899999999998  1.0000
  C   C106      1.0  0.9634099999999999  0.1991  0.81306  1.0000
  C   C107      1.0  0.06557999999999989  0.3493599999999999  0.7521799999999997  1.0000
  C   C108      1.0  0.09081999999999997  0.40617999999999993  0.7409299999999999  1.0000
  C   C109      1.0  0.6892799999999999  0.3199799999999999  0.7532899999999998  1.0000
  C   C110      1.0  0.34583  0.27998  0.388  1.0000
  C   C111      1.0  0.19905999999999985  0.84966  0.8129999999999997  1.0000
  C   C112      1.0  0.4244099999999999  0.30003  0.20352  1.0000
  C   C113      1.0  0.6318599999999999  0.7856599999999998  0.6119399999999999  1.0000
  C   C114      1.0  0.72813  0.18771  0.19427999999999995  1.0000
  C   C115      1.0  0.7755999999999997  0.05678  0.11076  1.0000
  C   C116      1.0  0.78563  0.9800699999999999  0.6119399999999999  1.0000
  C   C117      1.0  0.006939999999999999  0.30677  0.07001  1.0000
  C   C118      1.0  0.00972000000000001  0.3156499999999999  0.81943  1.0000
  C   C119      1.0  0.3351  0.05400999999999999  0.11081  1.0000
  C   C120      1.0  0.76859  0.4685399999999998  0.7967899999999998  1.0000
  C   C121      1.0  0.65468  0.7155799999999997  0.8164799999999998  1.0000
  C   C122      1.0  0.7855599999999999  0.5178  0.45907  1.0000
  C   C123      1.0  0.08087999999999997  0.73684  0.8588  1.0000
  C   C124      1.0  0.10133999999999996  0.6717999999999998  0.8614499999999999  1.0000
  C   C125      1.0  0.8096299999999997  0.50375  0.81934  1.0000
  C   C126      1.0  0.09647999999999997  0.5755599999999997  0.79654  1.0000
  C   C127      1.0  0.26321  0.2222  0.14126  1.0000
  C   C128      1.0  0.5755899999999997  0.6999699999999999  0.7964799999999997  1.0000
  C   C129      1.0  0.07810000000000002  0.32452  0.68292  1.0000
  C   C130      1.0  0.9289299999999999  0.52315  0.23743999999999996  1.0000
  C   C131      1.0  0.76001  0.18966  0.86138  1.0000
  C   C132      1.0  0.9187999999999998  0.28015  0.1858  1.0000
  C   C133      1.0  0.3214799999999999  0.2985  0.20745999999999998  1.0000
  C   C134      1.0  0.9601  0.95654  0.68854  1.0000
  C   C135      1.0  0.2801899999999999  0.26708999999999994  0.18587  1.0000
  C   C136      1.0  0.61576  0.27943  0.74703  1.0000
  C   C137      1.0  0.81582  0.9877799999999999  0.66102  1.0000
  C   C138      1.0  0.7034499999999998  0.26885  0.25521999999999995  1.0000
  C   C139      1.0  0.28027999999999986  0.95706  0.21250999999999995  1.0000
  C   C140      1.0  0.004850000000000003  0.8209199999999996  0.68806  1.0000
  C   C141      1.0  0.21437  0.01993999999999999  0.38806  1.0000
  C   C142      1.0  0.2718699999999999  0.8122899999999996  0.8057199999999998  1.0000
  C   C143      1.0  0.86791  0.65469  0.8209999999999998  1.0000
  C   C144      1.0  0.89535  0.5049999999999999  0.24034  1.0000
  C   C145      1.0  0.22439999999999982  0.9432199999999998  0.8892399999999998  1.0000
  C   C146      1.0  0.30291999999999997  0.04839000000000002  0.59169  1.0000
  C   C147      1.0  0.35827  0.07809000000000005  0.68282  1.0000
  C   C148      1.0  0.38594  0.03660999999999999  0.18701  1.0000
  C   C149      1.0  0.7318499999999998  0.9601  0.6884499999999998  1.0000
  C   C150      1.0  0.7283899999999998  0.73196  0.68853  1.0000
  C   C151      1.0  0.88701  0.70517  0.6854699999999999  1.0000
  C   C152      1.0  0.45339999999999986  0.6168399999999998  0.3653399999999999  1.0000
  C   C153      1.0  0.93605  0.56676  0.24679  1.0000
  C   C154      1.0  0.31338  0.59721  0.24773999999999996  1.0000
  C   C155      1.0  0.95252  0.11816999999999993  0.7895099999999999  1.0000
  C   C156      1.0  0.32454999999999984  0.60479  0.6829299999999998  1.0000
  C   C157      1.0  0.87533  0.57601  0.26179  1.0000
  C   C158      1.0  0.34986  0.66523  0.25898  1.0000
  C   C159      1.0  0.7353199999999998  0.89535  0.24032999999999993  1.0000
  C   C160      1.0  0.96845  0.69325  0.27753  1.0000
  C   C161      1.0  0.6842999999999999  0.19026  0.1806  1.0000
  C   C162      1.0  0.9643599999999997  0.84928  0.5872399999999999  1.0000
  C   C163      1.0  0.15065999999999993  0.37709999999999994  0.41270999999999997  1.0000
  C   C164      1.0  0.9252299999999999  0.62396  0.8815599999999998  1.0000
  C   C165      1.0  0.5339299999999998  0.9934499999999999  0.8056499999999998  1.0000
  C   C166      1.0  0.54134  0.65954  0.77022  1.0000
  C   C167      1.0  0.93443  0.65065  0.24781999999999996  1.0000
  C   C168      1.0  0.9105899999999998  0.69526  0.6611899999999998  1.0000
  C   C169      1.0  0.22219999999999995  0.8779999999999998  0.14126999999999998  1.0000
  C   C170      1.0  0.07476999999999999  0.37605  0.11843999999999998  1.0000
  C   C171      1.0  0.04747999999999997  0.8818299999999997  0.21048999999999995  1.0000
  C   C172      1.0  0.3932799999999999  0.09469999999999987  0.6808599999999998  1.0000
  C   C173      1.0  0.80002  0.9123499999999999  0.07238999999999998  1.0000
  C   C174      1.0  0.25149999999999995  0.5465799999999998  0.6346599999999999  1.0000
  C   C175      1.0  0.06196999999999991  0.3709099999999999  0.8262599999999998  1.0000
  C   C176      1.0  0.13208999999999996  0.3453199999999999  0.17900999999999995  1.0000
  C   C177      1.0  0.84959  0.61392  0.81295  1.0000
  C   C178      1.0  0.71428  0.92894  0.23746  1.0000
  C   C179      1.0  0.6731899999999997  0.8158600000000001  0.66099  1.0000
  C   C180      1.0  0.61406  0.9633899999999999  0.81299  1.0000
  C   C181      1.0  0.30007  0.7790699999999999  0.20354999999999995  1.0000
  C   C182      1.0  0.7378199999999999  0.9643399999999999  0.5872299999999999  1.0000
  C   C183      1.0  0.66491  0.9459999999999998  0.88919  1.0000
  C   C184      1.0  0.6189  0.27639999999999987  0.19530999999999998  1.0000
  C   C185      1.0  0.4565999999999998  0.69697  0.4082  1.0000
  C   C186      1.0  0.25158  0.52428  0.58928  1.0000
  C   C187      1.0  0.033679999999999974  0.75512  0.15570999999999996  1.0000
  C   C188      1.0  0.6135499999999998  0.3142399999999999  0.7382699999999998  1.0000
  C   C189      1.0  0.043459999999999985  0.27155  0.31141  1.0000
  C   C190      1.0  0.19997999999999996  0.08764999999999992  0.92761  1.0000
  C   C191      1.0  0.26468  0.10465000000000002  0.75967  1.0000
  C   C192      1.0  0.26711  0.9056399999999998  0.18585999999999994  1.0000
  C   C193      1.0  0.59374  0.34998  0.25904999999999995  1.0000
  C   C194      1.0  0.91194  0.7485  0.36536  1.0000
  C   C195      1.0  0.08098000000000002  0.38101  0.80463  1.0000
  C   C196      1.0  0.13294  0.9951099999999999  0.31187  1.0000
  C   C197      1.0  0.31907  0.05463999999999999  0.14010999999999998  1.0000
  C   C198      1.0  0.6240499999999999  0.95628  0.8815399999999999  1.0000
  C   C199      1.0  0.93499  0.74836  0.41069  1.0000
  C   C200      1.0  0.013569999999999935  0.29639999999999994  0.7446899999999999  1.0000
  C   C201      1.0  0.5038  0.009709999999999845  0.8193699999999998  1.0000
  C   C202      1.0  0.53146  0.97182  0.20323999999999995  1.0000
  C   C203      1.0  0.31072  0.6800299999999999  0.24672  1.0000
  C   C204      1.0  0.7277  0.8399  0.9277  1.0000
  C   C205      1.0  0.7484199999999999  0.47572  0.41071999999999986  1.0000
  C   C206      1.0  0.21218  0.45143  0.4958  1.0000
  C   C207      1.0  0.17905999999999997  0.31676  0.31190999999999997  1.0000
  C   C208      1.0  0.52309  0.30856999999999996  0.23744999999999994  1.0000
  C   C209      1.0  0.60672  0.9053  0.31914  1.0000
  C   C210      1.0  0.55178  0.9864299999999999  0.25533  1.0000
  C   C211      1.0  0.38424  0.72058  0.25297  1.0000
  C   C212      1.0  0.90918  0.59382  0.25907  1.0000
  C   C213      1.0  0.68093  0.9453599999999999  0.8598899999999998  1.0000
  C   C214      1.0  0.9802599999999999  0.8869799999999999  0.68543  1.0000
  C   C215      1.0  0.28374999999999995  0.04441000000000002  0.49587  1.0000
  C   C216      1.0  0.08940999999999999  0.30473999999999996  0.33880999999999994  1.0000
  C   C217      1.0  0.09433999999999987  0.08116999999999985  0.8141099999999998  1.0000
  C   C218      1.0  0.6866299999999999  0.4027899999999999  0.7522599999999999  1.0000
  C   C219      1.0  0.06316  0.7631299999999998  0.07003  1.0000
  C   C220      1.0  0.0428999999999999  0.06768999999999989  0.7874099999999998  1.0000
  C   C221      1.0  0.6652899999999998  0.9091099999999999  0.25908  1.0000
  C   C222      1.0  0.69151  0.2856999999999999  0.76261  1.0000
  C   C223      1.0  0.36814  0.21434  0.38806  1.0000
  C   C224      1.0  0.9570999999999998  0.9323099999999999  0.21259  1.0000
  C   C225      1.0  0.16631  0.86798  0.82105  1.0000
  C   C226      1.0  0.67532  0.41702  0.36223999999999995  1.0000
  C   C227      1.0  0.28006999999999993  0.042239999999999965  0.3880899999999999  1.0000
  C   C228      1.0  0.5843499999999998  0.96845  0.27757  1.0000
  C   C229      1.0  0.47690999999999995  0.69143  0.7625499999999998  1.0000
  C   C230      1.0  0.32856  0.04741999999999997  0.21048999999999995  1.0000
  C   C231      1.0  0.28442999999999996  0.8381299999999999  0.18350999999999995  1.0000
  C   C232      1.0  0.9934599999999998  0.2718299999999999  0.8057199999999998  1.0000
  C   C233      1.0  0.6548699999999997  0.95315  0.8211  1.0000
  C   C234      1.0  0.11411999999999987  0.09099999999999983  0.7925599999999998  1.0000
  C   C235      1.0  0.34049999999999997  0.7710699999999999  0.22982999999999995  1.0000
  C   C236      1.0  0.42356999999999984  0.08104999999999993  0.8046199999999999  1.0000
  C   C237      1.0  0.15041999999999994  0.38609  0.18705999999999998  1.0000
  C   C238      1.0  0.5995  0.9662999999999999  0.8442199999999999  1.0000
  C   C239      1.0  0.23140999999999998  0.53147  0.20320999999999995  1.0000
  C   C240      1.0  0.9659199999999998  0.91058  0.6611699999999999  1.0000
  C   C241      1.0  0.6932699999999999  0.9368299999999999  0.9299299999999999  1.0000
  C   C242      1.0  0.6048399999999998  0.3583899999999999  0.6829299999999998  1.0000
  C   C243      1.0  0.6754499999999999  0.39522  0.3170699999999999  1.0000
  C   C244      1.0  0.9431700000000001  0.6647999999999998  0.8891999999999999  1.0000
  C   C245      1.0  0.64173  0.9219199999999999  0.31718  1.0000
  C   C246      1.0  0.08765999999999995  0.72771  0.92766  1.0000
  C   C247      1.0  0.6717899999999999  0.7599999999999999  0.8613999999999999  1.0000
  C   C248      1.0  0.8780099999999997  0.91912  0.14126999999999998  1.0000
  C   C249      1.0  0.15487999999999988  0.32680999999999993  0.3389599999999999  1.0000
  C   C250      1.0  0.11811999999999998  0.83697  0.7895099999999999  1.0000
  C   C251      1.0  0.68322  0.8670899999999999  0.6880299999999999  1.0000
  C   C252      1.0  0.3141399999999999  0.12474000000000002  0.73819  1.0000
  C   C253      1.0  0.67168  0.23137  0.20316999999999996  1.0000
  C   C254      1.0  0.7982699999999998  0.98021  0.68538  1.0000
  C   C255      1.0  0.9516  0.71118  0.40819  1.0000
  C   C256      1.0  0.8399599999999999  0.19998999999999986  0.9276199999999998  1.0000
  C   C257      1.0  0.8122  0.53393  0.80569  1.0000
  C   C258      1.0  0.18970999999999996  0.10132999999999995  0.8613999999999999  1.0000
  C   C259      1.0  0.11298999999999991  0.2948299999999999  0.31452999999999987  1.0000
  C   C260      1.0  0.30683999999999995  0.6909099999999999  0.7225299999999999  1.0000
  C   C261      1.0  0.031550000000000016  0.3067499999999999  0.72247  1.0000
  C   C262      1.0  0.29485999999999996  0.20165999999999992  0.3145999999999999  1.0000
  C   C263      1.0  0.0812099999999999  0.71985  0.8141999999999998  1.0000
  C   C264      1.0  0.78782  0.5485799999999998  0.5041999999999999  1.0000
  C   C265      1.0  0.9800999999999999  0.82617  0.61193  1.0000
  C   C266      1.0  0.59726  0.9344099999999999  0.24786999999999998  1.0000
  C   C267      1.0  0.046869999999999974  0.83363  0.17887999999999996  1.0000
  C   C268      1.0  0.53228  0.38425999999999993  0.2529799999999999  1.0000
  C   C269      1.0  0.2793699999999999  0.1312699999999999  0.7470199999999999  1.0000
  C   C270      1.0  0.10464999999999988  0.4949999999999999  0.7596599999999998  1.0000
  C   C271      1.0  0.03563999999999999  0.15072000000000002  0.41276  1.0000
  C   C272      1.0  0.2763099999999999  0.57639  0.19525999999999993  1.0000
  C   C273      1.0  0.27160999999999996  0.26804999999999995  0.31146999999999997  1.0000
  C   C274      1.0  0.7112299999999999  0.45661  0.40819  1.0000
  C   C275      1.0  0.4552999999999999  0.06202999999999995  0.82627  1.0000
  C   C276      1.0  0.79146  0.16971  0.88211  1.0000
  C   C277      1.0  0.5178  0.67342  0.45902  1.0000
  C   C278      1.0  0.41564999999999985  0.03154999999999989  0.7224299999999998  1.0000
  C   C279      1.0  0.2723  0.1601  0.0723  1.0000
  C   C280      1.0  0.41378999999999994  0.6066199999999999  0.31906999999999996  1.0000
  C   C281      1.0  0.69994  0.22093  0.79645  1.0000
  C   C282      1.0  0.9219  0.67548  0.31707999999999986  1.0000
  C   C283      1.0  0.38645  0.6857599999999998  0.26172999999999996  1.0000
  C   C284      1.0  0.8919099999999998  0.65423  0.61205  1.0000
  C   C285      1.0  0.8493399999999999  0.6229  0.58729  1.0000
  C   C286      1.0  0.2688799999999999  0.5517999999999998  0.25528  1.0000
  C   C287      1.0  0.29654999999999987  0.73116  0.7447799999999998  1.0000
  C   C288      1.0  0.95654  0.72846  0.6885899999999998  1.0000
  C   C289      1.0  0.9191199999999999  0.26317  0.1412  1.0000
  C   C290      1.0  0.5446999999999999  0.93797  0.17373  1.0000
  C   C291      1.0  0.03659  0.8009  0.18694  1.0000
  C   C292      1.0  0.04839999999999997  0.28883  0.59182  1.0000
  C   C293      1.0  0.9056599999999999  0.9188299999999999  0.18588999999999994  1.0000
  C   C294      1.0  0.32659  0.05878  0.54097  1.0000
  C   C295      1.0  0.054739999999999914  0.3246999999999999  0.6377799999999998  1.0000
  C   C296      1.0  0.68005  0.9360299999999999  0.24685  1.0000
  C   C297      1.0  0.16191  0.10090000000000005  0.81652  1.0000
  C   C298      1.0  0.9663299999999999  0.24487999999999993  0.8442899999999999  1.0000
  C   C299      1.0  0.91234  0.27228999999999987  0.07233999999999999  1.0000
  C   C300      1.0  0.34532  0.28442  0.18352  1.0000
  C   C301      1.0  0.2621899999999999  0.03565999999999997  0.41276999999999997  1.0000
  C   C302      1.0  0.95562  0.7877899999999998  0.50415  1.0000
  C   C303      1.0  0.40274  0.06560000000000002  0.75213  1.0000
  C   C304      1.0  0.20173  0.019800000000000016  0.31462  1.0000
  C   C305      1.0  0.6951799999999998  0.7505  0.66113  1.0000
  C   C306      1.0  0.09063999999999997  0.71248  0.88216  1.0000
  C   C307      1.0  0.7643299999999998  0.4553199999999999  0.8263499999999998  1.0000
  C   C308      1.0  0.65417  0.72002  0.61201  1.0000
  C   C309      1.0  0.5243  0.3377299999999999  0.58929  1.0000
  C   C310      1.0  0.73289  0.09435999999999994  0.81415  1.0000
  C   C311      1.0  0.7777999999999999  0.12199999999999998  0.85873  1.0000
  C   C312      1.0  0.50492  0.34504  0.24038  1.0000
  C   C313      1.0  0.20855  0.83029  0.11789  1.0000
  C   C314      1.0  0.05463999999999999  0.8208199999999998  0.14006  1.0000
  C   C315      1.0  0.83028  0.9093699999999999  0.11790999999999999  1.0000
  C   C316      1.0  0.7551599999999998  0.12202999999999999  0.15575  1.0000
  C   C317      1.0  0.34512999999999994  0.04686  0.17889999999999998  1.0000
  C   C318      1.0  0.22900999999999996  0.11067000000000003  0.77025  1.0000
  C   C319      1.0  0.9878  0.8450699999999999  0.66099  1.0000
  C   C320      1.0  0.9563099999999999  0.25770999999999994  0.8816099999999999  1.0000
  C   C321      1.0  0.8670599999999999  0.004889999999999992  0.68813  1.0000
  C   C322      1.0  0.93228  0.2554199999999999  0.21247999999999995  1.0000
  C   C323      1.0  0.37594999999999995  0.043729999999999984  0.11846  1.0000
  C   C324      1.0  0.9052799999999998  0.7124899999999998  0.3190899999999999  1.0000
  C   C325      1.0  0.04220999999999998  0.10813999999999997  0.38800999999999997  1.0000
  C   C326      1.0  0.86876  0.5324299999999997  0.2529799999999999  1.0000
  C   C327      1.0  0.94526  0.6753  0.36222  1.0000
  C   C328      1.0  0.54853  0.7162799999999999  0.50412  1.0000
  C   C329      1.0  0.69316  0.30909  0.27747  1.0000
  C   C330      1.0  0.9453599999999999  0.17918999999999985  0.8599399999999998  1.0000
  C   C331      1.0  0.8368799999999995  0.67128  0.7894099999999997  1.0000
  C   C332      1.0  0.65056  0.31345  0.24777  1.0000
  C   C333      1.0  0.7311199999999999  0.4481999999999999  0.7447299999999998  1.0000
  C   C334      1.0  0.7206299999999999  0.8687299999999998  0.2529799999999999  1.0000
  C   C335      1.0  0.07106999999999998  0.47684999999999994  0.76256  1.0000
  C   C336      1.0  0.9380299999999999  0.62909  0.17373999999999995  1.0000
  C   C337      1.0  0.41697999999999996  0.6868899999999998  0.36223  1.0000
  C   C338      1.0  0.99515  0.17907999999999996  0.31193999999999994  1.0000
  C   C339      1.0  0.5667  0.31085  0.24679  1.0000
  C   C340      1.0  0.71246  0.7914399999999999  0.88214  1.0000
  C   C341      1.0  0.9460399999999999  0.22452999999999995  0.8892699999999999  1.0000
  C   C342      1.0  0.3347099999999999  0.09090000000000001  0.74092  1.0000
  C   C343      1.0  0.2576  0.92529  0.88157  1.0000
  C   C344      1.0  0.06395000000000003  0.43324  0.75321  1.0000
  C   C345      1.0  0.49507999999999996  0.6549599999999998  0.75962  1.0000
  C   C346      1.0  0.7237  0.42360999999999993  0.8047399999999999  1.0000
  C   C347      1.0  0.8778999999999999  0.59941  0.84423  1.0000
  C   C348      1.0  0.90936  0.28752  0.11784  1.0000
  C   C349      1.0  0.7709899999999997  0.8893299999999996  0.22974999999999995  1.0000
  C   C350      1.0  0.91446  0.68076  0.8598399999999998  1.0000
  C   C351      1.0  0.29849999999999993  0.8858999999999999  0.20742999999999998  1.0000
  C   C352      1.0  0.9902799999999999  0.68436  0.18057  1.0000
  C   C353      1.0  0.71972  0.042939999999999943  0.7874899999999999  1.0000
  C   C354      1.0  0.82095  0.6832399999999997  0.68809  1.0000
  C   C355      1.0  0.32467999999999997  0.5829799999999999  0.6377599999999999  1.0000
  C   C356      1.0  0.28753999999999985  0.20856  0.11785999999999999  1.0000
  C   C357      1.0  0.30908  0.58434  0.27749  1.0000
  C   C358      1.0  0.16972000000000004  0.09063  0.88209  1.0000
  C   C359      1.0  0.12198999999999999  0.08087999999999997  0.85873  1.0000
  C   C360      1.0  0.17376999999999998  0.3681299999999999  0.388  1.0000
  C   C361      1.0  0.67341  0.9412199999999998  0.45902999999999994  1.0000
  C   C362      1.0  0.39515999999999984  0.6416099999999999  0.3170699999999999  1.0000
  C   C363      1.0  0.058719999999999904  0.21446999999999994  0.5409799999999999  1.0000
  C   C364      1.0  0.23673  0.9931099999999999  0.93001  1.0000
  C   C365      1.0  0.08554  0.31925  0.14017  1.0000
  C   C366      1.0  0.5830199999999996  0.3131099999999999  0.6377799999999998  1.0000
  C   C367      1.0  0.57587  0.38653  0.26176  1.0000
  C   C368      1.0  0.58621  0.39337999999999984  0.6809299999999998  1.0000
  C   C369      1.0  0.42413  0.61347  0.73824  1.0000
  C   C370      1.0  0.8337  0.13202999999999998  0.17894999999999994  1.0000
  C   C371      1.0  0.4333  0.68916  0.75321  1.0000
  C   C372      1.0  0.71993  0.9577599999999998  0.61191  1.0000
  C   C373      1.0  0.06772  0.74458  0.78752  1.0000
  C   C374      1.0  0.7124599999999999  0.41383  0.31906999999999996  1.0000
  C   C375      1.0  0.93684  0.23687999999999995  0.9299699999999997  1.0000
  C   C376      1.0  0.88588  0.909  0.20745  1.0000
  C   C377      1.0  0.71625  0.9555899999999999  0.50413  1.0000
  C   C378      1.0  0.5764299999999999  0.9189599999999999  0.19537999999999997  1.0000
  C   C379      1.0  0.3830799999999999  0.08804999999999999  0.6346  1.0000
  C   C380      1.0  0.4062599999999999  0.6500199999999999  0.7409499999999998  1.0000
  C   C381      1.0  0.89913  0.34532999999999997  0.18346  1.0000
  C   C382      1.0  0.19037  0.4962500000000001  0.18067  1.0000
  C   C383      1.0  0.10087  0.65467  0.81654  1.0000
  C   C384      1.0  0.9412799999999999  0.7855299999999998  0.45902999999999994  1.0000
  N   N1        1.0  0.6001199999999999  0.6389  0.7682599999999998  1.0000
  N   N2        1.0  0.91704  0.63925  0.27073  1.0000
  N   N3        1.0  0.01892999999999998  0.72165  0.16125999999999993  1.0000
  N   N4        1.0  0.13082999999999992  0.55797  0.7541299999999997  1.0000
  N   N5        1.0  0.05983  0.14723999999999995  0.48746  1.0000
  N   N6        1.0  0.85764  0.5603899999999999  0.8387099999999997  1.0000
  N   N7        1.0  0.6388499999999998  0.16821999999999993  0.7682099999999997  1.0000
  N   N8        1.0  0.61133  0.6862899999999998  0.7944899999999998  1.0000
  N   N9        1.0  0.99322  0.65312  0.13975999999999997  1.0000
  N   N10       1.0  0.83172  0.87062  0.23172999999999996  1.0000
  N   N11       1.0  0.6391799999999997  0.35375999999999996  0.27069  1.0000
  N   N12       1.0  0.14719  0.42762  0.48741  1.0000
  N   N13       1.0  0.10814999999999998  0.61127  0.79452  1.0000
  N   N14       1.0  0.006779999999999886  0.34688999999999987  0.8602399999999998  1.0000
  N   N15       1.0  0.34691999999999984  0.8534799999999998  0.8601699999999998  1.0000
  N   N16       1.0  0.1423599999999999  0.43960999999999995  0.16128999999999993  1.0000
  N   N17       1.0  0.8167499999999998  0.8918099999999999  0.20551999999999995  1.0000
  N   N18       1.0  0.35368  0.63149  0.27068  1.0000
  N   N19       1.0  0.17023  0.41802  0.46331  1.0000
  N   N20       1.0  0.27835999999999994  0.8577199999999998  0.8387099999999997  1.0000
  N   N21       1.0  0.72164  0.14229  0.16128999999999993  1.0000
  N   N22       1.0  0.18324999999999986  0.10819999999999988  0.7944799999999997  1.0000
  N   N23       1.0  0.3248299999999999  0.88259  0.8720799999999997  1.0000
  N   N24       1.0  0.6862399999999996  0.1832099999999999  0.7944399999999998  1.0000
  N   N25       1.0  0.06777000000000005  0.17397  0.53383  1.0000
  N   N26       1.0  0.8260699999999999  0.5339799999999999  0.4662199999999999  1.0000
  N   N27       1.0  0.65969  0.9401599999999999  0.51256  1.0000
  N   N28       1.0  0.4275999999999999  0.34026999999999996  0.4873899999999999  1.0000
  N   N29       1.0  0.43955  0.018979999999999997  0.16134  1.0000
  N   N30       1.0  0.16828999999999994  0.12937999999999997  0.76827  1.0000
  N   N31       1.0  0.6315600000000001  0.9170099999999999  0.27079  1.0000
  N   N32       1.0  0.93223  0.82603  0.46616999999999986  1.0000
  N   N33       1.0  0.04531999999999999  0.17028999999999994  0.46337  1.0000
  N   N34       1.0  0.14664  0.48677  0.13992  1.0000
  N   N35       1.0  0.010449999999999973  0.6751999999999999  0.12787999999999997  1.0000
  N   N36       1.0  0.86918  0.4420299999999999  0.24586999999999995  1.0000
  N   N37       1.0  0.17393999999999998  0.46602  0.53378  1.0000
  N   N38       1.0  0.31376  0.8168  0.20554999999999998  1.0000
  N   N39       1.0  0.48666  0.9933099999999999  0.13987999999999998  1.0000
  N   N40       1.0  0.5580499999999999  0.6232299999999998  0.7540599999999997  1.0000
  N   N41       1.0  0.5473199999999998  0.9894599999999999  0.8719999999999999  1.0000
  N   N42       1.0  0.46599999999999997  0.35992  0.53377  1.0000
  N   N43       1.0  0.9546799999999999  0.8297199999999999  0.53663  1.0000
  N   N44       1.0  0.9895499999999999  0.3248  0.87212  1.0000
  N   N45       1.0  0.45267999999999997  0.010549999999999974  0.12800999999999998  1.0000
  N   N46       1.0  0.64632  0.36852  0.72933  1.0000
  N   N47       1.0  0.8528099999999998  0.57238  0.5125899999999999  1.0000
  N   N48       1.0  0.80383  0.8691699999999999  0.24592999999999995  1.0000
  N   N49       1.0  0.85337  0.5132399999999998  0.8600799999999998  1.0000
  N   N50       1.0  0.70682  0.9546699999999999  0.53664  1.0000
  N   N51       1.0  0.36116  0.83178  0.23179  1.0000
  N   N52       1.0  0.5133499999999998  0.006689999999999869  0.8601199999999998  1.0000
  N   N53       1.0  0.1961699999999999  0.13082999999999992  0.7540699999999999  1.0000
  N   N54       1.0  0.35995  0.06782000000000003  0.53383  1.0000
  N   N55       1.0  0.5339999999999999  0.6400899999999998  0.46622999999999987  1.0000
  N   N56       1.0  0.8706699999999999  0.3999699999999998  0.23169999999999996  1.0000
  N   N57       1.0  0.3768299999999999  0.80391  0.24600999999999995  1.0000
  N   N58       1.0  0.98107  0.27835  0.83875  1.0000
  N   N59       1.0  0.38868  0.31372  0.20551  1.0000
  N   N60       1.0  0.3998799999999999  0.3610999999999999  0.23173999999999995  1.0000
  N   N61       1.0  0.36844  0.08298999999999998  0.72921  1.0000
  N   N62       1.0  0.29318  0.04534  0.46337  1.0000
  N   N63       1.0  0.44195  0.37677  0.24593999999999994  1.0000
  N   N64       1.0  0.89184  0.38873  0.20548  1.0000
  N   N65       1.0  0.58196  0.70686  0.53667  1.0000
  N   N66       1.0  0.9401699999999998  0.85277  0.51254  1.0000
  N   N67       1.0  0.12932999999999986  0.6000299999999998  0.7682999999999998  1.0000
  N   N68       1.0  0.62318  0.19609999999999997  0.7539999999999999  1.0000
  N   N69       1.0  0.36082  0.64624  0.72931  1.0000
  N   N70       1.0  0.8824999999999997  0.5472299999999998  0.8720399999999998  1.0000
  N   N71       1.0  0.0829599999999998  0.36074999999999985  0.7292699999999998  1.0000
  N   N72       1.0  0.5724  0.65973  0.51262  1.0000
  N   N73       1.0  0.56045  0.9810199999999999  0.83866  1.0000
  N   N74       1.0  0.34031999999999984  0.05984999999999993  0.4874399999999999  1.0000
  N   N75       1.0  0.4180499999999999  0.29313999999999996  0.4633299999999999  1.0000
  N   N76       1.0  0.11750999999999999  0.4527699999999999  0.12796  1.0000
  N   N77       1.0  0.64005  0.9321799999999999  0.4661799999999999  1.0000
  N   N78       1.0  0.67517  0.11740999999999999  0.12792  1.0000
  N   N79       1.0  0.6530799999999999  0.14652  0.13983  1.0000
  N   N80       1.0  0.82977  0.5819799999999998  0.5366899999999999  1.0000
  O   O1        1.0  0.21772999999999998  0.25015  0.19037999999999997  1.0000
  O   O2        1.0  0.27553  0.10798  0.27178  1.0000
  O   O3        1.0  0.2838  0.31183  0.33347  1.0000
  O   O4        1.0  0.23554  0.1318  0.054789999999999985  1.0000
  O   O5        1.0  0.18066999999999997  0.07662999999999999  0.94493  1.0000
  O   O6        1.0  0.10796999999999994  0.9962699999999999  0.2717399999999999  1.0000
  O   O7        1.0  0.9814199999999998  0.9360999999999999  0.25601  1.0000
  O   O8        1.0  0.0037299999999998723  0.83612  0.7282099999999998  1.0000
  O   O9        1.0  0.07577999999999999  0.7273499999999999  0.05420999999999999  1.0000
  O   O10       1.0  0.13166  0.8193099999999999  0.05502999999999999  1.0000
  O   O11       1.0  0.9423299999999998  0.20990999999999985  0.9454299999999998  1.0000
  O   O12       1.0  0.15072  0.75709  0.05522  1.0000
  O   O13       1.0  0.79715  0.64237  0.74851  1.0000
  O   O14       1.0  0.65004  0.88185  0.66931  1.0000
  O   O15       1.0  0.23382999999999998  0.23841999999999997  0.26776  1.0000
  O   O16       1.0  0.9784499999999999  0.32668  0.054159999999999986  1.0000
  O   O17       1.0  0.04677  0.9071299999999998  0.19389  1.0000
  O   O18       1.0  0.06006999999999998  0.78249  0.8098599999999999  1.0000
  O   O19       1.0  0.3574999999999999  0.04857999999999997  0.25139  1.0000
  O   O20       1.0  0.0029699999999999766  0.7356699999999998  0.9455099999999999  1.0000
  O   O21       1.0  0.75708  0.9045099999999998  0.05522  1.0000
  O   O22       1.0  0.021799999999999996  0.28368  0.33356  1.0000
  O   O23       1.0  0.7134299999999998  0.9536499999999999  0.8062799999999998  1.0000
  O   O24       1.0  0.6880699999999996  0.9503  0.6664499999999998  1.0000
  O   O25       1.0  0.6733499999999998  0.92433  0.9458599999999998  1.0000
  O   O26       1.0  0.021559999999999867  0.6733199999999999  0.9458299999999997  1.0000
  O   O27       1.0  0.21255  0.3499299999999999  0.33067  1.0000
  O   O28       1.0  0.31192  0.04968999999999998  0.33354  1.0000
  O   O29       1.0  0.9970299999999999  0.26433  0.05449999999999999  1.0000
  O   O30       1.0  0.79021  0.99692  0.05449999999999999  1.0000
  O   O31       1.0  0.24292000000000002  0.09550000000000006  0.9447799999999998  1.0000
  O   O32       1.0  0.0765999999999999  0.76433  0.94498  1.0000
  O   O33       1.0  0.81932  0.92336  0.05506  1.0000
  O   O34       1.0  0.057669999999999985  0.7900899999999998  0.05456999999999999  1.0000
  O   O35       1.0  0.72747  0.97845  0.05412  1.0000
  O   O36       1.0  0.20284999999999997  0.35763999999999996  0.25149999999999995  1.0000
  O   O37       1.0  0.89377  0.20295  0.25112  1.0000
  O   O38       1.0  0.06404  0.72552  0.74416  1.0000
  O   O39       1.0  0.20979999999999988  0.0030799999999999643  0.94552  1.0000
  O   O40       1.0  0.72447  0.89202  0.72822  1.0000
  O   O41       1.0  0.8492799999999998  0.24291000000000004  0.9447799999999998  1.0000
  O   O42       1.0  0.05013999999999999  0.021910000000000006  0.33373  1.0000
  O   O43       1.0  0.9399299999999999  0.21750999999999993  0.19014  1.0000
  O   O44       1.0  0.8525399999999999  0.7132699999999997  0.8062199999999999  1.0000
  O   O45       1.0  0.26433  0.05779999999999999  0.05469  1.0000
  O   O46       1.0  0.67989  0.018660000000000003  0.74437  1.0000
  O   O47       1.0  0.14745999999999998  0.28673  0.19377999999999995  1.0000
  O   O48       1.0  0.9044699999999998  0.29805  0.05516  1.0000
  O   O49       1.0  0.9498599999999997  0.9780899999999999  0.6662599999999997  1.0000
  O   O50       1.0  0.34996  0.11814999999999996  0.3306999999999999  1.0000
  O   O51       1.0  0.9805899999999999  0.21249  0.33061  1.0000
  O   O52       1.0  0.7498899999999998  0.027359999999999957  0.8095999999999999  1.0000
  O   O53       1.0  0.029269999999999973  0.23382999999999998  0.26757999999999993  1.0000
  O   O54       1.0  0.7356799999999999  0.9422199999999998  0.94533  1.0000
  O   O55       1.0  0.7615099999999999  0.96607  0.7321899999999999  1.0000
  O   O56       1.0  0.7162099999999999  0.6881699999999996  0.6665199999999998  1.0000
  O   O57       1.0  0.6425099999999999  0.95143  0.74862  1.0000
  O   O58       1.0  0.29819  0.15072999999999998  0.055279999999999996  1.0000
  O   O59       1.0  0.8683399999999998  0.18068999999999993  0.9449599999999998  1.0000
  O   O60       1.0  0.9664299999999999  0.97088  0.73252  1.0000
  O   O61       1.0  0.32012  0.98134  0.25561999999999996  1.0000
  O   O62       1.0  0.9707399999999998  0.76617  0.7324199999999997  1.0000
  O   O63       1.0  0.09552999999999985  0.7019499999999999  0.9448399999999998  1.0000
  O   O64       1.0  0.9242199999999999  0.27265  0.9458  1.0000
  O   O65       1.0  0.7018199999999999  0.8492699999999999  0.9447299999999997  1.0000
  O   O66       1.0  0.72572  0.6798999999999996  0.7443599999999998  1.0000
  O   O67       1.0  0.01940999999999992  0.78752  0.6693899999999998  1.0000
  O   O68       1.0  0.04826  0.8937699999999997  0.25117  1.0000
  O   O69       1.0  0.2501  0.97264  0.19041  1.0000
  O   O70       1.0  0.027329999999999917  0.06018999999999988  0.8098299999999998  1.0000
  O   O71       1.0  0.9782  0.7163299999999999  0.66644  1.0000
  O   O72       1.0  0.2725199999999998  0.021549999999999854  0.9458799999999998  1.0000
  O   O73       1.0  0.90718  0.14715  0.1939  1.0000
  O   O74       1.0  0.76617  0.76158  0.73224  1.0000
  O   O75       1.0  0.8362099999999998  0.7244699999999997  0.7282899999999999  1.0000
  O   O76       1.0  0.9726699999999999  0.9398299999999999  0.19017  1.0000
  O   O77       1.0  0.27428  0.32011  0.25564  1.0000
  O   O78       1.0  0.8817999999999999  0.019509999999999975  0.66952  1.0000
  O   O79       1.0  0.03357999999999998  0.02912999999999998  0.26749  1.0000
  O   O80       1.0  0.7822699999999998  0.7498499999999998  0.8096199999999998  1.0000
  O   O81       1.0  0.8920299999999998  0.003719999999999881  0.7282599999999998  1.0000
  O   O82       1.0  0.32665  0.07566999999999999  0.054139999999999994  1.0000
  O   O83       1.0  0.16379999999999995  0.27553  0.27171  1.0000
  O   O84       1.0  0.09281999999999992  0.8528499999999997  0.8060999999999998  1.0000
  O   O85       1.0  0.11819999999999997  0.9804999999999999  0.33048999999999995  1.0000
  O   O86       1.0  0.9962799999999999  0.16388  0.27179  1.0000
  O   O87       1.0  0.95175  0.10623999999999999  0.7488299999999999  1.0000
  O   O88       1.0  0.9359599999999999  0.27448  0.25584  1.0000
  O   O89       1.0  0.95322  0.09287  0.80611  1.0000
  O   O90       1.0  0.9233899999999999  0.23567  0.05502  1.0000
  O   O91       1.0  0.78745  0.65007  0.66933  1.0000
  O   O92       1.0  0.76446  0.8681999999999997  0.9451999999999998  1.0000
  O   O93       1.0  0.28657  0.04634000000000001  0.19372  1.0000
  O   O94       1.0  0.10622999999999981  0.79705  0.7488899999999997  1.0000
  O   O95       1.0  0.01856999999999991  0.06388999999999992  0.7439899999999999  1.0000
  O   O96       1.0  0.23849  0.03393999999999998  0.26782  1.0000
