data_image0
_chemical_formula_structural       Mg12In12H240C432O108
_chemical_formula_sum              "Mg12 In12 H240 C432 O108"
_cell_length_a       32.94297
_cell_length_b       32.93444
_cell_length_c       36.07484
_cell_angle_alpha    62.84237999999999
_cell_angle_beta     62.83148
_cell_angle_gamma    59.97301

_space_group_name_H-M_alt    "P 1"
_space_group_IT_number       1

loop_
  _space_group_symop_operation_xyz
  'x, y, z'

loop_
  _atom_site_type_symbol
  _atom_site_label
  _atom_site_symmetry_multiplicity
  _atom_site_fract_x
  _atom_site_fract_y
  _atom_site_fract_z
  _atom_site_occupancy
  Mg  Mg1       1.0  0.92378  0.4653800000000001  0.28401  1.0000
  Mg  Mg2       1.0  0.3267799999999999  0.9236100000000003  0.28410000000000013  1.0000
  Mg  Mg3       1.0  0.46545000000000014  0.32674  0.28406  1.0000
  Mg  Mg4       1.0  0.17320000000000002  0.03444  0.21596  1.0000
  Mg  Mg5       1.0  0.034449999999999946  0.57625  0.21601000000000006  1.0000
  Mg  Mg6       1.0  0.57614  0.17325000000000002  0.21593000000000007  1.0000
  Mg  Mg7       1.0  0.0761699999999999  0.53461  0.7160100000000003  1.0000
  Mg  Mg8       1.0  0.6731900000000001  0.0763099999999999  0.7159100000000003  1.0000
  Mg  Mg9       1.0  0.5345199999999998  0.6732499999999999  0.7159300000000002  1.0000
  Mg  Mg10      1.0  0.8268099999999999  0.9656399999999999  0.7840200000000003  1.0000
  Mg  Mg11      1.0  0.9656000000000008  0.42376  0.78397  1.0000
  Mg  Mg12      1.0  0.4238500000000004  0.82675  0.78406  1.0000
  In  In1       1.0  0.94509  0.5615  0.20132000000000005  1.0000
  In  In2       1.0  0.2919800000000001  0.94515  0.20131000000000004  1.0000
  In  In3       1.0  0.56162  0.29186000000000006  0.20130000000000006  1.0000
  In  In4       1.0  0.20797999999999994  0.9384900000000002  0.29876000000000014  1.0000
  In  In5       1.0  0.9385499999999999  0.55481  0.2987  1.0000
  In  In6       1.0  0.5549399999999999  0.2079  0.29869  1.0000
  In  In7       1.0  0.05486999999999986  0.4385299999999999  0.7987200000000002  1.0000
  In  In8       1.0  0.7080299999999999  0.05485999999999997  0.7986800000000001  1.0000
  In  In9       1.0  0.4383699999999999  0.7081399999999999  0.7986900000000002  1.0000
  In  In10      1.0  0.7919899999999999  0.06150999999999995  0.7012400000000002  1.0000
  In  In11      1.0  0.06148999999999986  0.44514  0.7013000000000003  1.0000
  In  In12      1.0  0.4450499999999998  0.7921  0.7013000000000003  1.0000
  H   H1        1.0  0.25011999999999995  0.35432  0.18763000000000005  1.0000
  H   H2        1.0  0.14015  0.28829  0.23467  1.0000
  H   H3        1.0  0.19223  0.40666  0.14943  1.0000
  H   H4        1.0  0.05441999999999999  0.34897  0.2500500000000001  1.0000
  H   H5        1.0  0.10604999999999998  0.4668700000000001  0.16462000000000004  1.0000
  H   H6        1.0  0.2859499999999999  0.69903  0.8606800000000002  1.0000
  H   H7        1.0  0.3680300000000001  0.6010599999999999  0.7818400000000002  1.0000
  H   H8        1.0  0.22128  0.6630299999999999  0.8987900000000002  1.0000
  H   H9        1.0  0.3047699999999998  0.5630499999999999  0.8210600000000002  1.0000
  H   H10       1.0  0.14732999999999996  0.57121  0.76243  1.0000
  H   H11       1.0  0.10625000000000004  0.46037000000000006  0.87728  1.0000
  H   H12       1.0  0.22975000000000004  0.57058  0.83245  1.0000
  H   H13       1.0  0.17534000000000005  0.59116  0.80324  1.0000
  H   H14       1.0  0.13578000000000007  0.4783899999999999  0.91852  1.0000
  H   H15       1.0  0.060469999999999906  0.58235  0.9923500000000002  1.0000
  H   H16       1.0  0.11671999999999991  0.53542  0.9491700000000002  1.0000
  H   H17       1.0  0.20349  0.5996500000000001  0.9478300000000002  1.0000
  H   H18       1.0  0.18914999999999993  0.55491  0.017480000000000006  1.0000
  H   H19       1.0  0.13813999999999999  0.56478  0.09161  1.0000
  H   H20       1.0  0.010439999999999998  0.59011  0.06722000000000003  1.0000
  H   H21       1.0  0.20786999999999994  0.25007000000000007  0.18779000000000007  1.0000
  H   H22       1.0  0.33684  0.13995000000000005  0.23474  1.0000
  H   H23       1.0  0.25161  0.19211999999999999  0.14946000000000007  1.0000
  H   H24       1.0  0.34632000000000007  0.05428999999999996  0.2502500000000001  1.0000
  H   H25       1.0  0.26223  0.10603000000000004  0.16481000000000007  1.0000
  H   H26       1.0  0.1544699999999999  0.28580000000000005  0.86075  1.0000
  H   H27       1.0  0.24906999999999999  0.36794  0.78175  1.0000
  H   H28       1.0  0.2172399999999999  0.22112000000000004  0.8987500000000002  1.0000
  H   H29       1.0  0.31122999999999995  0.30468999999999996  0.8209400000000002  1.0000
  H   H30       1.0  0.5192100000000001  0.14716  0.76243  1.0000
  H   H31       1.0  0.5562600000000001  0.10602999999999996  0.87726  1.0000
  H   H32       1.0  0.36734999999999995  0.22959999999999992  0.8324200000000003  1.0000
  H   H33       1.0  0.43029  0.17523999999999992  0.8032800000000002  1.0000
  H   H34       1.0  0.46730999999999995  0.13567999999999994  0.9185300000000002  1.0000
  H   H35       1.0  0.36494999999999994  0.06033999999999987  0.9924200000000002  1.0000
  H   H36       1.0  0.3989100000000001  0.1164999999999999  0.9491500000000003  1.0000
  H   H37       1.0  0.24916999999999997  0.20352999999999993  0.9477600000000003  1.0000
  H   H38       1.0  0.23855999999999997  0.18929  0.01734  1.0000
  H   H39       1.0  0.20545999999999995  0.13842  0.09145  1.0000
  H   H40       1.0  0.3322000000000001  0.010489999999999994  0.06725000000000003  1.0000
  H   H41       1.0  0.3543700000000001  0.20782  0.18767  1.0000
  H   H42       1.0  0.28835999999999995  0.33705  0.23464000000000004  1.0000
  H   H43       1.0  0.40674000000000005  0.25174  0.14932000000000006  1.0000
  H   H44       1.0  0.34896000000000005  0.34648  0.25013  1.0000
  H   H45       1.0  0.4668800000000002  0.26234000000000013  0.16464  1.0000
  H   H46       1.0  0.6990499999999998  0.15447000000000002  0.8607200000000003  1.0000
  H   H47       1.0  0.6013399999999999  0.24904999999999994  0.7816300000000003  1.0000
  H   H48       1.0  0.6629000000000002  0.21731  0.89867  1.0000
  H   H49       1.0  0.5630899999999999  0.31124999999999997  0.82081  1.0000
  H   H50       1.0  0.5712  0.51919  0.7623100000000003  1.0000
  H   H51       1.0  0.4603599999999998  0.5563300000000002  0.87717  1.0000
  H   H52       1.0  0.5704799999999999  0.36739999999999995  0.8323500000000003  1.0000
  H   H53       1.0  0.59128  0.4303100000000002  0.8032  1.0000
  H   H54       1.0  0.47854000000000013  0.4674199999999999  0.9184500000000002  1.0000
  H   H55       1.0  0.5821999999999999  0.36491999999999997  0.9924700000000002  1.0000
  H   H56       1.0  0.53549  0.39887999999999996  0.9490800000000003  1.0000
  H   H57       1.0  0.59961  0.24919999999999995  0.9476100000000002  1.0000
  H   H58       1.0  0.5547300000000002  0.23868000000000006  0.01728  1.0000
  H   H59       1.0  0.56452  0.20552000000000006  0.09144  1.0000
  H   H60       1.0  0.58991  0.33216  0.06732000000000003  1.0000
  H   H61       1.0  0.29219  0.14559  0.3123  1.0000
  H   H62       1.0  0.16291999999999995  0.21162000000000003  0.26532  1.0000
  H   H63       1.0  0.24824999999999997  0.09322999999999997  0.3506000000000001  1.0000
  H   H64       1.0  0.15343  0.15102000000000002  0.2499  1.0000
  H   H65       1.0  0.2376  0.03309999999999999  0.33534  1.0000
  H   H66       1.0  0.34552  0.80099  0.63927  1.0000
  H   H67       1.0  0.25078  0.8987199999999999  0.7184100000000002  1.0000
  H   H68       1.0  0.28277999999999986  0.83712  0.60129  1.0000
  H   H69       1.0  0.18867999999999982  0.9368900000000003  0.67919  1.0000
  H   H70       1.0  0.9807200000000001  0.92885  0.7377100000000002  1.0000
  H   H71       1.0  0.9437300000000001  0.03958000000000001  0.62278  1.0000
  H   H72       1.0  0.1325400000000001  0.92952  0.66768  1.0000
  H   H73       1.0  0.0696499999999997  0.9086900000000001  0.6968700000000002  1.0000
  H   H74       1.0  0.032679999999999904  0.021399999999999943  0.5815700000000003  1.0000
  H   H75       1.0  0.1351399999999999  0.9177800000000003  0.50754  1.0000
  H   H76       1.0  0.10109000000000005  0.9645399999999998  0.5509600000000002  1.0000
  H   H77       1.0  0.2507599999999996  0.9004300000000002  0.5523200000000003  1.0000
  H   H78       1.0  0.2613200000000003  0.94523  0.4827700000000001  1.0000
  H   H79       1.0  0.29455  0.93538  0.4086  1.0000
  H   H80       1.0  0.16794999999999993  0.90997  0.43271  1.0000
  H   H81       1.0  0.14571000000000003  0.24988  0.31235  1.0000
  H   H82       1.0  0.2116  0.35998  0.26533  1.0000
  H   H83       1.0  0.09347000000000001  0.30766  0.35055  1.0000
  H   H84       1.0  0.1508899999999999  0.44561  0.24988000000000005  1.0000
  H   H85       1.0  0.033100000000000004  0.39377  0.33538000000000007  1.0000
  H   H86       1.0  0.8009299999999998  0.21411999999999995  0.6392600000000003  1.0000
  H   H87       1.0  0.8985900000000001  0.1320399999999999  0.7183700000000002  1.0000
  H   H88       1.0  0.8370900000000001  0.27867999999999993  0.6011500000000002  1.0000
  H   H89       1.0  0.9368500000000001  0.19512999999999997  0.67906  1.0000
  H   H90       1.0  0.9288899999999999  0.3527500000000001  0.7375800000000002  1.0000
  H   H91       1.0  0.03955999999999995  0.39389999999999986  0.6226400000000002  1.0000
  H   H92       1.0  0.9294800000000001  0.27016999999999997  0.6676000000000002  1.0000
  H   H93       1.0  0.9089499999999998  0.3245999999999999  0.6968700000000002  1.0000
  H   H94       1.0  0.021569999999999905  0.36419999999999997  0.5815100000000002  1.0000
  H   H95       1.0  0.91766  0.43953  0.50758  1.0000
  H   H96       1.0  0.9645100000000002  0.38327999999999995  0.55095  1.0000
  H   H97       1.0  0.9003799999999998  0.29643  0.55225  1.0000
  H   H98       1.0  0.94515  0.3106400000000001  0.4826600000000001  1.0000
  H   H99       1.0  0.93541  0.3615  0.40849  1.0000
  H   H100      1.0  0.9099299999999998  0.48940000000000006  0.4326800000000001  1.0000
  H   H101      1.0  0.24994999999999995  0.2921100000000001  0.31221  1.0000
  H   H102      1.0  0.35997  0.16313  0.26532  1.0000
  H   H103      1.0  0.3077599999999999  0.24850999999999998  0.3504700000000001  1.0000
  H   H104      1.0  0.4456  0.1536  0.24981000000000006  1.0000
  H   H105      1.0  0.39389000000000013  0.23777  0.33524000000000004  1.0000
  H   H106      1.0  0.21414999999999992  0.3455799999999999  0.6392100000000002  1.0000
  H   H107      1.0  0.13211000000000012  0.2508799999999999  0.71825  1.0000
  H   H108      1.0  0.2788799999999999  0.28275999999999996  0.6011900000000002  1.0000
  H   H109      1.0  0.19535999999999995  0.18873  0.679  1.0000
  H   H110      1.0  0.3529600000000001  0.98071  0.7375600000000002  1.0000
  H   H111      1.0  0.39415000000000006  0.9437200000000001  0.62267  1.0000
  H   H112      1.0  0.27028  0.1326499999999999  0.6675600000000003  1.0000
  H   H113      1.0  0.3246899999999999  0.06967999999999999  0.6968  1.0000
  H   H114      1.0  0.36438  0.03273000000000002  0.58145  1.0000
  H   H115      1.0  0.43959  0.13511  0.50752  1.0000
  H   H116      1.0  0.38348  0.10105999999999993  0.5508700000000002  1.0000
  H   H117      1.0  0.29652999999999996  0.25081999999999993  0.5522800000000002  1.0000
  H   H118      1.0  0.3106  0.26145  0.48267  1.0000
  H   H119      1.0  0.36144  0.2946  0.4085600000000001  1.0000
  H   H120      1.0  0.48943  0.16793  0.4326800000000001  1.0000
  H   H121      1.0  0.74984  0.64568  0.81238  1.0000
  H   H122      1.0  0.8597800000000001  0.71171  0.7653600000000003  1.0000
  H   H123      1.0  0.80775  0.5933399999999999  0.8506  1.0000
  H   H124      1.0  0.9455299999999999  0.6510599999999999  0.7499300000000002  1.0000
  H   H125      1.0  0.8939400000000002  0.53312  0.8354000000000003  1.0000
  H   H126      1.0  0.71402  0.30096  0.13933  1.0000
  H   H127      1.0  0.63195  0.39891  0.21821000000000004  1.0000
  H   H128      1.0  0.7786900000000003  0.33695  0.10125000000000002  1.0000
  H   H129      1.0  0.6952099999999999  0.4369199999999999  0.17896000000000006  1.0000
  H   H130      1.0  0.85266  0.42878  0.23760000000000006  1.0000
  H   H131      1.0  0.8937500000000002  0.5396199999999999  0.12276  1.0000
  H   H132      1.0  0.7702599999999998  0.42943  0.16755  1.0000
  H   H133      1.0  0.8246500000000004  0.40886  0.19677  1.0000
  H   H134      1.0  0.8642100000000001  0.5216  0.08153000000000003  1.0000
  H   H135      1.0  0.9395200000000004  0.41764  0.00763  1.0000
  H   H136      1.0  0.88329  0.46454  0.05084  1.0000
  H   H137      1.0  0.79648  0.40035  0.05219000000000001  1.0000
  H   H138      1.0  0.81085  0.4450599999999999  0.9825200000000002  1.0000
  H   H139      1.0  0.8618400000000002  0.43523000000000006  0.90837  1.0000
  H   H140      1.0  0.9895400000000001  0.40987  0.9327700000000002  1.0000
  H   H141      1.0  0.7921000000000005  0.74991  0.81225  1.0000
  H   H142      1.0  0.6631899999999998  0.86006  0.76526  1.0000
  H   H143      1.0  0.7484  0.8078  0.8505700000000003  1.0000
  H   H144      1.0  0.65373  0.94571  0.74979  1.0000
  H   H145      1.0  0.73777  0.8938999999999999  0.8352900000000002  1.0000
  H   H146      1.0  0.84556  0.71421  0.13919  1.0000
  H   H147      1.0  0.75093  0.6320800000000002  0.21822000000000005  1.0000
  H   H148      1.0  0.7827599999999999  0.7789000000000001  0.10122000000000003  1.0000
  H   H149      1.0  0.68877  0.69534  0.17902000000000007  1.0000
  H   H150      1.0  0.48073999999999983  0.8528700000000001  0.23756000000000005  1.0000
  H   H151      1.0  0.44373  0.89401  0.12270000000000003  1.0000
  H   H152      1.0  0.63264  0.77036  0.16754  1.0000
  H   H153      1.0  0.56968  0.82475  0.19672000000000006  1.0000
  H   H154      1.0  0.53269  0.8643500000000001  0.08145  1.0000
  H   H155      1.0  0.63505  0.9396600000000003  0.0075200000000000015  1.0000
  H   H156      1.0  0.6010699999999999  0.88351  0.05084  1.0000
  H   H157      1.0  0.7508200000000002  0.79652  0.05221000000000001  1.0000
  H   H158      1.0  0.7614  0.8107400000000001  0.9826  1.0000
  H   H159      1.0  0.7945399999999999  0.86161  0.9085  1.0000
  H   H160      1.0  0.6678000000000001  0.98956  0.9327200000000002  1.0000
  H   H161      1.0  0.6456199999999999  0.79221  0.8122900000000002  1.0000
  H   H162      1.0  0.7116399999999999  0.6629900000000004  0.76533  1.0000
  H   H163      1.0  0.5932299999999999  0.7483100000000003  0.85062  1.0000
  H   H164      1.0  0.6510699999999997  0.6534900000000001  0.74986  1.0000
  H   H165      1.0  0.5331199999999998  0.7376400000000001  0.8353400000000002  1.0000
  H   H166      1.0  0.30093000000000003  0.84552  0.13924  1.0000
  H   H167      1.0  0.39865  0.75097  0.21836000000000005  1.0000
  H   H168      1.0  0.3371199999999999  0.78264  0.10131  1.0000
  H   H169      1.0  0.43689  0.6887500000000001  0.1792  1.0000
  H   H170      1.0  0.42878999999999967  0.48080000000000006  0.23767000000000005  1.0000
  H   H171      1.0  0.5396399999999999  0.44369000000000003  0.12279  1.0000
  H   H172      1.0  0.42952  0.6326  0.16766  1.0000
  H   H173      1.0  0.4087300000000002  0.5696799999999999  0.19681000000000007  1.0000
  H   H174      1.0  0.5214700000000002  0.53261  0.08154  1.0000
  H   H175      1.0  0.41778000000000015  0.63507  0.00754  1.0000
  H   H176      1.0  0.46449  0.60111  0.05094  1.0000
  H   H177      1.0  0.40039999999999987  0.7507900000000002  0.05238000000000002  1.0000
  H   H178      1.0  0.44524999999999976  0.7613000000000001  0.98275  1.0000
  H   H179      1.0  0.4354600000000002  0.7944699999999999  0.9085700000000002  1.0000
  H   H180      1.0  0.41008  0.66783  0.9326800000000002  1.0000
  H   H181      1.0  0.7078499999999996  0.85438  0.6877100000000003  1.0000
  H   H182      1.0  0.8370899999999999  0.7883899999999999  0.7347000000000002  1.0000
  H   H183      1.0  0.7517499999999999  0.9067600000000001  0.6494100000000003  1.0000
  H   H184      1.0  0.8465200000000005  0.8490299999999998  0.7501300000000002  1.0000
  H   H185      1.0  0.7623599999999999  0.9669000000000001  0.66469  1.0000
  H   H186      1.0  0.65449  0.199  0.3607100000000001  1.0000
  H   H187      1.0  0.7492200000000002  0.10128000000000001  0.28159  1.0000
  H   H188      1.0  0.71724  0.16287999999999997  0.3986900000000001  1.0000
  H   H189      1.0  0.81134  0.06309  0.32079  1.0000
  H   H190      1.0  0.019229999999999966  0.07118999999999995  0.2623000000000001  1.0000
  H   H191      1.0  0.0562499999999999  0.9604700000000003  0.37721  1.0000
  H   H192      1.0  0.8674299999999999  0.07049999999999995  0.3322900000000001  1.0000
  H   H193      1.0  0.93032  0.09135999999999996  0.3031000000000001  1.0000
  H   H194      1.0  0.9673  0.9786000000000002  0.41845  1.0000
  H   H195      1.0  0.8648700000000001  0.08221999999999995  0.49242000000000014  1.0000
  H   H196      1.0  0.8988999999999999  0.03545999999999999  0.44903000000000004  1.0000
  H   H197      1.0  0.7492399999999999  0.09953  0.44766  1.0000
  H   H198      1.0  0.7386799999999999  0.05474999999999998  0.51721  1.0000
  H   H199      1.0  0.7055  0.06451999999999998  0.59139  1.0000
  H   H200      1.0  0.8320799999999999  0.08994  0.5673  1.0000
  H   H201      1.0  0.8543100000000002  0.75007  0.6877  1.0000
  H   H202      1.0  0.7884400000000001  0.63998  0.7346600000000002  1.0000
  H   H203      1.0  0.9065499999999999  0.6923000000000001  0.64938  1.0000
  H   H204      1.0  0.84916  0.55435  0.7500900000000003  1.0000
  H   H205      1.0  0.9669200000000002  0.60621  0.6645800000000002  1.0000
  H   H206      1.0  0.1990599999999999  0.78586  0.3607100000000001  1.0000
  H   H207      1.0  0.10139999999999998  0.86791  0.28163  1.0000
  H   H208      1.0  0.1628999999999999  0.72132  0.3988600000000001  1.0000
  H   H209      1.0  0.06314000000000004  0.80484  0.32095  1.0000
  H   H210      1.0  0.07114999999999994  0.64724  0.2624200000000001  1.0000
  H   H211      1.0  0.9604700000000004  0.6060500000000001  0.37734  1.0000
  H   H212      1.0  0.07054000000000002  0.72977  0.3324  1.0000
  H   H213      1.0  0.09107999999999997  0.67536  0.30317  1.0000
  H   H214      1.0  0.97845  0.6357199999999998  0.4185100000000001  1.0000
  H   H215      1.0  0.0823399999999999  0.5604400000000002  0.49242000000000014  1.0000
  H   H216      1.0  0.035459999999999825  0.6167000000000002  0.4490600000000001  1.0000
  H   H217      1.0  0.09960999999999996  0.70356  0.44774000000000014  1.0000
  H   H218      1.0  0.054819999999999806  0.6893700000000001  0.5173400000000002  1.0000
  H   H219      1.0  0.06460999999999996  0.6385100000000001  0.59148  1.0000
  H   H220      1.0  0.09008000000000001  0.51059  0.56732  1.0000
  H   H221      1.0  0.75009  0.70786  0.6878000000000002  1.0000
  H   H222      1.0  0.6400299999999997  0.8368600000000002  0.7347000000000002  1.0000
  H   H223      1.0  0.69227  0.7514900000000002  0.6495200000000002  1.0000
  H   H224      1.0  0.5544  0.8463900000000001  0.7501700000000002  1.0000
  H   H225      1.0  0.6061499999999999  0.7622200000000001  0.66474  1.0000
  H   H226      1.0  0.7859399999999997  0.6544100000000003  0.3607100000000001  1.0000
  H   H227      1.0  0.8679199999999999  0.74915  0.28172  1.0000
  H   H228      1.0  0.7211700000000001  0.7172  0.3987400000000001  1.0000
  H   H229      1.0  0.8046400000000002  0.8112800000000002  0.32096  1.0000
  H   H230      1.0  0.64706  0.019289999999999974  0.2624200000000001  1.0000
  H   H231      1.0  0.60586  0.05628999999999998  0.3772900000000001  1.0000
  H   H232      1.0  0.72967  0.86734  0.3324200000000001  1.0000
  H   H233      1.0  0.67532  0.93032  0.30318  1.0000
  H   H234      1.0  0.6356200000000004  0.96728  0.4185300000000001  1.0000
  H   H235      1.0  0.5604  0.8649099999999998  0.4925  1.0000
  H   H236      1.0  0.6165600000000002  0.89894  0.44914  1.0000
  H   H237      1.0  0.7034699999999997  0.7491900000000002  0.44773000000000013  1.0000
  H   H238      1.0  0.6893799999999999  0.73855  0.51735  1.0000
  H   H239      1.0  0.6385299999999999  0.70537  0.59144  1.0000
  H   H240      1.0  0.5105499999999998  0.8320600000000002  0.56732  1.0000
  C   C1        1.0  0.22334  0.30683  0.1872  1.0000
  C   C2        1.0  0.2595099999999998  0.3179300000000001  0.18692  1.0000
  C   C3        1.0  0.13278000000000004  0.32732999999999995  0.21881000000000006  1.0000
  C   C4        1.0  0.16218999999999995  0.39384  0.17157  1.0000
  C   C5        1.0  0.07513999999999993  0.41151  0.20850000000000005  1.0000
  C   C6        1.0  0.08489999999999999  0.36096  0.22759000000000004  1.0000
  C   C7        1.0  0.0237999999999999  0.4475900000000001  0.22061  1.0000
  C   C8        1.0  0.11415999999999994  0.4276100000000001  0.17966  1.0000
  C   C9        1.0  0.17250999999999994  0.3430600000000001  0.19157  1.0000
  C   C10       1.0  0.2895  0.66924  0.85248  1.0000
  C   C11       1.0  0.3713600000000001  0.6711  0.79916  1.0000
  C   C12       1.0  0.3313800000000001  0.6511099999999999  0.8199800000000003  1.0000
  C   C13       1.0  0.3358700000000002  0.61387  0.80776  1.0000
  C   C14       1.0  0.25389999999999996  0.6485599999999999  0.8739600000000002  1.0000
  C   C15       1.0  0.2213400000000001  0.5873600000000001  0.88735  1.0000
  C   C16       1.0  0.25892000000000004  0.60959  0.86343  1.0000
  C   C17       1.0  0.3001999999999998  0.5931700000000002  0.82947  1.0000
  C   C18       1.0  0.12419999999999999  0.5152699999999999  0.8176000000000002  1.0000
  C   C19       1.0  0.14507999999999988  0.55119  0.7965800000000002  1.0000
  C   C20       1.0  0.12149999999999994  0.48888999999999994  0.8616100000000002  1.0000
  C   C21       1.0  0.10328999999999988  0.50685  0.7936400000000002  1.0000
  C   C22       1.0  0.20980999999999983  0.5691700000000001  0.8664700000000002  1.0000
  C   C23       1.0  0.1611599999999998  0.5617900000000001  0.8195000000000002  1.0000
  C   C24       1.0  0.17188999999999993  0.5508900000000002  0.88808  1.0000
  C   C25       1.0  0.1572399999999999  0.53661  0.8640400000000003  1.0000
  C   C26       1.0  0.13779000000000016  0.49941  0.88452  1.0000
  C   C27       1.0  0.0778  0.57768  0.0142  1.0000
  C   C28       1.0  0.15740999999999994  0.56677  0.9541300000000003  1.0000
  C   C29       1.0  0.14637000000000008  0.5493199999999999  0.9321500000000003  1.0000
  C   C30       1.0  0.04009000000000008  0.58285  0.12854  1.0000
  C   C31       1.0  0.19499000000000016  0.58558  0.93131  1.0000
  C   C32       1.0  0.12835999999999997  0.56846  0.99941  1.0000
  C   C33       1.0  0.14985  0.56345  0.02798  1.0000
  C   C34       1.0  0.12163000000000002  0.56857  0.06953  1.0000
  C   C35       1.0  0.07116999999999998  0.57826  0.08375000000000003  1.0000
  C   C36       1.0  0.0496  0.5825  0.055750000000000015  1.0000
  C   C37       1.0  0.2826899999999999  0.22324999999999998  0.18716000000000005  1.0000
  C   C38       1.0  0.23564999999999997  0.25944  0.18695000000000006  1.0000
  C   C39       1.0  0.32103000000000004  0.13264  0.21885  1.0000
  C   C40       1.0  0.27235  0.16209999999999997  0.17160000000000006  1.0000
  C   C41       1.0  0.30471000000000004  0.07502999999999997  0.20863000000000007  1.0000
  C   C42       1.0  0.32641000000000003  0.08477999999999998  0.22770000000000007  1.0000
  C   C43       1.0  0.30785000000000007  0.023739999999999994  0.22065000000000007  1.0000
  C   C44       1.0  0.27844999999999986  0.11407999999999999  0.17976000000000006  1.0000
  C   C45       1.0  0.29287  0.17240999999999998  0.19154000000000004  1.0000
  C   C46       1.0  0.18892000000000003  0.28935  0.85248  1.0000
  C   C47       1.0  0.1583099999999999  0.37128999999999995  0.7992800000000002  1.0000
  C   C48       1.0  0.19755999999999985  0.3312700000000001  0.8200000000000002  1.0000
  C   C49       1.0  0.24254999999999993  0.33577999999999997  0.8076800000000002  1.0000
  C   C50       1.0  0.22379999999999992  0.25376999999999994  0.8739200000000003  1.0000
  C   C51       1.0  0.30411000000000005  0.22127999999999995  0.8873100000000003  1.0000
  C   C52       1.0  0.26823  0.2588599999999999  0.8633600000000002  1.0000
  C   C53       1.0  0.27726999999999996  0.3001299999999999  0.8293700000000003  1.0000
  C   C54       1.0  0.5429899999999999  0.12402999999999992  0.8176200000000002  1.0000
  C   C55       1.0  0.50724  0.14492000000000002  0.79659  1.0000
  C   C56       1.0  0.5281100000000004  0.12129999999999999  0.86164  1.0000
  C   C57       1.0  0.5962500000000004  0.10319999999999994  0.7935900000000002  1.0000
  C   C58       1.0  0.3547100000000001  0.2096899999999999  0.8664600000000002  1.0000
  C   C59       1.0  0.45765  0.16101  0.81949  1.0000
  C   C60       1.0  0.38928999999999997  0.17173999999999992  0.8880900000000003  1.0000
  C   C61       1.0  0.4422399999999998  0.15705999999999995  0.8640400000000003  1.0000
  C   C62       1.0  0.47839000000000004  0.13760999999999995  0.8845300000000003  1.0000
  C   C63       1.0  0.3304000000000001  0.07778  0.014210000000000004  1.0000
  C   C64       1.0  0.3218499999999999  0.15733999999999998  0.9541100000000002  1.0000
  C   C65       1.0  0.37233999999999995  0.14618999999999988  0.9321500000000003  1.0000
  C   C66       1.0  0.24831999999999999  0.040350000000000004  0.12847  1.0000
  C   C67       1.0  0.28828  0.19495999999999994  0.9312800000000002  1.0000
  C   C68       1.0  0.30388999999999994  0.12835999999999997  0.9993800000000002  1.0000
  C   C69       1.0  0.25880000000000003  0.14999  0.02786  1.0000
  C   C70       1.0  0.2403000000000001  0.12184000000000005  0.06942  1.0000
  C   C71       1.0  0.26675  0.07133999999999999  0.08369000000000003  1.0000
  C   C72       1.0  0.31215  0.04966999999999999  0.055770000000000014  1.0000
  C   C73       1.0  0.30687999999999993  0.28259  0.18721  1.0000
  C   C74       1.0  0.31799000000000005  0.23556000000000002  0.18693  1.0000
  C   C75       1.0  0.32738  0.3210800000000001  0.21883000000000005  1.0000
  C   C76       1.0  0.39387  0.27237  0.17156000000000005  1.0000
  C   C77       1.0  0.41154999999999997  0.30470000000000014  0.20859000000000005  1.0000
  C   C78       1.0  0.36101000000000005  0.32646  0.22766000000000006  1.0000
  C   C79       1.0  0.4476900000000002  0.30781  0.22064000000000006  1.0000
  C   C80       1.0  0.42763000000000007  0.27847  0.17969000000000004  1.0000
  C   C81       1.0  0.34310000000000024  0.29283  0.19158  1.0000
  C   C82       1.0  0.6692500000000001  0.1888999999999999  0.8524900000000002  1.0000
  C   C83       1.0  0.6712900000000002  0.15825999999999993  0.7992400000000002  1.0000
  C   C84       1.0  0.65121  0.1975199999999999  0.8199900000000002  1.0000
  C   C85       1.0  0.61402  0.24251999999999996  0.8076100000000003  1.0000
  C   C86       1.0  0.6484799999999998  0.22384999999999994  0.8738700000000003  1.0000
  C   C87       1.0  0.5872399999999999  0.30415999999999993  0.88722  1.0000
  C   C88       1.0  0.6094599999999999  0.26825  0.8633  1.0000
  C   C89       1.0  0.5931899999999999  0.27727999999999997  0.8292700000000002  1.0000
  C   C90       1.0  0.51522  0.54305  0.81748  1.0000
  C   C91       1.0  0.5512300000000002  0.5072599999999999  0.7964700000000002  1.0000
  C   C92       1.0  0.4888899999999999  0.5281799999999999  0.8615200000000002  1.0000
  C   C93       1.0  0.50682  0.59632  0.7934900000000003  1.0000
  C   C94       1.0  0.56908  0.3547500000000001  0.8663600000000002  1.0000
  C   C95       1.0  0.5618699999999999  0.45766  0.8194100000000002  1.0000
  C   C96       1.0  0.5508900000000002  0.3893199999999999  0.8879900000000002  1.0000
  C   C97       1.0  0.53668  0.4422799999999999  0.8639400000000003  1.0000
  C   C98       1.0  0.49947000000000025  0.4784600000000002  0.88443  1.0000
  C   C99       1.0  0.5775799999999999  0.3303700000000001  0.014210000000000004  1.0000
  C   C100      1.0  0.5667400000000001  0.32187000000000004  0.9540100000000002  1.0000
  C   C101      1.0  0.54936  0.3723499999999999  0.9320400000000002  1.0000
  C   C102      1.0  0.5828  0.24832000000000007  0.12847  1.0000
  C   C103      1.0  0.5855  0.2883100000000001  0.93116  1.0000
  C   C104      1.0  0.56839  0.30389  0.9993100000000001  1.0000
  C   C105      1.0  0.5633400000000002  0.25884  0.02781  1.0000
  C   C106      1.0  0.56839  0.24031  0.0694  1.0000
  C   C107      1.0  0.5781400000000001  0.26674  0.0837  1.0000
  C   C108      1.0  0.5823500000000003  0.3121  0.05579  1.0000
  C   C109      1.0  0.21743  0.19309000000000004  0.31274  1.0000
  C   C110      1.0  0.2644399999999999  0.18196999999999997  0.3130500000000001  1.0000
  C   C111      1.0  0.17891999999999994  0.17259  0.2811200000000001  1.0000
  C   C112      1.0  0.22762999999999997  0.10612000000000006  0.32836  1.0000
  C   C113      1.0  0.19524000000000008  0.08839  0.29143  1.0000
  C   C114      1.0  0.17349  0.13893  0.27235  1.0000
  C   C115      1.0  0.1921  0.052210000000000006  0.27947  1.0000
  C   C116      1.0  0.22148  0.07234000000000002  0.32028  1.0000
  C   C117      1.0  0.20719000000000007  0.15689  0.3083300000000001  1.0000
  C   C118      1.0  0.31109  0.8307799999999997  0.6475300000000003  1.0000
  C   C119      1.0  0.3415900000000001  0.82888  0.70084  1.0000
  C   C120      1.0  0.3024099999999999  0.8488400000000003  0.68006  1.0000
  C   C121      1.0  0.25737999999999994  0.88601  0.69241  1.0000
  C   C122      1.0  0.27619000000000005  0.85155  0.62611  1.0000
  C   C123      1.0  0.19583999999999996  0.9127499999999998  0.6127700000000003  1.0000
  C   C124      1.0  0.2317499999999999  0.8905199999999998  0.6366800000000002  1.0000
  C   C125      1.0  0.22266999999999976  0.9068100000000002  0.67072  1.0000
  C   C126      1.0  0.9570000000000003  0.98472  0.68248  1.0000
  C   C127      1.0  0.9927299999999998  0.94876  0.7035500000000002  1.0000
  C   C128      1.0  0.9718700000000003  0.011079999999999986  0.63845  1.0000
  C   C129      1.0  0.9037699999999999  0.9931300000000003  0.7065  1.0000
  C   C130      1.0  0.14524000000000006  0.9309  0.63367  1.0000
  C   C131      1.0  0.0423199999999998  0.9380900000000001  0.68064  1.0000
  C   C132      1.0  0.11066999999999985  0.94907  0.6120600000000003  1.0000
  C   C133      1.0  0.05772999999999988  0.9632700000000003  0.63611  1.0000
  C   C134      1.0  0.021589999999999908  0.00047999999999994006  0.6155800000000002  1.0000
  C   C135      1.0  0.16966  0.92243  0.48578  1.0000
  C   C136      1.0  0.17808000000000002  0.9333  0.546  1.0000
  C   C137      1.0  0.12761000000000003  0.95066  0.56799  1.0000
  C   C138      1.0  0.25175999999999993  0.9170400000000001  0.37157  1.0000
  C   C139      1.0  0.21166000000000007  0.91453  0.56881  1.0000
  C   C140      1.0  0.19610999999999987  0.9316400000000002  0.50069  1.0000
  C   C141      1.0  0.24114000000000005  0.93668  0.4722000000000001  1.0000
  C   C142      1.0  0.2597499999999999  0.93155  0.4306300000000001  1.0000
  C   C143      1.0  0.23333  0.92178  0.41632000000000013  1.0000
  C   C144      1.0  0.18798999999999988  0.91758  0.4442300000000001  1.0000
  C   C145      1.0  0.19318000000000007  0.27667  0.3127800000000001  1.0000
  C   C146      1.0  0.1821  0.24046999999999996  0.3130500000000001  1.0000
  C   C147      1.0  0.17257999999999996  0.3672800000000001  0.28117  1.0000
  C   C148      1.0  0.10616999999999992  0.33777  0.3284100000000001  1.0000
  C   C149      1.0  0.08839999999999994  0.42481000000000013  0.29147  1.0000
  C   C150      1.0  0.1389199999999998  0.4151300000000001  0.2723700000000001  1.0000
  C   C151      1.0  0.05231000000000004  0.47608999999999996  0.2793700000000001  1.0000
  C   C152      1.0  0.07234000000000002  0.38577  0.3203400000000001  1.0000
  C   C153      1.0  0.15693000000000018  0.3275  0.30841  1.0000
  C   C154      1.0  0.8306899999999999  0.21054000000000003  0.64752  1.0000
  C   C155      1.0  0.8288200000000001  0.12862999999999997  0.70084  1.0000
  C   C156      1.0  0.8487300000000001  0.16866999999999996  0.68006  1.0000
  C   C157      1.0  0.88591  0.16417  0.69237  1.0000
  C   C158      1.0  0.8514600000000001  0.24609  0.62604  1.0000
  C   C159      1.0  0.91266  0.27859  0.61272  1.0000
  C   C160      1.0  0.8904199999999999  0.2410100000000001  0.63661  1.0000
  C   C161      1.0  0.9067199999999999  0.19975999999999997  0.67064  1.0000
  C   C162      1.0  0.9847199999999996  0.3759099999999999  0.6823600000000002  1.0000
  C   C163      1.0  0.9488499999999999  0.35499999999999987  0.7034200000000003  1.0000
  C   C164      1.0  0.011079999999999878  0.37861  0.6383500000000002  1.0000
  C   C165      1.0  0.99303  0.39692  0.7063  1.0000
  C   C166      1.0  0.9308399999999999  0.29013  0.6336000000000002  1.0000
  C   C167      1.0  0.93829  0.3388199999999999  0.6805600000000003  1.0000
  C   C168      1.0  0.94913  0.3280499999999999  0.6119900000000003  1.0000
  C   C169      1.0  0.9634200000000002  0.34272  0.6360200000000001  1.0000
  C   C170      1.0  0.0005799999999999669  0.36221999999999993  0.6155100000000002  1.0000
  C   C171      1.0  0.92235  0.42211000000000004  0.48579  1.0000
  C   C172      1.0  0.9332399999999998  0.34254  0.5459300000000001  1.0000
  C   C173      1.0  0.95064  0.3536099999999999  0.56793  1.0000
  C   C174      1.0  0.9172700000000001  0.4596800000000002  0.37143  1.0000
  C   C175      1.0  0.9144600000000002  0.3049299999999999  0.5687600000000003  1.0000
  C   C176      1.0  0.9315899999999998  0.37153000000000014  0.5006400000000002  1.0000
  C   C177      1.0  0.93663  0.34995000000000004  0.4721100000000001  1.0000
  C   C178      1.0  0.93156  0.3781  0.43053000000000013  1.0000
  C   C179      1.0  0.9218600000000001  0.42858999999999997  0.4162400000000001  1.0000
  C   C180      1.0  0.91755  0.45022999999999996  0.4442200000000001  1.0000
  C   C181      1.0  0.27673000000000003  0.21730000000000005  0.31283  1.0000
  C   C182      1.0  0.24054999999999996  0.26436  0.3130300000000001  1.0000
  C   C183      1.0  0.3673000000000002  0.17895  0.28118  1.0000
  C   C184      1.0  0.33782000000000006  0.2277  0.3283900000000001  1.0000
  C   C185      1.0  0.42488000000000004  0.19520999999999997  0.29146  1.0000
  C   C186      1.0  0.4151500000000002  0.17353  0.27235  1.0000
  C   C187      1.0  0.47614  0.19208999999999996  0.27938000000000013  1.0000
  C   C188      1.0  0.38583000000000006  0.22154  0.32028  1.0000
  C   C189      1.0  0.32753000000000004  0.20714999999999995  0.3084600000000001  1.0000
  C   C190      1.0  0.21060000000000015  0.31112999999999996  0.6474400000000002  1.0000
  C   C191      1.0  0.12871999999999986  0.3415600000000001  0.7008300000000002  1.0000
  C   C192      1.0  0.16870999999999992  0.30242999999999987  0.6799600000000002  1.0000
  C   C193      1.0  0.1642399999999999  0.25741999999999987  0.6922700000000003  1.0000
  C   C194      1.0  0.24621999999999988  0.27621999999999997  0.6260300000000002  1.0000
  C   C195      1.0  0.27871  0.19587999999999994  0.6126800000000002  1.0000
  C   C196      1.0  0.24112  0.23179000000000002  0.63659  1.0000
  C   C197      1.0  0.19988999999999998  0.22270000000000004  0.67059  1.0000
  C   C198      1.0  0.37608  0.95699  0.68232  1.0000
  C   C199      1.0  0.3551599999999997  0.99272  0.7034000000000002  1.0000
  C   C200      1.0  0.3788199999999998  0.9718800000000001  0.6383100000000002  1.0000
  C   C201      1.0  0.3970100000000001  0.9037399999999999  0.70626  1.0000
  C   C202      1.0  0.29025999999999996  0.14528999999999995  0.6335500000000002  1.0000
  C   C203      1.0  0.33897000000000005  0.04232999999999998  0.68055  1.0000
  C   C204      1.0  0.32822999999999997  0.11069999999999997  0.6119300000000002  1.0000
  C   C205      1.0  0.34292  0.05774999999999998  0.636  1.0000
  C   C206      1.0  0.36244  0.02160000000000001  0.61546  1.0000
  C   C207      1.0  0.42215  0.16965999999999998  0.4857500000000001  1.0000
  C   C208      1.0  0.3426400000000001  0.17812999999999998  0.54589  1.0000
  C   C209      1.0  0.35378000000000004  0.12764  0.56786  1.0000
  C   C210      1.0  0.45964999999999995  0.25174  0.37153000000000014  1.0000
  C   C211      1.0  0.3050499999999999  0.2117100000000001  0.56873  1.0000
  C   C212      1.0  0.37157  0.19613999999999998  0.5006100000000001  1.0000
  C   C213      1.0  0.34992  0.24122999999999997  0.4721400000000001  1.0000
  C   C214      1.0  0.37806  0.25978  0.4305900000000001  1.0000
  C   C215      1.0  0.42858  0.23336000000000007  0.41631000000000007  1.0000
  C   C216      1.0  0.45025000000000004  0.18796000000000004  0.4442000000000001  1.0000
  C   C217      1.0  0.77663  0.6931599999999999  0.8128300000000002  1.0000
  C   C218      1.0  0.7404599999999999  0.6820700000000002  0.8130900000000001  1.0000
  C   C219      1.0  0.86718  0.6726700000000002  0.78121  1.0000
  C   C220      1.0  0.8377799999999999  0.6061500000000001  0.8284600000000002  1.0000
  C   C221      1.0  0.92483  0.58849  0.79149  1.0000
  C   C222      1.0  0.9150700000000002  0.6390499999999999  0.77241  1.0000
  C   C223      1.0  0.9761799999999999  0.5524200000000001  0.7794000000000002  1.0000
  C   C224      1.0  0.8858200000000002  0.57238  0.8203600000000002  1.0000
  C   C225      1.0  0.8274699999999999  0.65693  0.80845  1.0000
  C   C226      1.0  0.71047  0.33074  0.14754  1.0000
  C   C227      1.0  0.62864  0.32885  0.20086  1.0000
  C   C228      1.0  0.66859  0.34886  0.18005  1.0000
  C   C229      1.0  0.66411  0.38609999999999994  0.19228000000000006  1.0000
  C   C230      1.0  0.7460700000000001  0.35143  0.12607  1.0000
  C   C231      1.0  0.7786600000000001  0.41262000000000004  0.11267000000000003  1.0000
  C   C232      1.0  0.7410600000000004  0.39038999999999996  0.13659000000000004  1.0000
  C   C233      1.0  0.6997800000000001  0.4068  0.17055000000000006  1.0000
  C   C234      1.0  0.8757999999999997  0.48470000000000013  0.18245000000000006  1.0000
  C   C235      1.0  0.8549100000000001  0.4488  0.20345000000000005  1.0000
  C   C236      1.0  0.8785  0.5111  0.13844  1.0000
  C   C237      1.0  0.8967000000000002  0.49308  0.20644000000000007  1.0000
  C   C238      1.0  0.7901900000000001  0.4308  0.13354  1.0000
  C   C239      1.0  0.8388299999999999  0.43822  0.18053  1.0000
  C   C240      1.0  0.8281099999999999  0.4490900000000001  0.11194000000000003  1.0000
  C   C241      1.0  0.8427600000000002  0.46338000000000007  0.13598000000000005  1.0000
  C   C242      1.0  0.8622000000000001  0.50059  0.11553000000000002  1.0000
  C   C243      1.0  0.92218  0.42229999999999995  0.9857900000000003  1.0000
  C   C244      1.0  0.84259  0.43322  0.04588000000000001  1.0000
  C   C245      1.0  0.85363  0.45065  0.06787  1.0000
  C   C246      1.0  0.9598799999999998  0.41717  0.87145  1.0000
  C   C247      1.0  0.80499  0.41442  0.06870000000000002  1.0000
  C   C248      1.0  0.8716200000000004  0.43152  0.00059  1.0000
  C   C249      1.0  0.8501400000000001  0.4365299999999999  0.9720200000000002  1.0000
  C   C250      1.0  0.8783400000000005  0.43142999999999987  0.9304600000000002  1.0000
  C   C251      1.0  0.92881  0.42175  0.91623  1.0000
  C   C252      1.0  0.95038  0.41749  0.94423  1.0000
  C   C253      1.0  0.7173000000000005  0.7767499999999999  0.8128400000000002  1.0000
  C   C254      1.0  0.7643199999999997  0.74054  0.8130800000000002  1.0000
  C   C255      1.0  0.6789799999999997  0.86736  0.7811800000000001  1.0000
  C   C256      1.0  0.72765  0.8378499999999999  0.8284500000000001  1.0000
  C   C257      1.0  0.6952999999999996  0.92493  0.7914600000000003  1.0000
  C   C258      1.0  0.6736099999999999  0.9152100000000001  0.77235  1.0000
  C   C259      1.0  0.6921599999999998  0.9762200000000003  0.7794400000000002  1.0000
  C   C260      1.0  0.7215599999999999  0.88586  0.8203200000000003  1.0000
  C   C261      1.0  0.7071400000000001  0.82757  0.8084800000000002  1.0000
  C   C262      1.0  0.8111000000000004  0.71066  0.14747  1.0000
  C   C263      1.0  0.8416899999999999  0.62869  0.20070000000000005  1.0000
  C   C264      1.0  0.8024500000000002  0.6687399999999998  0.17996000000000006  1.0000
  C   C265      1.0  0.75744  0.66425  0.19229000000000004  1.0000
  C   C266      1.0  0.7762000000000001  0.74625  0.12605  1.0000
  C   C267      1.0  0.69589  0.77874  0.11265000000000003  1.0000
  C   C268      1.0  0.73178  0.7411600000000003  0.13659000000000004  1.0000
  C   C269      1.0  0.72272  0.69991  0.17060000000000006  1.0000
  C   C270      1.0  0.45695999999999987  0.8760000000000002  0.18236  1.0000
  C   C271      1.0  0.49272000000000005  0.85511  0.20340000000000005  1.0000
  C   C272      1.0  0.4718600000000001  0.87874  0.13833  1.0000
  C   C273      1.0  0.4037  0.89681  0.20638000000000006  1.0000
  C   C274      1.0  0.6453000000000001  0.7903000000000002  0.13352  1.0000
  C   C275      1.0  0.5423200000000001  0.8389900000000001  0.18051000000000006  1.0000
  C   C276      1.0  0.6107100000000001  0.82825  0.11189000000000003  1.0000
  C   C277      1.0  0.5577400000000001  0.84293  0.13596  1.0000
  C   C278      1.0  0.52159  0.86241  0.11545  1.0000
  C   C279      1.0  0.6695999999999995  0.9222300000000004  0.9857400000000002  1.0000
  C   C280      1.0  0.6781399999999999  0.84268  0.04586  1.0000
  C   C281      1.0  0.62765  0.85381  0.06783000000000003  1.0000
  C   C282      1.0  0.7516899999999999  0.95975  0.87151  1.0000
  C   C283      1.0  0.71172  0.80506  0.06869  1.0000
  C   C284      1.0  0.69611  0.8716500000000001  0.00058  1.0000
  C   C285      1.0  0.7411899999999996  0.8500600000000004  0.9720700000000002  1.0000
  C   C286      1.0  0.75972  0.8782099999999999  0.9305300000000002  1.0000
  C   C287      1.0  0.7332500000000003  0.92872  0.9162700000000003  1.0000
  C   C288      1.0  0.6878599999999999  0.9503700000000002  0.9442000000000003  1.0000
  C   C289      1.0  0.6931000000000002  0.7174300000000001  0.8127800000000002  1.0000
  C   C290      1.0  0.6819899999999994  0.76446  0.8130600000000002  1.0000
  C   C291      1.0  0.6726200000000001  0.67893  0.78116  1.0000
  C   C292      1.0  0.6061100000000004  0.72764  0.82841  1.0000
  C   C293      1.0  0.5884499999999998  0.6952700000000003  0.7914  1.0000
  C   C294      1.0  0.6390000000000001  0.67351  0.7723400000000002  1.0000
  C   C295      1.0  0.5523100000000003  0.69214  0.77937  1.0000
  C   C296      1.0  0.5723599999999999  0.7214999999999999  0.8203000000000003  1.0000
  C   C297      1.0  0.6568899999999995  0.7072000000000003  0.8083900000000003  1.0000
  C   C298      1.0  0.33074  0.8111  0.14748  1.0000
  C   C299      1.0  0.32868  0.84176  0.20076000000000005  1.0000
  C   C300      1.0  0.3487799999999999  0.8025000000000002  0.17998000000000006  1.0000
  C   C301      1.0  0.3859599999999999  0.7574999999999997  0.19237000000000007  1.0000
  C   C302      1.0  0.35151999999999994  0.7761500000000001  0.12611  1.0000
  C   C303      1.0  0.4127699999999999  0.69584  0.11277000000000002  1.0000
  C   C304      1.0  0.39053999999999994  0.73175  0.13669  1.0000
  C   C305      1.0  0.4068000000000001  0.7227300000000002  0.17072000000000004  1.0000
  C   C306      1.0  0.4847599999999999  0.45694999999999997  0.18247000000000005  1.0000
  C   C307      1.0  0.44877000000000017  0.49273  0.20352000000000006  1.0000
  C   C308      1.0  0.51112  0.47183000000000025  0.13845  1.0000
  C   C309      1.0  0.4931900000000001  0.40367  0.20645  1.0000
  C   C310      1.0  0.43092  0.64525  0.13365  1.0000
  C   C311      1.0  0.43812999999999996  0.54233  0.18059  1.0000
  C   C312      1.0  0.44908999999999993  0.6106800000000001  0.11202  1.0000
  C   C313      1.0  0.46331999999999995  0.5577300000000001  0.13606000000000004  1.0000
  C   C314      1.0  0.50054  0.52155  0.11555  1.0000
  C   C315      1.0  0.42241999999999996  0.66961  0.9857900000000003  1.0000
  C   C316      1.0  0.4332499999999999  0.6781200000000002  0.04599  1.0000
  C   C317      1.0  0.45064  0.62764  0.06796000000000003  1.0000
  C   C318      1.0  0.4172200000000001  0.75165  0.87153  1.0000
  C   C319      1.0  0.41448999999999997  0.7116800000000001  0.06883000000000002  1.0000
  C   C320      1.0  0.4316000000000001  0.6961000000000002  0.00069  1.0000
  C   C321      1.0  0.4366599999999998  0.7411400000000001  0.9721900000000002  1.0000
  C   C322      1.0  0.4315999999999998  0.75968  0.9306100000000003  1.0000
  C   C323      1.0  0.42186  0.7332399999999999  0.9163000000000002  1.0000
  C   C324      1.0  0.4176500000000004  0.68789  0.94421  1.0000
  C   C325      1.0  0.7825899999999997  0.8068800000000002  0.6872800000000002  1.0000
  C   C326      1.0  0.7355800000000002  0.8179999999999998  0.6869600000000002  1.0000
  C   C327      1.0  0.8210899999999998  0.8274100000000001  0.7188900000000003  1.0000
  C   C328      1.0  0.7723799999999998  0.89387  0.67165  1.0000
  C   C329      1.0  0.8047300000000003  0.91162  0.70859  1.0000
  C   C330      1.0  0.8264799999999998  0.8610799999999997  0.7276800000000002  1.0000
  C   C331      1.0  0.8078700000000006  0.9478099999999999  0.72054  1.0000
  C   C332      1.0  0.7784799999999998  0.9276600000000004  0.67975  1.0000
  C   C333      1.0  0.79284  0.8430999999999998  0.6916700000000002  1.0000
  C   C334      1.0  0.68892  0.1692  0.35246  1.0000
  C   C335      1.0  0.65844  0.17110999999999998  0.29912  1.0000
  C   C336      1.0  0.6976  0.15114  0.3199300000000001  1.0000
  C   C337      1.0  0.74263  0.11398000000000001  0.30758  1.0000
  C   C338      1.0  0.7238200000000001  0.14844  0.37388  1.0000
  C   C339      1.0  0.80416  0.08722  0.38721  1.0000
  C   C340      1.0  0.7682499999999999  0.10945000000000002  0.36331000000000013  1.0000
  C   C341      1.0  0.7773500000000001  0.09316999999999999  0.32926  1.0000
  C   C342      1.0  0.04295999999999998  0.015299999999999973  0.31752000000000014  1.0000
  C   C343      1.0  0.007230000000000012  0.05127000000000001  0.29645  1.0000
  C   C344      1.0  0.028099999999999948  0.9889600000000001  0.3615500000000001  1.0000
  C   C345      1.0  0.09620000000000002  0.006909999999999993  0.29347  1.0000
  C   C346      1.0  0.8547500000000001  0.06909000000000001  0.36632  1.0000
  C   C347      1.0  0.9576300000000003  0.06195  0.31935  1.0000
  C   C348      1.0  0.88931  0.05092999999999996  0.3879300000000001  1.0000
  C   C349      1.0  0.94225  0.03673999999999999  0.36388  1.0000
  C   C350      1.0  0.9783799999999999  0.99953  0.3844300000000001  1.0000
  C   C351      1.0  0.8303600000000003  0.07754  0.51418  1.0000
  C   C352      1.0  0.8218999999999999  0.06670999999999998  0.45399  1.0000
  C   C353      1.0  0.87237  0.04932999999999997  0.4320000000000001  1.0000
  C   C354      1.0  0.74831  0.08284999999999992  0.6284300000000003  1.0000
  C   C355      1.0  0.7883399999999999  0.08545999999999994  0.4311600000000001  1.0000
  C   C356      1.0  0.8038900000000001  0.06835999999999996  0.4992900000000001  1.0000
  C   C357      1.0  0.7588600000000001  0.06328  0.52779  1.0000
  C   C358      1.0  0.7402999999999997  0.06835999999999993  0.5693700000000003  1.0000
  C   C359      1.0  0.7667100000000002  0.07812999999999992  0.5836700000000002  1.0000
  C   C360      1.0  0.8120600000000002  0.08233999999999995  0.5557600000000001  1.0000
  C   C361      1.0  0.8068499999999998  0.7233  0.68723  1.0000
  C   C362      1.0  0.8179200000000001  0.7594900000000002  0.68699  1.0000
  C   C363      1.0  0.82745  0.63269  0.71881  1.0000
  C   C364      1.0  0.8938599999999999  0.6622  0.6715500000000002  1.0000
  C   C365      1.0  0.91163  0.57516  0.70851  1.0000
  C   C366      1.0  0.8611100000000002  0.5848399999999999  0.72761  1.0000
  C   C367      1.0  0.94769  0.52387  0.7206400000000002  1.0000
  C   C368      1.0  0.9276899999999999  0.6142  0.6796300000000002  1.0000
  C   C369      1.0  0.8431099999999999  0.6724700000000001  0.69157  1.0000
  C   C370      1.0  0.16929999999999987  0.7894300000000001  0.35246  1.0000
  C   C371      1.0  0.17121999999999998  0.87131  0.29913  1.0000
  C   C372      1.0  0.15127999999999978  0.8313  0.31991000000000014  1.0000
  C   C373      1.0  0.11410000000000003  0.8358  0.30761  1.0000
  C   C374      1.0  0.14852999999999977  0.7538900000000002  0.3739500000000001  1.0000
  C   C375      1.0  0.08732999999999996  0.7214  0.3872800000000001  1.0000
  C   C376      1.0  0.10957  0.7589700000000001  0.36338  1.0000
  C   C377      1.0  0.09327999999999985  0.80022  0.3293600000000001  1.0000
  C   C378      1.0  0.015299999999999833  0.6240800000000001  0.31763000000000013  1.0000
  C   C379      1.0  0.05117000000000012  0.6449999999999999  0.29658  1.0000
  C   C380      1.0  0.98894  0.62136  0.36165000000000014  1.0000
  C   C381      1.0  0.006999999999999959  0.60307  0.2936900000000001  1.0000
  C   C382      1.0  0.06914000000000005  0.70984  0.36642000000000013  1.0000
  C   C383      1.0  0.061729999999999945  0.66115  0.31946  1.0000
  C   C384      1.0  0.050849999999999854  0.6719200000000001  0.3880400000000001  1.0000
  C   C385      1.0  0.036579999999999946  0.6572400000000002  0.36401  1.0000
  C   C386      1.0  0.99943  0.63773  0.38451  1.0000
  C   C387      1.0  0.07764999999999994  0.57788  0.5142  1.0000
  C   C388      1.0  0.06675999999999993  0.6574400000000001  0.4540700000000001  1.0000
  C   C389      1.0  0.04933999999999981  0.6463600000000003  0.4320900000000001  1.0000
  C   C390      1.0  0.08272999999999987  0.54034  0.6285600000000002  1.0000
  C   C391      1.0  0.08553999999999995  0.69504  0.43124  1.0000
  C   C392      1.0  0.06839999999999995  0.62846  0.49936000000000014  1.0000
  C   C393      1.0  0.06335999999999982  0.6500600000000001  0.5278700000000001  1.0000
  C   C394      1.0  0.06841999999999994  0.6219099999999999  0.5694500000000002  1.0000
  C   C395      1.0  0.07816999999999993  0.57142  0.58374  1.0000
  C   C396      1.0  0.08243999999999985  0.54977  0.5557800000000003  1.0000
  C   C397      1.0  0.7232999999999999  0.78267  0.6871900000000002  1.0000
  C   C398      1.0  0.75948  0.73562  0.68699  1.0000
  C   C399      1.0  0.6327100000000001  0.8210399999999999  0.7188200000000002  1.0000
  C   C400      1.0  0.6622099999999999  0.77229  0.67161  1.0000
  C   C401      1.0  0.5751399999999999  0.8047699999999999  0.7085200000000003  1.0000
  C   C402      1.0  0.58486  0.8264600000000002  0.72763  1.0000
  C   C403      1.0  0.52388  0.80789  0.7205900000000002  1.0000
  C   C404      1.0  0.6141999999999999  0.7784500000000001  0.6797000000000002  1.0000
  C   C405      1.0  0.67249  0.79284  0.6915400000000003  1.0000
  C   C406      1.0  0.78946  0.6888700000000002  0.35249000000000014  1.0000
  C   C407      1.0  0.87138  0.65838  0.2991900000000001  1.0000
  C   C408      1.0  0.83137  0.69756  0.32002  1.0000
  C   C409      1.0  0.8358000000000001  0.74259  0.30769000000000013  1.0000
  C   C410      1.0  0.75382  0.7237600000000001  0.3739200000000001  1.0000
  C   C411      1.0  0.7212800000000001  0.80411  0.38731  1.0000
  C   C412      1.0  0.75887  0.76821  0.36337  1.0000
  C   C413      1.0  0.8001199999999998  0.7773000000000001  0.3293800000000001  1.0000
  C   C414      1.0  0.62394  0.04300999999999995  0.3176500000000001  1.0000
  C   C415      1.0  0.6448500000000003  0.007270000000000011  0.29657  1.0000
  C   C416      1.0  0.62119  0.02812999999999996  0.3616700000000001  1.0000
  C   C417      1.0  0.60299  0.09625999999999998  0.29372  1.0000
  C   C418      1.0  0.7097100000000001  0.8547  0.36643  1.0000
  C   C419      1.0  0.6610400000000001  0.95766  0.31944  1.0000
  C   C420      1.0  0.6717699999999998  0.8893000000000002  0.3880600000000001  1.0000
  C   C421      1.0  0.65709  0.94225  0.3639900000000001  1.0000
  C   C422      1.0  0.6375699999999999  0.9784000000000003  0.38452  1.0000
  C   C423      1.0  0.5778400000000001  0.8303400000000001  0.51426  1.0000
  C   C424      1.0  0.65737  0.82187  0.4541100000000001  1.0000
  C   C425      1.0  0.64624  0.8723599999999999  0.43214000000000014  1.0000
  C   C426      1.0  0.5403299999999999  0.7482600000000003  0.62847  1.0000
  C   C427      1.0  0.6949499999999998  0.7882899999999999  0.4312600000000001  1.0000
  C   C428      1.0  0.62842  0.80387  0.49940000000000007  1.0000
  C   C429      1.0  0.6500600000000001  0.75877  0.5278700000000001  1.0000
  C   C430      1.0  0.6219199999999998  0.7402  0.5694100000000002  1.0000
  C   C431      1.0  0.5714100000000003  0.76663  0.5836900000000003  1.0000
  C   C432      1.0  0.5497299999999999  0.8120300000000003  0.55579  1.0000
  O   O1        1.0  0.01612  0.49267  0.19865  1.0000
  O   O2        1.0  0.99216  0.43039  0.25249  1.0000
  O   O3        1.0  0.3980999999999998  0.6695400000000002  0.76116  1.0000
  O   O4        1.0  0.3746899999999999  0.68869  0.8227400000000002  1.0000
  O   O5        1.0  0.10973999999999993  0.53  0.75297  1.0000
  O   O6        1.0  0.07945999999999989  0.47801999999999994  0.8166500000000002  1.0000
  O   O7        1.0  0.9954  0.58856  0.1385  1.0000
  O   O8        1.0  0.060239999999999995  0.58083  0.1528  1.0000
  O   O9        1.0  0.9660799999999999  0.5881200000000002  0.23145000000000002  1.0000
  O   O10       1.0  0.29245  0.01611999999999999  0.19862000000000005  1.0000
  O   O11       1.0  0.32477999999999996  0.99206  0.25255  1.0000
  O   O12       1.0  0.17103000000000002  0.39798  0.76124  1.0000
  O   O13       1.0  0.11380999999999997  0.37477000000000005  0.82297  1.0000
  O   O14       1.0  0.6071500000000001  0.10978999999999998  0.75288  1.0000
  O   O15       1.0  0.6259900000000002  0.07940999999999995  0.8164800000000002  1.0000
  O   O16       1.0  0.2772499999999999  0.9955800000000002  0.13852  1.0000
  O   O17       1.0  0.20587  0.06048  0.15267  1.0000
  O   O18       1.0  0.2143099999999999  0.9661000000000002  0.23150000000000007  1.0000
  O   O19       1.0  0.4927100000000001  0.29254  0.19851  1.0000
  O   O20       1.0  0.4305600000000001  0.32461000000000007  0.25263  1.0000
  O   O21       1.0  0.6705199999999999  0.17107999999999995  0.7609700000000003  1.0000
  O   O22       1.0  0.6882500000000001  0.11373999999999994  0.8230600000000002  1.0000
  O   O23       1.0  0.53005  0.6072699999999999  0.7528100000000002  1.0000
  O   O24       1.0  0.47786999999999996  0.62605  0.8164300000000002  1.0000
  O   O25       1.0  0.58856  0.27725  0.13852  1.0000
  O   O26       1.0  0.5809100000000003  0.20587  0.15264  1.0000
  O   O27       1.0  0.58815  0.21413999999999997  0.23141000000000006  1.0000
  O   O28       1.0  0.20741999999999994  0.007169999999999961  0.3016100000000001  1.0000
  O   O29       1.0  0.17529  0.06929999999999999  0.24753  1.0000
  O   O30       1.0  0.32876000000000005  0.8303799999999999  0.7388700000000002  1.0000
  O   O31       1.0  0.38609999999999994  0.8113600000000001  0.6772600000000002  1.0000
  O   O32       1.0  0.8928199999999998  0.9699300000000001  0.7472  1.0000
  O   O33       1.0  0.87408  0.02194999999999994  0.6835400000000003  1.0000
  O   O34       1.0  0.22284  0.91119  0.36158  1.0000
  O   O35       1.0  0.2941599999999999  0.91902  0.3473700000000001  1.0000
  O   O36       1.0  0.28567  0.91196  0.26858  1.0000
  O   O37       1.0  0.007309999999999987  0.48378  0.30155  1.0000
  O   O38       1.0  0.06950000000000017  0.50763  0.24727  1.0000
  O   O39       1.0  0.8301100000000002  0.10212999999999996  0.7389400000000003  1.0000
  O   O40       1.0  0.8115400000000005  0.12508000000000002  0.67716  1.0000
  O   O41       1.0  0.9697600000000001  0.3905600000000001  0.74696  1.0000
  O   O42       1.0  0.02199000000000001  0.42058000000000006  0.68334  1.0000
  O   O43       1.0  0.9112600000000001  0.50448  0.36149  1.0000
  O   O44       1.0  0.9194599999999999  0.43947  0.3471300000000001  1.0000
  O   O45       1.0  0.9121799999999999  0.53364  0.26857  1.0000
  O   O46       1.0  0.4839199999999999  0.207  0.30167  1.0000
  O   O47       1.0  0.50759  0.17566  0.24713  1.0000
  O   O48       1.0  0.10248  0.32865999999999995  0.7390700000000002  1.0000
  O   O49       1.0  0.12503000000000014  0.3861  0.67714  1.0000
  O   O50       1.0  0.39073  0.89279  0.7469  1.0000
  O   O51       1.0  0.4205399999999998  0.87406  0.6833100000000002  1.0000
  O   O52       1.0  0.5043499999999999  0.22269999999999995  0.3614400000000001  1.0000
  O   O53       1.0  0.43959  0.29427999999999993  0.3473700000000001  1.0000
  O   O54       1.0  0.5337099999999999  0.28551000000000004  0.26855  1.0000
  O   O55       1.0  0.9838700000000001  0.50733  0.8012900000000002  1.0000
  O   O56       1.0  0.007819999999999801  0.5696400000000001  0.7475400000000002  1.0000
  O   O57       1.0  0.6019199999999999  0.33036  0.23887000000000005  1.0000
  O   O58       1.0  0.6253000000000002  0.31132  0.17723  1.0000
  O   O59       1.0  0.89024  0.4698700000000001  0.24712000000000006  1.0000
  O   O60       1.0  0.9204700000000002  0.5219499999999999  0.18347000000000005  1.0000
  O   O61       1.0  0.004589999999999896  0.4113999999999999  0.8615200000000002  1.0000
  O   O62       1.0  0.9397299999999998  0.41927  0.8471500000000002  1.0000
  O   O63       1.0  0.03395999999999999  0.4118199999999999  0.7685800000000003  1.0000
  O   O64       1.0  0.70759  0.9838499999999999  0.8014400000000003  1.0000
  O   O65       1.0  0.6751299999999999  0.007899999999999916  0.7476000000000003  1.0000
  O   O66       1.0  0.8289099999999999  0.60208  0.23876000000000006  1.0000
  O   O67       1.0  0.88621  0.62516  0.17704  1.0000
  O   O68       1.0  0.3927700000000002  0.89021  0.24708000000000005  1.0000
  O   O69       1.0  0.37398  0.9205900000000001  0.18344  1.0000
  O   O70       1.0  0.7228  0.004509999999999873  0.8614700000000002  1.0000
  O   O71       1.0  0.7941199999999999  0.9395400000000003  0.8473000000000003  1.0000
  O   O72       1.0  0.78573  0.034009999999999894  0.7684900000000002  1.0000
  O   O73       1.0  0.5073000000000001  0.7073800000000001  0.8015200000000002  1.0000
  O   O74       1.0  0.56943  0.6753900000000003  0.74735  1.0000
  O   O75       1.0  0.32947999999999994  0.82892  0.23902000000000007  1.0000
  O   O76       1.0  0.31166000000000005  0.8862899999999999  0.17698000000000003  1.0000
  O   O77       1.0  0.46997000000000005  0.39268999999999993  0.24713  1.0000
  O   O78       1.0  0.5221000000000002  0.37396  0.18349  1.0000
  O   O79       1.0  0.4114399999999999  0.7227300000000002  0.8614800000000002  1.0000
  O   O80       1.0  0.4191599999999997  0.79408  0.8473500000000003  1.0000
  O   O81       1.0  0.41183999999999993  0.7858599999999999  0.7685800000000003  1.0000
  O   O82       1.0  0.7926100000000001  0.99282  0.6983600000000002  1.0000
  O   O83       1.0  0.8246599999999998  0.9307400000000003  0.7525000000000002  1.0000
  O   O84       1.0  0.6712900000000002  0.16963000000000003  0.26107000000000014  1.0000
  O   O85       1.0  0.6139299999999999  0.18861000000000008  0.32269  1.0000
  O   O86       1.0  0.10717000000000008  0.030099999999999995  0.25279  1.0000
  O   O87       1.0  0.1259  0.97804  0.3164500000000001  1.0000
  O   O88       1.0  0.7772199999999998  0.08867999999999991  0.6384300000000003  1.0000
  O   O89       1.0  0.70589  0.08089999999999993  0.6526500000000002  1.0000
  O   O90       1.0  0.7143599999999999  0.08788999999999993  0.7314400000000002  1.0000
  O   O91       1.0  0.9927200000000002  0.51619  0.6985000000000001  1.0000
  O   O92       1.0  0.9305  0.4923199999999999  0.7526800000000002  1.0000
  O   O93       1.0  0.16999999999999993  0.8978000000000003  0.26102  1.0000
  O   O94       1.0  0.18841999999999987  0.8748700000000001  0.3228700000000001  1.0000
  O   O95       1.0  0.0303099999999999  0.60944  0.25302000000000013  1.0000
  O   O96       1.0  0.97804  0.5794200000000002  0.3166  1.0000
  O   O97       1.0  0.08873000000000003  0.49554000000000004  0.63851  1.0000
  O   O98       1.0  0.08060999999999996  0.5605  0.65286  1.0000
  O   O99       1.0  0.08779999999999999  0.4663300000000001  0.73147  1.0000
  O   O100      1.0  0.51613  0.79296  0.6983000000000003  1.0000
  O   O101      1.0  0.49242  0.8242999999999998  0.7528500000000002  1.0000
  O   O102      1.0  0.89777  0.6712200000000001  0.26102  1.0000
  O   O103      1.0  0.8749899999999999  0.61387  0.32290000000000013  1.0000
  O   O104      1.0  0.6092500000000004  0.10720999999999999  0.25309  1.0000
  O   O105      1.0  0.5794900000000004  0.12593999999999997  0.3166700000000001  1.0000
  O   O106      1.0  0.49564  0.7773099999999998  0.6385400000000002  1.0000
  O   O107      1.0  0.5604  0.70574  0.65264  1.0000
  O   O108      1.0  0.46625999999999973  0.7144800000000002  0.7314400000000002  1.0000
