data_image0
_chemical_formula_structural       Zn16H264C400N8O56
_chemical_formula_sum              "Zn16 H264 C400 N8 O56"
_cell_length_a       9.94025
_cell_length_b       40.61192
_cell_length_c       41.543
_cell_angle_alpha    90.0
_cell_angle_beta     90.0
_cell_angle_gamma    90.0

_space_group_name_H-M_alt    "P 1"
_space_group_IT_number       1

loop_
  _space_group_symop_operation_xyz
  'x, y, z'

loop_
  _atom_site_type_symbol
  _atom_site_label
  _atom_site_symmetry_multiplicity
  _atom_site_fract_x
  _atom_site_fract_y
  _atom_site_fract_z
  _atom_site_occupancy
  Zn  Zn1       1.0  0.08229  0.79423  0.05775  1.0000
  Zn  Zn2       1.0  0.31016  0.28923  0.39083999999999997  1.0000
  Zn  Zn3       1.0  0.21442999999999998  0.26767  0.45876999999999996  1.0000
  Zn  Zn4       1.0  0.41627000000000003  0.33565  0.9324999999999998  1.0000
  Zn  Zn5       1.0  0.91771  0.29423  0.94225  1.0000
  Zn  Zn6       1.0  0.68984  0.78923  0.60916  1.0000
  Zn  Zn7       1.0  0.78557  0.76767  0.54123  1.0000
  Zn  Zn8       1.0  0.58373  0.8356499999999999  0.0675  1.0000
  Zn  Zn9       1.0  0.41771  0.79423  0.5577499999999999  1.0000
  Zn  Zn10      1.0  0.18984  0.28923  0.89083  1.0000
  Zn  Zn11      1.0  0.28557  0.26767  0.95877  1.0000
  Zn  Zn12      1.0  0.08373  0.33565  0.43249999999999994  1.0000
  Zn  Zn13      1.0  0.58229  0.29423  0.44224999999999987  1.0000
  Zn  Zn14      1.0  0.81016  0.78923  0.10916  1.0000
  Zn  Zn15      1.0  0.71444  0.76767  0.04123  1.0000
  Zn  Zn16      1.0  0.9162700000000001  0.8356499999999999  0.5675  1.0000
  H   H1        1.0  0.66822  0.8977699999999998  0.31746  1.0000
  H   H2        1.0  0.42843  0.9845099999999999  0.30279  1.0000
  H   H3        1.0  0.71987  0.98125  0.37932  1.0000
  H   H4        1.0  0.59145  0.01388  0.40175  1.0000
  H   H5        1.0  0.53813  0.07002  0.4188699999999999  1.0000
  H   H6        1.0  0.40126  0.09257  0.32297999999999993  1.0000
  H   H7        1.0  0.46479  0.03717  0.30537  1.0000
  H   H8        1.0  0.3952  0.10755  0.43251999999999996  1.0000
  H   H9        1.0  0.33804  0.1645  0.44908999999999993  1.0000
  H   H10       1.0  0.3983  0.19806  0.35243  1.0000
  H   H11       1.0  0.46147  0.1416  0.33555999999999997  1.0000
  H   H12       1.0  0.46498999999999996  0.9655299999999999  0.24863999999999994  1.0000
  H   H13       1.0  0.35485  0.93658  0.20369999999999996  1.0000
  H   H14       1.0  0.35571  0.84697  0.25909  1.0000
  H   H15       1.0  0.46405  0.8760799999999999  0.30401999999999996  1.0000
  H   H16       1.0  0.17418  0.83809  0.23276  1.0000
  H   H17       1.0  0.06148  0.80767  0.18865999999999994  1.0000
  H   H18       1.0  0.2531  0.86962  0.11889999999999999  1.0000
  H   H19       1.0  0.36519  0.90081  0.16253999999999996  1.0000
  H   H20       1.0  0.9255399999999999  0.96085  0.3820399999999999  1.0000
  H   H21       1.0  0.70223  0.87169  0.3652  1.0000
  H   H22       1.0  0.69239  0.51306  0.10721  1.0000
  H   H23       1.0  0.43276999999999993  0.51914  0.18945  1.0000
  H   H24       1.0  0.68211  0.43411  0.17626  1.0000
  H   H25       1.0  0.8402399999999999  0.49058999999999997  0.08506  1.0000
  H   H26       1.0  0.99265  0.45792  0.051719999999999995  1.0000
  H   H27       1.0  0.9401199999999998  0.37524  0.11499  1.0000
  H   H28       1.0  0.78471  0.40715  0.14782  1.0000
  H   H29       1.0  0.2002  0.4351499999999999  0.04768  1.0000
  H   H30       1.0  0.34035  0.40229  0.00985  1.0000
  H   H31       1.0  0.10959  0.31586  0.032069999999999994  1.0000
  H   H32       1.0  0.9635  0.34878  0.06818999999999999  1.0000
  H   H33       1.0  0.68133  0.43431999999999993  0.22776  1.0000
  H   H34       1.0  0.5905499999999999  0.40681999999999996  0.27551  1.0000
  H   H35       1.0  0.20643  0.45249  0.25937  1.0000
  H   H36       1.0  0.29478  0.47895999999999994  0.21039999999999998  1.0000
  H   H37       1.0  0.70852  0.56611  0.11646  1.0000
  H   H38       1.0  0.63845  0.62112  0.09837999999999998  1.0000
  H   H39       1.0  0.24213999999999997  0.60411  0.13665999999999998  1.0000
  H   H40       1.0  0.31015  0.5487  0.15376  1.0000
  H   H41       1.0  0.58417  0.67329  0.11636  1.0000
  H   H42       1.0  0.51343  0.72874  0.09865  1.0000
  H   H43       1.0  0.12349  0.69094  0.07352  1.0000
  H   H44       1.0  0.19381  0.63508  0.09086999999999998  1.0000
  H   H45       1.0  0.14058  0.40277  0.28131  1.0000
  H   H46       1.0  0.05325  0.37642  0.33106  1.0000
  H   H47       1.0  0.4406399999999999  0.38568  0.3754199999999999  1.0000
  H   H48       1.0  0.52848  0.41353  0.32649  1.0000
  H   H49       1.0  0.19084  0.19715  0.48263999999999996  1.0000
  H   H50       1.0  0.01196  0.16186  0.50767  1.0000
  H   H51       1.0  0.79263  0.18843  0.52346  1.0000
  H   H52       1.0  0.7642199999999999  0.24945  0.51439  1.0000
  H   H53       1.0  0.9571  0.28103  0.49143  1.0000
  H   H54       1.0  0.08256  0.93026  0.41679  1.0000
  H   H55       1.0  0.86095  0.84112  0.3996699999999999  1.0000
  H   H56       1.0  0.08821  0.9041200000000001  0.46747  1.0000
  H   H57       1.0  0.23798  0.87267  0.50456  1.0000
  H   H58       1.0  0.0878  0.8222600000000001  0.40177  1.0000
  H   H59       1.0  0.24259  0.79165  0.43865999999999994  1.0000
  H   H60       1.0  0.00649  0.28738  0.37507  1.0000
  H   H61       1.0  0.35233  0.30725  0.32331  1.0000
  H   H62       1.0  0.86079  0.29616  0.32703  1.0000
  H   H63       1.0  0.22172999999999998  0.31582  0.27229  1.0000
  H   H64       1.0  0.9694699999999999  0.31016  0.27415  1.0000
  H   H65       1.0  0.0015800000000000002  0.27902  0.4245499999999999  1.0000
  H   H66       1.0  0.35682  0.31696  0.44286999999999993  1.0000
  H   H67       1.0  0.33178  0.39776999999999996  0.68254  1.0000
  H   H68       1.0  0.57157  0.48451  0.69721  1.0000
  H   H69       1.0  0.28013  0.48124999999999996  0.62068  1.0000
  H   H70       1.0  0.40855  0.51388  0.59825  1.0000
  H   H71       1.0  0.46187  0.57002  0.58113  1.0000
  H   H72       1.0  0.59874  0.59257  0.67702  1.0000
  H   H73       1.0  0.53521  0.53717  0.69463  1.0000
  H   H74       1.0  0.6048  0.60755  0.56748  1.0000
  H   H75       1.0  0.66197  0.6645  0.55091  1.0000
  H   H76       1.0  0.60171  0.69806  0.6475699999999999  1.0000
  H   H77       1.0  0.53854  0.6416  0.66444  1.0000
  H   H78       1.0  0.53501  0.46553  0.7513599999999999  1.0000
  H   H79       1.0  0.64515  0.43657999999999997  0.7963  1.0000
  H   H80       1.0  0.6443  0.34697  0.74091  1.0000
  H   H81       1.0  0.53596  0.37608  0.69598  1.0000
  H   H82       1.0  0.82583  0.33809  0.76724  1.0000
  H   H83       1.0  0.93852  0.30767  0.8113399999999998  1.0000
  H   H84       1.0  0.7469  0.36962  0.8811  1.0000
  H   H85       1.0  0.63481  0.40080999999999994  0.83745  1.0000
  H   H86       1.0  0.07446  0.46085  0.61796  1.0000
  H   H87       1.0  0.29778  0.37169  0.6348  1.0000
  H   H88       1.0  0.30761  0.01306  0.8927899999999999  1.0000
  H   H89       1.0  0.56723  0.01914  0.81055  1.0000
  H   H90       1.0  0.31789  0.93411  0.82374  1.0000
  H   H91       1.0  0.15977  0.9905899999999999  0.91494  1.0000
  H   H92       1.0  0.00735  0.9579199999999999  0.9482799999999999  1.0000
  H   H93       1.0  0.05988  0.87524  0.8850099999999999  1.0000
  H   H94       1.0  0.2153  0.9071500000000001  0.85218  1.0000
  H   H95       1.0  0.79981  0.93514  0.9523199999999998  1.0000
  H   H96       1.0  0.65965  0.9022899999999999  0.99015  1.0000
  H   H97       1.0  0.89041  0.81586  0.9679299999999997  1.0000
  H   H98       1.0  0.03651  0.8487799999999999  0.93181  1.0000
  H   H99       1.0  0.31867  0.9343199999999999  0.77224  1.0000
  H   H100      1.0  0.40945000000000004  0.9068199999999998  0.7244899999999999  1.0000
  H   H101      1.0  0.79357  0.95249  0.74063  1.0000
  H   H102      1.0  0.70522  0.97896  0.7896  1.0000
  H   H103      1.0  0.29148  0.06611  0.88354  1.0000
  H   H104      1.0  0.36155  0.12112  0.9016199999999999  1.0000
  H   H105      1.0  0.75787  0.10412  0.86334  1.0000
  H   H106      1.0  0.68986  0.0487  0.84624  1.0000
  H   H107      1.0  0.41584  0.17329  0.8836399999999999  1.0000
  H   H108      1.0  0.48657  0.22874  0.9013499999999998  1.0000
  H   H109      1.0  0.87651  0.19094  0.92648  1.0000
  H   H110      1.0  0.80619  0.13508  0.9091299999999999  1.0000
  H   H111      1.0  0.8594199999999999  0.90277  0.71869  1.0000
  H   H112      1.0  0.9467499999999999  0.87642  0.6689399999999998  1.0000
  H   H113      1.0  0.55936  0.88568  0.62458  1.0000
  H   H114      1.0  0.47152000000000005  0.9135300000000001  0.6735099999999999  1.0000
  H   H115      1.0  0.8091699999999998  0.69715  0.5173599999999999  1.0000
  H   H116      1.0  0.98804  0.66186  0.49233  1.0000
  H   H117      1.0  0.20736999999999997  0.68843  0.47653999999999996  1.0000
  H   H118      1.0  0.23579  0.74945  0.48560999999999993  1.0000
  H   H119      1.0  0.0429  0.78103  0.50857  1.0000
  H   H120      1.0  0.91744  0.43026000000000003  0.58321  1.0000
  H   H121      1.0  0.13905  0.34112  0.60033  1.0000
  H   H122      1.0  0.9117899999999999  0.4041199999999999  0.53253  1.0000
  H   H123      1.0  0.76202  0.37267  0.49544  1.0000
  H   H124      1.0  0.9122  0.32226  0.59823  1.0000
  H   H125      1.0  0.75741  0.29165  0.56134  1.0000
  H   H126      1.0  0.9935199999999998  0.78738  0.6249299999999999  1.0000
  H   H127      1.0  0.64767  0.80725  0.6766899999999999  1.0000
  H   H128      1.0  0.13922  0.7961599999999999  0.67297  1.0000
  H   H129      1.0  0.77827  0.81582  0.72771  1.0000
  H   H130      1.0  0.03054  0.81016  0.72585  1.0000
  H   H131      1.0  0.99842  0.77902  0.57545  1.0000
  H   H132      1.0  0.64318  0.81696  0.55713  1.0000
  H   H133      1.0  0.8317800000000001  0.8977699999999998  0.8174599999999997  1.0000
  H   H134      1.0  0.07157  0.9845099999999999  0.8027899999999999  1.0000
  H   H135      1.0  0.78013  0.98125  0.8793199999999999  1.0000
  H   H136      1.0  0.90855  0.01388  0.90175  1.0000
  H   H137      1.0  0.96187  0.07002  0.9188699999999999  1.0000
  H   H138      1.0  0.09874  0.09257  0.8229799999999998  1.0000
  H   H139      1.0  0.03521  0.03717  0.80537  1.0000
  H   H140      1.0  0.1048  0.10755  0.9325199999999998  1.0000
  H   H141      1.0  0.16196  0.1645  0.9490899999999998  1.0000
  H   H142      1.0  0.10170999999999998  0.19806  0.85243  1.0000
  H   H143      1.0  0.03854  0.1416  0.83556  1.0000
  H   H144      1.0  0.03501  0.9655299999999999  0.74864  1.0000
  H   H145      1.0  0.14515  0.93658  0.7036999999999999  1.0000
  H   H146      1.0  0.1443  0.84697  0.7590899999999999  1.0000
  H   H147      1.0  0.03596  0.8760799999999999  0.8040199999999997  1.0000
  H   H148      1.0  0.32583  0.83809  0.73276  1.0000
  H   H149      1.0  0.43852  0.80767  0.68866  1.0000
  H   H150      1.0  0.24689999999999998  0.86962  0.6189  1.0000
  H   H151      1.0  0.13481  0.90081  0.66254  1.0000
  H   H152      1.0  0.57446  0.96085  0.88204  1.0000
  H   H153      1.0  0.79778  0.87169  0.8651999999999997  1.0000
  H   H154      1.0  0.80761  0.51306  0.60721  1.0000
  H   H155      1.0  0.06723  0.51914  0.68945  1.0000
  H   H156      1.0  0.8178900000000001  0.43411  0.67626  1.0000
  H   H157      1.0  0.65977  0.49058999999999997  0.58506  1.0000
  H   H158      1.0  0.50735  0.45792  0.55172  1.0000
  H   H159      1.0  0.55989  0.37524  0.6149899999999999  1.0000
  H   H160      1.0  0.7153  0.40715  0.64782  1.0000
  H   H161      1.0  0.2998  0.4351499999999999  0.5476699999999999  1.0000
  H   H162      1.0  0.15965  0.40229  0.5098499999999999  1.0000
  H   H163      1.0  0.39041  0.31586  0.53207  1.0000
  H   H164      1.0  0.53651  0.34878  0.56819  1.0000
  H   H165      1.0  0.81867  0.43431999999999993  0.72776  1.0000
  H   H166      1.0  0.9094499999999999  0.40681999999999996  0.7755099999999999  1.0000
  H   H167      1.0  0.29357  0.45249  0.75937  1.0000
  H   H168      1.0  0.20521999999999999  0.47895999999999994  0.7104  1.0000
  H   H169      1.0  0.79148  0.56611  0.61646  1.0000
  H   H170      1.0  0.86155  0.62112  0.5983799999999999  1.0000
  H   H171      1.0  0.25787  0.60411  0.6366599999999999  1.0000
  H   H172      1.0  0.18986  0.5487  0.65376  1.0000
  H   H173      1.0  0.91584  0.67329  0.61636  1.0000
  H   H174      1.0  0.98657  0.72874  0.59865  1.0000
  H   H175      1.0  0.37651  0.69094  0.57352  1.0000
  H   H176      1.0  0.30619  0.63508  0.5908699999999999  1.0000
  H   H177      1.0  0.35942  0.40277  0.7813099999999997  1.0000
  H   H178      1.0  0.44675  0.37642  0.83106  1.0000
  H   H179      1.0  0.059359999999999996  0.38568  0.87541  1.0000
  H   H180      1.0  0.97152  0.41353  0.82649  1.0000
  H   H181      1.0  0.30917  0.19715  0.98264  1.0000
  H   H182      1.0  0.48804  0.16186  0.00767  1.0000
  H   H183      1.0  0.70737  0.18843  0.023459999999999995  1.0000
  H   H184      1.0  0.73579  0.24945  0.014389999999999998  1.0000
  H   H185      1.0  0.5429  0.28103  0.9914299999999999  1.0000
  H   H186      1.0  0.41744  0.93026  0.9167899999999998  1.0000
  H   H187      1.0  0.63905  0.84112  0.89967  1.0000
  H   H188      1.0  0.41179  0.9041200000000001  0.96747  1.0000
  H   H189      1.0  0.26202  0.87267  0.004559999999999999  1.0000
  H   H190      1.0  0.4122  0.8222600000000001  0.9017699999999997  1.0000
  H   H191      1.0  0.25741  0.79165  0.9386599999999998  1.0000
  H   H192      1.0  0.49351999999999996  0.28738  0.8750699999999999  1.0000
  H   H193      1.0  0.14767  0.30725  0.82331  1.0000
  H   H194      1.0  0.63922  0.29616  0.82703  1.0000
  H   H195      1.0  0.27827  0.31582  0.7722899999999999  1.0000
  H   H196      1.0  0.53054  0.31016  0.7741499999999999  1.0000
  H   H197      1.0  0.49842  0.27902  0.9245499999999999  1.0000
  H   H198      1.0  0.14318  0.31696  0.94287  1.0000
  H   H199      1.0  0.16822  0.39776999999999996  0.18254  1.0000
  H   H200      1.0  0.92843  0.48451  0.19720999999999997  1.0000
  H   H201      1.0  0.21987000000000004  0.48124999999999996  0.12067999999999997  1.0000
  H   H202      1.0  0.09145  0.51388  0.09825  1.0000
  H   H203      1.0  0.03813  0.57002  0.08113  1.0000
  H   H204      1.0  0.9012599999999998  0.59257  0.17701999999999996  1.0000
  H   H205      1.0  0.96479  0.53717  0.19463  1.0000
  H   H206      1.0  0.8952000000000001  0.60755  0.06748  1.0000
  H   H207      1.0  0.83804  0.6645  0.05090999999999999  1.0000
  H   H208      1.0  0.8983  0.69806  0.14757  1.0000
  H   H209      1.0  0.96147  0.6416  0.16444  1.0000
  H   H210      1.0  0.9649899999999999  0.46553  0.2513599999999999  1.0000
  H   H211      1.0  0.85485  0.43657999999999997  0.2963  1.0000
  H   H212      1.0  0.8557100000000001  0.34698  0.24091  1.0000
  H   H213      1.0  0.9640500000000001  0.37608  0.19598  1.0000
  H   H214      1.0  0.67418  0.33809  0.26724  1.0000
  H   H215      1.0  0.56148  0.30767  0.31133999999999995  1.0000
  H   H216      1.0  0.7531  0.36962  0.3811  1.0000
  H   H217      1.0  0.8651999999999999  0.40080999999999994  0.3374599999999999  1.0000
  H   H218      1.0  0.42554  0.46085  0.11795999999999998  1.0000
  H   H219      1.0  0.20223000000000002  0.37169  0.1348  1.0000
  H   H220      1.0  0.19239  0.01306  0.39279  1.0000
  H   H221      1.0  0.93277  0.01914  0.31055  1.0000
  H   H222      1.0  0.18211  0.93411  0.32373999999999997  1.0000
  H   H223      1.0  0.34023  0.9905899999999999  0.41494  1.0000
  H   H224      1.0  0.49265  0.9579199999999999  0.44828  1.0000
  H   H225      1.0  0.44012000000000007  0.87524  0.3850099999999999  1.0000
  H   H226      1.0  0.28471  0.9071500000000001  0.35218  1.0000
  H   H227      1.0  0.7002  0.93515  0.45232  1.0000
  H   H228      1.0  0.8403499999999999  0.9022899999999999  0.49015  1.0000
  H   H229      1.0  0.60959  0.81586  0.46793  1.0000
  H   H230      1.0  0.4635  0.8487799999999999  0.43181  1.0000
  H   H231      1.0  0.18133  0.9343199999999999  0.27224  1.0000
  H   H232      1.0  0.09055  0.9068199999999998  0.22448999999999997  1.0000
  H   H233      1.0  0.70643  0.95249  0.24062999999999996  1.0000
  H   H234      1.0  0.79478  0.97896  0.28959999999999997  1.0000
  H   H235      1.0  0.20851999999999998  0.06611  0.38354  1.0000
  H   H236      1.0  0.13845  0.12112  0.40162  1.0000
  H   H237      1.0  0.74214  0.10412  0.36333999999999994  1.0000
  H   H238      1.0  0.81015  0.0487  0.34624  1.0000
  H   H239      1.0  0.08417  0.17329  0.38364  1.0000
  H   H240      1.0  0.01343  0.22874  0.40134999999999993  1.0000
  H   H241      1.0  0.62349  0.19094  0.4264799999999999  1.0000
  H   H242      1.0  0.69382  0.13508  0.40913  1.0000
  H   H243      1.0  0.64058  0.90277  0.21868999999999994  1.0000
  H   H244      1.0  0.55325  0.87642  0.16893999999999998  1.0000
  H   H245      1.0  0.94064  0.88568  0.12457999999999998  1.0000
  H   H246      1.0  0.02848  0.9135300000000001  0.17350999999999997  1.0000
  H   H247      1.0  0.69084  0.69715  0.017359999999999997  1.0000
  H   H248      1.0  0.51196  0.66186  0.9923299999999998  1.0000
  H   H249      1.0  0.29263  0.68843  0.97654  1.0000
  H   H250      1.0  0.26421  0.74945  0.98561  1.0000
  H   H251      1.0  0.45709999999999995  0.78103  0.00857  1.0000
  H   H252      1.0  0.58256  0.43026000000000003  0.08320999999999999  1.0000
  H   H253      1.0  0.36095  0.34112  0.10033  1.0000
  H   H254      1.0  0.58821  0.4041199999999999  0.03253  1.0000
  H   H255      1.0  0.73798  0.37267  0.9954399999999998  1.0000
  H   H256      1.0  0.5878  0.32226  0.09823  1.0000
  H   H257      1.0  0.74259  0.29165  0.06133999999999999  1.0000
  H   H258      1.0  0.50649  0.78738  0.12493  1.0000
  H   H259      1.0  0.85233  0.80725  0.17669  1.0000
  H   H260      1.0  0.36078  0.7961599999999999  0.17297  1.0000
  H   H261      1.0  0.72173  0.81582  0.22771  1.0000
  H   H262      1.0  0.46947  0.81016  0.22584999999999994  1.0000
  H   H263      1.0  0.50159  0.77902  0.07544999999999999  1.0000
  H   H264      1.0  0.85682  0.81696  0.057129999999999986  1.0000
  C   C1        1.0  0.70313  0.93707  0.35127  1.0000
  C   C2        1.0  0.6391  0.92246  0.32481  1.0000
  C   C3        1.0  0.54227  0.93959  0.30680999999999997  1.0000
  C   C4        1.0  0.50949  0.9720000000000001  0.3154199999999999  1.0000
  C   C5        1.0  0.57257  0.9874099999999999  0.34171  1.0000
  C   C6        1.0  0.66986  0.96967  0.35900999999999994  1.0000
  C   C7        1.0  0.53455  0.021  0.35205  1.0000
  C   C8        1.0  0.55203  0.0312  0.38417  1.0000
  C   C9        1.0  0.51929  0.06295  0.39402  1.0000
  C   C10       1.0  0.46567  0.08613  0.37234  1.0000
  C   C11       1.0  0.44585  0.07573  0.34031  1.0000
  C   C12       1.0  0.4799  0.04407  0.33041  1.0000
  C   C13       1.0  0.43163  0.11995000000000001  0.38260999999999995  1.0000
  C   C14       1.0  0.39813  0.12727  0.41483  1.0000
  C   C15       1.0  0.36428  0.15917  0.4242099999999999  1.0000
  C   C16       1.0  0.36239  0.18482999999999997  0.40163  1.0000
  C   C17       1.0  0.3975  0.1779  0.36964  1.0000
  C   C18       1.0  0.4318  0.14611  0.36036  1.0000
  C   C19       1.0  0.47446  0.9229399999999999  0.2797  1.0000
  C   C20       1.0  0.4411399999999999  0.93948  0.2510299999999999  1.0000
  C   C21       1.0  0.38001  0.923  0.22545999999999997  1.0000
  C   C22       1.0  0.34773  0.88933  0.2276  1.0000
  C   C23       1.0  0.37961  0.8729699999999999  0.25649999999999995  1.0000
  C   C24       1.0  0.44178  0.8892999999999999  0.28187  1.0000
  C   C25       1.0  0.27979  0.87163  0.20112999999999995  1.0000
  C   C26       1.0  0.19324  0.8449999999999999  0.20788  1.0000
  C   C27       1.0  0.12822  0.82814  0.18325999999999998  1.0000
  C   C28       1.0  0.2356  0.8632099999999999  0.14396  1.0000
  C   C29       1.0  0.29829  0.8805799999999999  0.16867999999999997  1.0000
  C   C30       1.0  0.90877  0.93474  0.38633  1.0000
  C   C31       1.0  0.80124  0.91864  0.37098  1.0000
  C   C32       1.0  0.7873899999999999  0.88453  0.37579999999999997  1.0000
  C   C33       1.0  0.32345  0.21919  0.41084  1.0000
  C   C34       1.0  0.7028  0.47123999999999994  0.13937  1.0000
  C   C35       1.0  0.65605  0.50232  0.12952  1.0000
  C   C36       1.0  0.55893  0.51984  0.14717999999999998  1.0000
  C   C37       1.0  0.50578  0.50552  0.17521  1.0000
  C   C38       1.0  0.55049  0.47458  0.18587  1.0000
  C   C39       1.0  0.64958  0.45817  0.16796  1.0000
  C   C40       1.0  0.79928  0.45197999999999994  0.11963999999999998  1.0000
  C   C41       1.0  0.86099  0.4653399999999999  0.09206999999999999  1.0000
  C   C42       1.0  0.9491199999999999  0.44696  0.07323  1.0000
  C   C43       1.0  0.9799600000000002  0.41409  0.08085999999999999  1.0000
  C   C44       1.0  0.9181499999999999  0.40057  0.10825999999999997  1.0000
  C   C45       1.0  0.83041  0.41899  0.12708  1.0000
  C   C46       1.0  0.07082  0.3944  0.06049999999999999  1.0000
  C   C47       1.0  0.17884  0.40916  0.043969999999999995  1.0000
  C   C48       1.0  0.25878  0.39083  0.023169999999999996  1.0000
  C   C49       1.0  0.23428  0.35706  0.018839999999999996  1.0000
  C   C50       1.0  0.13008  0.34185  0.03611  1.0000
  C   C51       1.0  0.04905  0.36041  0.0565  1.0000
  C   C52       1.0  0.49560999999999994  0.45906  0.21531  1.0000
  C   C53       1.0  0.57666  0.43831000000000003  0.23426999999999995  1.0000
  C   C54       1.0  0.52598  0.42303999999999997  0.26164  1.0000
  C   C55       1.0  0.39188  0.42763999999999996  0.27135  1.0000
  C   C56       1.0  0.31054  0.44836999999999994  0.25242  1.0000
  C   C57       1.0  0.36127  0.46377  0.22499  1.0000
  C   C58       1.0  0.51511  0.55292  0.13644999999999996  1.0000
  C   C59       1.0  0.60546  0.57407  0.12051999999999999  1.0000
  C   C60       1.0  0.56634  0.60537  0.11064999999999997  1.0000
  C   C61       1.0  0.43483  0.61688  0.11598999999999997  1.0000
  C   C62       1.0  0.34422  0.59579  0.13188  1.0000
  C   C63       1.0  0.38354  0.56448  0.14193  1.0000
  C   C64       1.0  0.39393  0.65004  0.10505999999999999  1.0000
  C   C65       1.0  0.48356  0.67688  0.10661999999999998  1.0000
  C   C66       1.0  0.44361  0.7082  0.09675999999999998  1.0000
  C   C67       1.0  0.31285  0.71358  0.08508  1.0000
  C   C68       1.0  0.22405  0.68679  0.0829  1.0000
  C   C69       1.0  0.26384  0.65556  0.09280999999999999  1.0000
  C   C70       1.0  0.33993  0.41109  0.30049  1.0000
  C   C71       1.0  0.20552999999999996  0.4002  0.30222  1.0000
  C   C72       1.0  0.15592  0.38548  0.33003999999999994  1.0000
  C   C73       1.0  0.37558  0.39015  0.35483  1.0000
  C   C74       1.0  0.42414  0.40552  0.3272499999999999  1.0000
  C   C75       1.0  0.30847  0.33775  0.9941699999999999  1.0000
  C   C76       1.0  0.09607  0.20747  0.4909  1.0000
  C   C77       1.0  0.9954199999999999  0.18813  0.5044699999999999  1.0000
  C   C78       1.0  0.8741  0.20298  0.51323  1.0000
  C   C79       1.0  0.858  0.23678  0.5085799999999999  1.0000
  C   C80       1.0  0.96442  0.2546  0.49539999999999995  1.0000
  C   C81       1.0  0.24021  0.38051  0.35667999999999994  1.0000
  C   C82       1.0  0.14863  0.83704  0.15100999999999998  1.0000
  C   C83       1.0  0.9837600000000001  0.88341  0.41077  1.0000
  C   C84       1.0  0.9979  0.9174900000000001  0.4058899999999999  1.0000
  C   C85       1.0  0.07685  0.86534  0.43204999999999993  1.0000
  C   C86       1.0  0.07619  0.81937  0.12451999999999998  1.0000
  C   C87       1.0  0.87697  0.86722  0.3952299999999999  1.0000
  C   C88       1.0  0.18997999999999998  0.36396  0.38602999999999993  1.0000
  C   C89       1.0  0.26572  0.74727  0.07593999999999998  1.0000
  C   C90       1.0  0.24908  0.83023  0.4738599999999999  1.0000
  C   C91       1.0  0.12236  0.8795499999999999  0.46097  1.0000
  C   C92       1.0  0.20581  0.86211  0.48179  1.0000
  C   C93       1.0  0.12053  0.83334  0.42429  1.0000
  C   C94       1.0  0.20668  0.81618  0.44474999999999987  1.0000
  C   C95       1.0  0.04983  0.29353  0.35183999999999993  1.0000
  C   C96       1.0  0.24366999999999997  0.3045  0.32251  1.0000
  C   C97       1.0  0.33748  0.8109500000000001  0.49627999999999994  1.0000
  C   C98       1.0  0.96944  0.29823  0.32479999999999987  1.0000
  C   C99       1.0  0.16994  0.30923  0.29441999999999996  1.0000
  C   C100      1.0  0.030250000000000003  0.30611  0.29556  1.0000
  C   C101      1.0  0.29688  0.43707  0.6487299999999999  1.0000
  C   C102      1.0  0.36091  0.42246  0.67519  1.0000
  C   C103      1.0  0.45773  0.43959000000000004  0.69319  1.0000
  C   C104      1.0  0.49051  0.472  0.6845799999999999  1.0000
  C   C105      1.0  0.42743  0.48741000000000007  0.6582899999999999  1.0000
  C   C106      1.0  0.33015  0.4696699999999999  0.64099  1.0000
  C   C107      1.0  0.46545000000000003  0.52099  0.64795  1.0000
  C   C108      1.0  0.44797000000000003  0.5312  0.61583  1.0000
  C   C109      1.0  0.48071  0.56295  0.60598  1.0000
  C   C110      1.0  0.53433  0.58612  0.6276599999999999  1.0000
  C   C111      1.0  0.55415  0.57573  0.65969  1.0000
  C   C112      1.0  0.5201  0.54407  0.6695799999999998  1.0000
  C   C113      1.0  0.56837  0.61995  0.6173799999999999  1.0000
  C   C114      1.0  0.60187  0.62727  0.58517  1.0000
  C   C115      1.0  0.63572  0.65917  0.57579  1.0000
  C   C116      1.0  0.63761  0.68483  0.59837  1.0000
  C   C117      1.0  0.60251  0.6779  0.63036  1.0000
  C   C118      1.0  0.56821  0.64611  0.63964  1.0000
  C   C119      1.0  0.52555  0.4229399999999999  0.7203  1.0000
  C   C120      1.0  0.55887  0.4394799999999999  0.7489699999999999  1.0000
  C   C121      1.0  0.61999  0.42301  0.7745399999999999  1.0000
  C   C122      1.0  0.65227  0.38933  0.7724  1.0000
  C   C123      1.0  0.62039  0.37297  0.7435  1.0000
  C   C124      1.0  0.55822  0.3893  0.71813  1.0000
  C   C125      1.0  0.72022  0.37163  0.7988699999999999  1.0000
  C   C126      1.0  0.80676  0.345  0.7921199999999999  1.0000
  C   C127      1.0  0.8717899999999998  0.32814  0.81674  1.0000
  C   C128      1.0  0.7644  0.36321  0.85603  1.0000
  C   C129      1.0  0.70171  0.38058  0.8313199999999997  1.0000
  C   C130      1.0  0.09123  0.43474  0.61367  1.0000
  C   C131      1.0  0.19876  0.41864  0.62902  1.0000
  C   C132      1.0  0.21261  0.38453  0.6242  1.0000
  C   C133      1.0  0.67655  0.71919  0.5891599999999999  1.0000
  C   C134      1.0  0.2972  0.97124  0.86063  1.0000
  C   C135      1.0  0.34396  0.00232  0.8704799999999998  1.0000
  C   C136      1.0  0.44106999999999996  0.01984  0.8528199999999999  1.0000
  C   C137      1.0  0.49422  0.00552  0.8247899999999999  1.0000
  C   C138      1.0  0.44950999999999997  0.9745799999999999  0.8141299999999999  1.0000
  C   C139      1.0  0.35043  0.95817  0.83203  1.0000
  C   C140      1.0  0.20072  0.95198  0.88036  1.0000
  C   C141      1.0  0.13902  0.96534  0.90793  1.0000
  C   C142      1.0  0.05088  0.9469600000000001  0.92677  1.0000
  C   C143      1.0  0.02004  0.91409  0.9191399999999998  1.0000
  C   C144      1.0  0.08185  0.9005700000000001  0.89174  1.0000
  C   C145      1.0  0.1696  0.9189900000000001  0.87292  1.0000
  C   C146      1.0  0.92919  0.8944000000000001  0.9395  1.0000
  C   C147      1.0  0.82116  0.9091599999999999  0.9560299999999999  1.0000
  C   C148      1.0  0.74122  0.8908299999999999  0.9768299999999999  1.0000
  C   C149      1.0  0.76573  0.8570599999999999  0.9811599999999998  1.0000
  C   C150      1.0  0.86992  0.84185  0.9638899999999998  1.0000
  C   C151      1.0  0.9509499999999999  0.8604  0.9434999999999999  1.0000
  C   C152      1.0  0.50439  0.9590599999999999  0.78469  1.0000
  C   C153      1.0  0.42335  0.9383099999999999  0.76573  1.0000
  C   C154      1.0  0.47402000000000005  0.92304  0.73836  1.0000
  C   C155      1.0  0.60812  0.92764  0.72865  1.0000
  C   C156      1.0  0.68946  0.94837  0.74758  1.0000
  C   C157      1.0  0.63873  0.9637700000000001  0.7750099999999999  1.0000
  C   C158      1.0  0.4849  0.052919999999999995  0.86355  1.0000
  C   C159      1.0  0.39455  0.07407  0.87948  1.0000
  C   C160      1.0  0.43365999999999993  0.10538  0.8893499999999999  1.0000
  C   C161      1.0  0.56517  0.11688  0.88401  1.0000
  C   C162      1.0  0.65578  0.09579  0.86812  1.0000
  C   C163      1.0  0.61647  0.06448  0.85807  1.0000
  C   C164      1.0  0.60607  0.15004  0.89494  1.0000
  C   C165      1.0  0.51644  0.17688  0.89337  1.0000
  C   C166      1.0  0.5564  0.2082  0.9032299999999999  1.0000
  C   C167      1.0  0.68715  0.21358  0.91492  1.0000
  C   C168      1.0  0.77595  0.18679  0.9170999999999999  1.0000
  C   C169      1.0  0.73617  0.15556  0.90719  1.0000
  C   C170      1.0  0.66007  0.9110799999999999  0.69951  1.0000
  C   C171      1.0  0.79447  0.9001999999999999  0.6977799999999998  1.0000
  C   C172      1.0  0.8440799999999999  0.8854799999999999  0.6699599999999999  1.0000
  C   C173      1.0  0.62442  0.89015  0.64517  1.0000
  C   C174      1.0  0.57586  0.90551  0.67275  1.0000
  C   C175      1.0  0.69154  0.8377400000000002  0.005829999999999999  1.0000
  C   C176      1.0  0.9039299999999999  0.70747  0.5091  1.0000
  C   C177      1.0  0.00458  0.6881299999999999  0.49553  1.0000
  C   C178      1.0  0.12591  0.70298  0.48677  1.0000
  C   C179      1.0  0.142  0.73678  0.49141999999999997  1.0000
  C   C180      1.0  0.03558  0.75459  0.5046  1.0000
  C   C181      1.0  0.75979  0.8805099999999999  0.64332  1.0000
  C   C182      1.0  0.85137  0.33704  0.84899  1.0000
  C   C183      1.0  0.01625  0.38341  0.58923  1.0000
  C   C184      1.0  0.0021  0.41749  0.59411  1.0000
  C   C185      1.0  0.9231499999999999  0.36533999999999994  0.56795  1.0000
  C   C186      1.0  0.92381  0.31937  0.8754799999999998  1.0000
  C   C187      1.0  0.12303  0.36722  0.60477  1.0000
  C   C188      1.0  0.8100199999999999  0.8639600000000001  0.61397  1.0000
  C   C189      1.0  0.73428  0.24727  0.92406  1.0000
  C   C190      1.0  0.75092  0.33023  0.52614  1.0000
  C   C191      1.0  0.8776500000000002  0.37955  0.5390299999999999  1.0000
  C   C192      1.0  0.7942  0.36211  0.51821  1.0000
  C   C193      1.0  0.8794800000000002  0.33334  0.5757  1.0000
  C   C194      1.0  0.79333  0.31618  0.55525  1.0000
  C   C195      1.0  0.9501699999999998  0.7935200000000001  0.64816  1.0000
  C   C196      1.0  0.75633  0.8044999999999999  0.6774899999999999  1.0000
  C   C197      1.0  0.66252  0.31095  0.50372  1.0000
  C   C198      1.0  0.03056  0.79823  0.6751999999999999  1.0000
  C   C199      1.0  0.8300599999999999  0.8092299999999999  0.70558  1.0000
  C   C200      1.0  0.96975  0.8061099999999999  0.70444  1.0000
  C   C201      1.0  0.79688  0.93707  0.85127  1.0000
  C   C202      1.0  0.86091  0.92246  0.8248099999999999  1.0000
  C   C203      1.0  0.95773  0.93959  0.8068099999999998  1.0000
  C   C204      1.0  0.99051  0.9720000000000001  0.81542  1.0000
  C   C205      1.0  0.92743  0.9874099999999999  0.84171  1.0000
  C   C206      1.0  0.8301499999999999  0.96967  0.85901  1.0000
  C   C207      1.0  0.9654500000000001  0.021  0.8520499999999999  1.0000
  C   C208      1.0  0.94797  0.0312  0.8841699999999999  1.0000
  C   C209      1.0  0.98071  0.06295  0.89402  1.0000
  C   C210      1.0  0.03433  0.08613  0.8723399999999999  1.0000
  C   C211      1.0  0.05415  0.07573  0.84031  1.0000
  C   C212      1.0  0.0201  0.04407  0.8304099999999998  1.0000
  C   C213      1.0  0.06837  0.11995000000000001  0.88261  1.0000
  C   C214      1.0  0.10187  0.12727  0.9148199999999999  1.0000
  C   C215      1.0  0.13572  0.15917  0.92421  1.0000
  C   C216      1.0  0.13761  0.18482999999999997  0.9016299999999998  1.0000
  C   C217      1.0  0.10249999999999998  0.1779  0.86964  1.0000
  C   C218      1.0  0.0682  0.14611  0.86035  1.0000
  C   C219      1.0  0.02555  0.9229399999999999  0.7796999999999997  1.0000
  C   C220      1.0  0.05887  0.93948  0.75103  1.0000
  C   C221      1.0  0.11998999999999999  0.923  0.72546  1.0000
  C   C222      1.0  0.15227  0.88933  0.7275999999999999  1.0000
  C   C223      1.0  0.12039  0.8729699999999999  0.7565  1.0000
  C   C224      1.0  0.05822000000000001  0.8892999999999999  0.78187  1.0000
  C   C225      1.0  0.22021  0.87163  0.7011299999999999  1.0000
  C   C226      1.0  0.30676  0.8449999999999999  0.7078799999999998  1.0000
  C   C227      1.0  0.37179  0.82814  0.6832599999999998  1.0000
  C   C228      1.0  0.2644  0.8632099999999999  0.64396  1.0000
  C   C229      1.0  0.20171000000000003  0.8805799999999999  0.66868  1.0000
  C   C230      1.0  0.59124  0.93474  0.8863299999999997  1.0000
  C   C231      1.0  0.69876  0.91864  0.87098  1.0000
  C   C232      1.0  0.71261  0.88453  0.8758  1.0000
  C   C233      1.0  0.17655  0.21919  0.91084  1.0000
  C   C234      1.0  0.7972  0.47123999999999994  0.6393699999999999  1.0000
  C   C235      1.0  0.84396  0.50232  0.62952  1.0000
  C   C236      1.0  0.94107  0.51984  0.64718  1.0000
  C   C237      1.0  0.99422  0.50552  0.67521  1.0000
  C   C238      1.0  0.94951  0.47458  0.6858699999999999  1.0000
  C   C239      1.0  0.85043  0.45817  0.66796  1.0000
  C   C240      1.0  0.70072  0.45197999999999994  0.61964  1.0000
  C   C241      1.0  0.63902  0.4653399999999999  0.59207  1.0000
  C   C242      1.0  0.55088  0.44696  0.57323  1.0000
  C   C243      1.0  0.52004  0.41409  0.58086  1.0000
  C   C244      1.0  0.58185  0.40057  0.6082599999999999  1.0000
  C   C245      1.0  0.6696  0.41899  0.6270799999999999  1.0000
  C   C246      1.0  0.42919  0.3944  0.5604999999999999  1.0000
  C   C247      1.0  0.32116  0.40916  0.54397  1.0000
  C   C248      1.0  0.24121999999999996  0.39083  0.52317  1.0000
  C   C249      1.0  0.26572  0.35706  0.51884  1.0000
  C   C250      1.0  0.36992  0.34185  0.53611  1.0000
  C   C251      1.0  0.45094999999999996  0.36041  0.5565  1.0000
  C   C252      1.0  0.00439  0.45906  0.7153099999999999  1.0000
  C   C253      1.0  0.9233500000000001  0.43831000000000003  0.7342699999999999  1.0000
  C   C254      1.0  0.97402  0.42303999999999997  0.76164  1.0000
  C   C255      1.0  0.10811999999999998  0.42763999999999996  0.7713499999999999  1.0000
  C   C256      1.0  0.18946  0.44836999999999994  0.75242  1.0000
  C   C257      1.0  0.13873  0.46377  0.7249899999999999  1.0000
  C   C258      1.0  0.9848999999999999  0.55292  0.63645  1.0000
  C   C259      1.0  0.89455  0.57407  0.62052  1.0000
  C   C260      1.0  0.9336600000000002  0.60537  0.6106499999999999  1.0000
  C   C261      1.0  0.06517  0.61688  0.6159899999999999  1.0000
  C   C262      1.0  0.15578  0.59579  0.6318799999999999  1.0000
  C   C263      1.0  0.11646000000000001  0.56448  0.64193  1.0000
  C   C264      1.0  0.10607  0.65004  0.60506  1.0000
  C   C265      1.0  0.01644  0.67688  0.60662  1.0000
  C   C266      1.0  0.05639  0.7082  0.59676  1.0000
  C   C267      1.0  0.18715  0.71358  0.5850799999999999  1.0000
  C   C268      1.0  0.27595  0.68679  0.5829  1.0000
  C   C269      1.0  0.23616  0.65556  0.59281  1.0000
  C   C270      1.0  0.16007  0.41109  0.8004899999999999  1.0000
  C   C271      1.0  0.29447  0.4002  0.80222  1.0000
  C   C272      1.0  0.34408  0.38548  0.8300399999999999  1.0000
  C   C273      1.0  0.12442  0.39015  0.8548299999999999  1.0000
  C   C274      1.0  0.07586  0.40552  0.82725  1.0000
  C   C275      1.0  0.19153  0.33775  0.49417  1.0000
  C   C276      1.0  0.40393  0.20747  0.9908999999999998  1.0000
  C   C277      1.0  0.50458  0.18813  0.00447  1.0000
  C   C278      1.0  0.62591  0.20298  0.01323  1.0000
  C   C279      1.0  0.642  0.23678  0.00858  1.0000
  C   C280      1.0  0.53558  0.2546  0.9954  1.0000
  C   C281      1.0  0.25979  0.38051  0.8566699999999999  1.0000
  C   C282      1.0  0.35137  0.83704  0.65101  1.0000
  C   C283      1.0  0.51625  0.88341  0.91077  1.0000
  C   C284      1.0  0.5021  0.9174900000000001  0.9058899999999998  1.0000
  C   C285      1.0  0.42315  0.86534  0.93205  1.0000
  C   C286      1.0  0.42381  0.81937  0.62452  1.0000
  C   C287      1.0  0.62304  0.86722  0.8952299999999999  1.0000
  C   C288      1.0  0.31002  0.36396  0.88603  1.0000
  C   C289      1.0  0.23428  0.74727  0.57594  1.0000
  C   C290      1.0  0.25092  0.83023  0.9738599999999998  1.0000
  C   C291      1.0  0.37765  0.8795499999999999  0.9609699999999999  1.0000
  C   C292      1.0  0.2942  0.86211  0.98179  1.0000
  C   C293      1.0  0.37948  0.83334  0.9242899999999997  1.0000
  C   C294      1.0  0.29332  0.81618  0.9447499999999998  1.0000
  C   C295      1.0  0.45017  0.29353  0.8518299999999999  1.0000
  C   C296      1.0  0.25633  0.3045  0.8225099999999999  1.0000
  C   C297      1.0  0.16252  0.8109500000000001  0.99627  1.0000
  C   C298      1.0  0.53056  0.29823  0.8247999999999999  1.0000
  C   C299      1.0  0.33006  0.30923  0.79442  1.0000
  C   C300      1.0  0.46975  0.30611  0.79556  1.0000
  C   C301      1.0  0.20312  0.43707  0.14873  1.0000
  C   C302      1.0  0.1391  0.42246  0.17519  1.0000
  C   C303      1.0  0.04227  0.43959000000000004  0.19318999999999997  1.0000
  C   C304      1.0  0.00949  0.472  0.18458  1.0000
  C   C305      1.0  0.07257  0.48741000000000007  0.15829  1.0000
  C   C306      1.0  0.16985  0.4696699999999999  0.14099  1.0000
  C   C307      1.0  0.03455  0.52099  0.14795  1.0000
  C   C308      1.0  0.05203  0.5312  0.11582999999999999  1.0000
  C   C309      1.0  0.01929  0.56295  0.10598  1.0000
  C   C310      1.0  0.96567  0.58612  0.12766  1.0000
  C   C311      1.0  0.94585  0.57573  0.15969  1.0000
  C   C312      1.0  0.9798999999999999  0.54407  0.16958999999999994  1.0000
  C   C313      1.0  0.93163  0.61995  0.11738  1.0000
  C   C314      1.0  0.8981299999999999  0.62727  0.08517  1.0000
  C   C315      1.0  0.8642799999999999  0.65917  0.07579  1.0000
  C   C316      1.0  0.8623899999999999  0.68483  0.09837  1.0000
  C   C317      1.0  0.8975  0.6779  0.13036  1.0000
  C   C318      1.0  0.9318  0.64611  0.13964  1.0000
  C   C319      1.0  0.97446  0.4229399999999999  0.22029999999999997  1.0000
  C   C320      1.0  0.94114  0.4394799999999999  0.24897  1.0000
  C   C321      1.0  0.88001  0.42301  0.27454  1.0000
  C   C322      1.0  0.84773  0.38933  0.2723999999999999  1.0000
  C   C323      1.0  0.87961  0.37297  0.2435  1.0000
  C   C324      1.0  0.94178  0.3893  0.21812999999999996  1.0000
  C   C325      1.0  0.77979  0.37163  0.29887  1.0000
  C   C326      1.0  0.69324  0.345  0.29211999999999994  1.0000
  C   C327      1.0  0.62822  0.32814  0.31674  1.0000
  C   C328      1.0  0.73561  0.36321  0.35603  1.0000
  C   C329      1.0  0.79829  0.38058  0.33132  1.0000
  C   C330      1.0  0.40877  0.43474  0.11366999999999998  1.0000
  C   C331      1.0  0.30124  0.41864  0.12902  1.0000
  C   C332      1.0  0.28739  0.38453  0.1242  1.0000
  C   C333      1.0  0.8234500000000001  0.71919  0.08915999999999999  1.0000
  C   C334      1.0  0.2028  0.97124  0.36063  1.0000
  C   C335      1.0  0.15604  0.00232  0.3704799999999999  1.0000
  C   C336      1.0  0.05893000000000001  0.01984  0.35282  1.0000
  C   C337      1.0  0.00578  0.00552  0.32479  1.0000
  C   C338      1.0  0.05049  0.9745799999999999  0.31412999999999996  1.0000
  C   C339      1.0  0.14958  0.95817  0.33203  1.0000
  C   C340      1.0  0.29928  0.95198  0.3803599999999999  1.0000
  C   C341      1.0  0.36099  0.96534  0.40793  1.0000
  C   C342      1.0  0.44912  0.9469600000000001  0.42677  1.0000
  C   C343      1.0  0.47995999999999994  0.91409  0.41914  1.0000
  C   C344      1.0  0.41815  0.9005700000000001  0.39174  1.0000
  C   C345      1.0  0.33041  0.9189900000000001  0.3729199999999999  1.0000
  C   C346      1.0  0.57082  0.8944000000000001  0.4395  1.0000
  C   C347      1.0  0.67884  0.9091599999999999  0.45602999999999994  1.0000
  C   C348      1.0  0.75878  0.8908299999999999  0.4768299999999999  1.0000
  C   C349      1.0  0.73428  0.8570599999999999  0.4811599999999999  1.0000
  C   C350      1.0  0.63008  0.84185  0.4638899999999999  1.0000
  C   C351      1.0  0.54905  0.8604  0.4435  1.0000
  C   C352      1.0  0.99561  0.9590599999999999  0.28468999999999994  1.0000
  C   C353      1.0  0.07666  0.9383099999999999  0.26573  1.0000
  C   C354      1.0  0.025979999999999996  0.92304  0.23835999999999996  1.0000
  C   C355      1.0  0.8918799999999999  0.92764  0.22864999999999996  1.0000
  C   C356      1.0  0.81054  0.94837  0.24757999999999997  1.0000
  C   C357      1.0  0.8612699999999999  0.9637700000000001  0.2750099999999999  1.0000
  C   C358      1.0  0.0151  0.052919999999999995  0.36354999999999993  1.0000
  C   C359      1.0  0.10545  0.07407  0.37948  1.0000
  C   C360      1.0  0.06634  0.10538  0.38935  1.0000
  C   C361      1.0  0.93484  0.11688  0.38401  1.0000
  C   C362      1.0  0.8442199999999999  0.09579  0.3681199999999999  1.0000
  C   C363      1.0  0.88354  0.06448  0.35807  1.0000
  C   C364      1.0  0.8939299999999999  0.15004  0.39494  1.0000
  C   C365      1.0  0.9835599999999999  0.17688  0.39337  1.0000
  C   C366      1.0  0.94361  0.2082  0.40323  1.0000
  C   C367      1.0  0.81286  0.21358  0.41491999999999996  1.0000
  C   C368      1.0  0.72405  0.18679  0.41709999999999997  1.0000
  C   C369      1.0  0.76384  0.15556  0.40718999999999994  1.0000
  C   C370      1.0  0.8399299999999998  0.9110799999999999  0.19951  1.0000
  C   C371      1.0  0.70553  0.9001999999999999  0.19778  1.0000
  C   C372      1.0  0.6559199999999998  0.8854799999999999  0.16995999999999997  1.0000
  C   C373      1.0  0.8755799999999999  0.89015  0.14517  1.0000
  C   C374      1.0  0.9241399999999999  0.90551  0.17275  1.0000
  C   C375      1.0  0.8084700000000001  0.8377400000000002  0.5058299999999999  1.0000
  C   C376      1.0  0.59607  0.70747  0.0091  1.0000
  C   C377      1.0  0.49542  0.6881299999999999  0.9955299999999999  1.0000
  C   C378      1.0  0.37409  0.70298  0.98677  1.0000
  C   C379      1.0  0.358  0.73678  0.9914199999999999  1.0000
  C   C380      1.0  0.46442  0.75459  0.004599999999999999  1.0000
  C   C381      1.0  0.74021  0.8805099999999999  0.14332  1.0000
  C   C382      1.0  0.64863  0.33704  0.34899  1.0000
  C   C383      1.0  0.48375  0.38341  0.08922999999999999  1.0000
  C   C384      1.0  0.4979  0.41749  0.09411  1.0000
  C   C385      1.0  0.57685  0.36533999999999994  0.06795  1.0000
  C   C386      1.0  0.57619  0.31937  0.3754799999999999  1.0000
  C   C387      1.0  0.37697  0.36722  0.10476999999999997  1.0000
  C   C388      1.0  0.68998  0.8639600000000001  0.11397  1.0000
  C   C389      1.0  0.76572  0.24727  0.42406  1.0000
  C   C390      1.0  0.74909  0.33023  0.02614  1.0000
  C   C391      1.0  0.62236  0.37955  0.03903  1.0000
  C   C392      1.0  0.70581  0.36211  0.01821  1.0000
  C   C393      1.0  0.62053  0.33334  0.0757  1.0000
  C   C394      1.0  0.70668  0.31618  0.05525  1.0000
  C   C395      1.0  0.54983  0.7935200000000001  0.14815999999999996  1.0000
  C   C396      1.0  0.74367  0.8044999999999999  0.17749  1.0000
  C   C397      1.0  0.83748  0.31095  0.0037199999999999993  1.0000
  C   C398      1.0  0.46944  0.79823  0.1752  1.0000
  C   C399      1.0  0.66994  0.8092299999999999  0.20557999999999998  1.0000
  C   C400      1.0  0.53025  0.8061099999999999  0.20443999999999998  1.0000
  N   N1        1.0  0.0813  0.24025  0.48646  1.0000
  N   N2        1.0  0.18512  0.29668  0.35087  1.0000
  N   N3        1.0  0.9187  0.74025  0.51353  1.0000
  N   N4        1.0  0.81489  0.7966799999999999  0.64912  1.0000
  N   N5        1.0  0.41870000000000007  0.24025  0.9864599999999999  1.0000
  N   N6        1.0  0.31489  0.29668  0.85087  1.0000
  N   N7        1.0  0.5813  0.74025  0.013529999999999997  1.0000
  N   N8        1.0  0.68512  0.7966799999999999  0.14912  1.0000
  O   O1        1.0  0.29562  0.22481000000000004  0.44029  1.0000
  O   O2        1.0  0.31875  0.24003  0.38788  1.0000
  O   O3        1.0  0.87464  0.79382  0.061779999999999995  1.0000
  O   O4        1.0  0.34433  0.77174  0.07637  1.0000
  O   O5        1.0  0.29386  0.30677  0.9934199999999999  1.0000
  O   O6        1.0  0.38027  0.35487  0.9739599999999999  1.0000
  O   O7        1.0  0.09486  0.28886  0.42528  1.0000
  O   O8        1.0  0.98123  0.79997  0.13321  1.0000
  O   O9        1.0  0.06339  0.36475  0.39296999999999993  1.0000
  O   O10       1.0  0.11378  0.82509  0.09591  1.0000
  O   O11       1.0  0.27254  0.34829  0.4041899999999999  1.0000
  O   O12       1.0  0.14001  0.74963  0.06812  1.0000
  O   O13       1.0  0.39288  0.78489  0.48717999999999995  1.0000
  O   O14       1.0  0.34691  0.8233999999999999  0.52514  1.0000
  O   O15       1.0  0.70439  0.72481  0.55971  1.0000
  O   O16       1.0  0.68125  0.74003  0.6121199999999999  1.0000
  O   O17       1.0  0.12537  0.29382  0.9382199999999998  1.0000
  O   O18       1.0  0.65567  0.27174  0.9236299999999998  1.0000
  O   O19       1.0  0.70614  0.80677  0.006579999999999998  1.0000
  O   O20       1.0  0.61974  0.8548699999999999  0.02604  1.0000
  O   O21       1.0  0.90515  0.78886  0.5747199999999999  1.0000
  O   O22       1.0  0.01877  0.29997  0.8667899999999998  1.0000
  O   O23       1.0  0.9366099999999999  0.86475  0.60703  1.0000
  O   O24       1.0  0.88622  0.32509  0.9040899999999998  1.0000
  O   O25       1.0  0.72746  0.8482899999999999  0.5958099999999998  1.0000
  O   O26       1.0  0.85999  0.24962999999999996  0.9318799999999999  1.0000
  O   O27       1.0  0.60712  0.28489  0.5128199999999999  1.0000
  O   O28       1.0  0.65309  0.3234  0.47486  1.0000
  O   O29       1.0  0.20438  0.22481000000000004  0.9402899999999998  1.0000
  O   O30       1.0  0.18125  0.24003  0.88788  1.0000
  O   O31       1.0  0.62537  0.79382  0.56178  1.0000
  O   O32       1.0  0.15567  0.77174  0.57637  1.0000
  O   O33       1.0  0.20614  0.30677  0.49342  1.0000
  O   O34       1.0  0.11974  0.35487  0.47396  1.0000
  O   O35       1.0  0.40515000000000007  0.28886  0.9252799999999999  1.0000
  O   O36       1.0  0.51877  0.79997  0.63321  1.0000
  O   O37       1.0  0.43661  0.36475  0.8929699999999998  1.0000
  O   O38       1.0  0.38622  0.82509  0.5959099999999998  1.0000
  O   O39       1.0  0.22746  0.34829  0.9041899999999999  1.0000
  O   O40       1.0  0.35999  0.74963  0.56812  1.0000
  O   O41       1.0  0.10711999999999999  0.78489  0.98718  1.0000
  O   O42       1.0  0.15309  0.8233999999999999  0.02514  1.0000
  O   O43       1.0  0.7956199999999999  0.72481  0.05971  1.0000
  O   O44       1.0  0.81875  0.74003  0.11212  1.0000
  O   O45       1.0  0.37464  0.29382  0.43821999999999994  1.0000
  O   O46       1.0  0.84434  0.27174  0.4236299999999999  1.0000
  O   O47       1.0  0.79386  0.80677  0.50658  1.0000
  O   O48       1.0  0.8802699999999999  0.8548699999999999  0.5260399999999998  1.0000
  O   O49       1.0  0.59486  0.78886  0.07471999999999998  1.0000
  O   O50       1.0  0.48123  0.29997  0.36679  1.0000
  O   O51       1.0  0.56339  0.86475  0.10703  1.0000
  O   O52       1.0  0.61378  0.32509  0.40408999999999995  1.0000
  O   O53       1.0  0.77254  0.8482899999999999  0.09580999999999999  1.0000
  O   O54       1.0  0.64002  0.24962999999999996  0.43188  1.0000
  O   O55       1.0  0.8928799999999999  0.28489  0.012819999999999998  1.0000
  O   O56       1.0  0.8469099999999999  0.3234  0.97486  1.0000
