data_image0
_chemical_formula_structural       Zn16H192C312N8O48
_chemical_formula_sum              "Zn16 H192 C312 N8 O48"
_cell_length_a       24.90961
_cell_length_b       24.91043
_cell_length_c       24.91055
_cell_angle_alpha    59.93151
_cell_angle_beta     59.94438
_cell_angle_gamma    59.944219999999994

_symmetry_space_group_name_H-M    'P 1'
_symmetry_Int_Tables_number       1

loop_
  _symmetry_equiv_pos_as_xyz
  'x,y,z'

loop_
  _atom_site_type_symbol
  _atom_site_label
  _atom_site_symmetry_multiplicity
  _atom_site_fract_x
  _atom_site_fract_y
  _atom_site_fract_z
  _atom_site_occupancy
  Zn  Zn1       1.0  0.59728  0.59596  0.20955  1.0000
  Zn  Zn2       1.0  0.6451300000000001  0.06309000000000001  0.64654  1.0000
  Zn  Zn3       1.0  0.06315000000000011  0.64659  0.6450599999999997  1.0000
  Zn  Zn4       1.0  0.20959000000000008  0.5973  0.5959299999999998  1.0000
  Zn  Zn5       1.0  0.64525  0.64514  0.64523  1.0000
  Zn  Zn6       1.0  0.5959699999999999  0.20958  0.59727  1.0000
  Zn  Zn7       1.0  0.6465800000000002  0.64521  0.06295999999999999  1.0000
  Zn  Zn8       1.0  0.5967399999999999  0.5966800000000002  0.5968499999999999  1.0000
  Zn  Zn9       1.0  0.79041  0.40407  0.4027  1.0000
  Zn  Zn10      1.0  0.35474999999999995  0.35476999999999986  0.35486  1.0000
  Zn  Zn11      1.0  0.35344999999999993  0.9369600000000001  0.3548199999999999  1.0000
  Zn  Zn12      1.0  0.40326000000000006  0.4031600000000001  0.4033199999999999  1.0000
  Zn  Zn13      1.0  0.4027200000000001  0.79043  0.40405  1.0000
  Zn  Zn14      1.0  0.93685  0.35494  0.35341999999999996  1.0000
  Zn  Zn15      1.0  0.4040200000000002  0.40273000000000003  0.79043  1.0000
  Zn  Zn16      1.0  0.35485000000000005  0.3534299999999999  0.93696  1.0000
  H   H1        1.0  0.28636000000000017  0.50396  0.9619299999999998  1.0000
  H   H2        1.0  0.19401000000000004  0.24356  0.49612999999999996  1.0000
  H   H3        1.0  0.30760999999999994  0.9853  0.05515  1.0000
  H   H4        1.0  0.28664000000000006  0.96145  0.24793999999999997  1.0000
  H   H5        1.0  0.8622000000000002  0.54831  0.25983  1.0000
  H   H6        1.0  0.40529999999999994  0.92466  0.047559999999999984  1.0000
  H   H7        1.0  0.49273  0.05236000000000001  0.6374799999999999  1.0000
  H   H8        1.0  0.64088  0.09208  0.21706  1.0000
  H   H9        1.0  0.0921000000000001  0.21705000000000002  0.64087  1.0000
  H   H10       1.0  0.55743  0.42199  0.26352  1.0000
  H   H11       1.0  0.06592000000000002  0.24376  0.19426999999999994  1.0000
  H   H12       1.0  0.6375  0.49274  0.05235  1.0000
  H   H13       1.0  0.24407999999999996  0.06588000000000002  0.49620999999999993  1.0000
  H   H14       1.0  0.8616700000000003  0.25987000000000005  0.3302399999999999  1.0000
  H   H15       1.0  0.63733  0.052680000000000025  0.81735  1.0000
  H   H16       1.0  0.28646000000000005  0.24780999999999995  0.50399  1.0000
  H   H17       1.0  0.0525799999999999  0.49322000000000005  0.81675  1.0000
  H   H18       1.0  0.19428000000000012  0.0659  0.24375999999999998  1.0000
  H   H19       1.0  0.052650000000000044  0.8173599999999999  0.63734  1.0000
  H   H20       1.0  0.05239999999999999  0.6374700000000001  0.4926999999999999  1.0000
  H   H21       1.0  0.33024000000000014  0.86168  0.25984999999999997  1.0000
  H   H22       1.0  0.25985  0.33026  0.86167  1.0000
  H   H23       1.0  0.8173500000000002  0.63734  0.05264  1.0000
  H   H24       1.0  0.24790000000000012  0.2866800000000001  0.9614399999999997  1.0000
  H   H25       1.0  0.8173400000000002  0.49268  0.6372899999999999  1.0000
  H   H26       1.0  0.24376000000000006  0.19427  0.06592  1.0000
  H   H27       1.0  0.2435400000000001  0.4961499999999999  0.19401999999999994  1.0000
  H   H28       1.0  0.9246300000000001  0.04757000000000004  0.4053199999999999  1.0000
  H   H29       1.0  0.21739  0.04971999999999999  0.64085  1.0000
  H   H30       1.0  0.9614800000000002  0.24788  0.28666  1.0000
  H   H31       1.0  0.81678  0.05256000000000004  0.4932099999999999  1.0000
  H   H32       1.0  0.504  0.28648  0.24775999999999998  1.0000
  H   H33       1.0  0.05005000000000002  0.21737  0.09179  1.0000
  H   H34       1.0  0.06639000000000006  0.19389  0.4961499999999999  1.0000
  H   H35       1.0  0.2598200000000001  0.8622399999999999  0.5482999999999999  1.0000
  H   H36       1.0  0.5039500000000001  0.9618999999999999  0.28639  1.0000
  H   H37       1.0  0.5483100000000002  0.25982  0.86221  1.0000
  H   H38       1.0  0.05025000000000005  0.09191000000000005  0.6408999999999999  1.0000
  H   H39       1.0  0.49318000000000006  0.81678  0.05260999999999998  1.0000
  H   H40       1.0  0.75683  0.55728  0.2638  1.0000
  H   H41       1.0  0.6408300000000001  0.21739999999999998  0.04973999999999999  1.0000
  H   H42       1.0  0.6519600000000001  0.055190000000000045  0.9854399999999999  1.0000
  H   H43       1.0  0.26378999999999997  0.75686  0.55727  1.0000
  H   H44       1.0  0.9853100000000002  0.05509000000000001  0.30763999999999997  1.0000
  H   H45       1.0  0.21738000000000002  0.09179  0.05003999999999999  1.0000
  H   H46       1.0  0.49613000000000007  0.0664  0.19389  1.0000
  H   H47       1.0  0.4048399999999999  0.62237  0.92511  1.0000
  H   H48       1.0  0.54822  0.32963999999999993  0.25967  1.0000
  H   H49       1.0  0.49613  0.19400999999999993  0.24354  1.0000
  H   H50       1.0  0.09178000000000003  0.050050000000000004  0.21738999999999997  1.0000
  H   H51       1.0  0.047510000000000094  0.62241  0.40480999999999995  1.0000
  H   H52       1.0  0.9856099999999998  0.30737000000000003  0.65193  1.0000
  H   H53       1.0  0.42258999999999997  0.75632  0.26375  1.0000
  H   H54       1.0  0.24806999999999996  0.96149  0.50402  1.0000
  H   H55       1.0  0.40483  0.047499999999999994  0.62242  1.0000
  H   H56       1.0  0.3073899999999999  0.65195  0.98559  1.0000
  H   H57       1.0  0.04973000000000002  0.64084  0.21737999999999996  1.0000
  H   H58       1.0  0.26356  0.55741  0.42196  1.0000
  H   H59       1.0  0.26372000000000007  0.42262  0.7563  1.0000
  H   H60       1.0  0.24780000000000008  0.504  0.28647  1.0000
  H   H61       1.0  0.49269999999999997  0.6373200000000001  0.8173299999999998  1.0000
  H   H62       1.0  0.9614700000000002  0.50401  0.24811  1.0000
  H   H63       1.0  0.05514999999999993  0.9854500000000003  0.6519799999999998  1.0000
  H   H64       1.0  0.75703  0.42196  0.5573199999999999  1.0000
  H   H65       1.0  0.42197  0.55734  0.75703  1.0000
  H   H66       1.0  0.30764  0.05489  0.65202  1.0000
  H   H67       1.0  0.5572500000000001  0.26382  0.75682  1.0000
  H   H68       1.0  0.04758000000000013  0.4053  0.9246399999999998  1.0000
  H   H69       1.0  0.49623000000000006  0.24408  0.06584999999999999  1.0000
  H   H70       1.0  0.5573500000000001  0.7569700000000001  0.42200999999999994  1.0000
  H   H71       1.0  0.2596500000000001  0.54824  0.32962  1.0000
  H   H72       1.0  0.9251800000000001  0.62251  0.047599999999999996  1.0000
  H   H73       1.0  0.3296899999999999  0.5482400000000001  0.8624199999999999  1.0000
  H   H74       1.0  0.6223699999999999  0.92509  0.40486  1.0000
  H   H75       1.0  0.65194  0.98558  0.30741  1.0000
  H   H76       1.0  0.8624299999999998  0.3296900000000001  0.54824  1.0000
  H   H77       1.0  0.09192  0.64092  0.05023  1.0000
  H   H78       1.0  0.05512000000000004  0.30765000000000003  0.9852799999999998  1.0000
  H   H79       1.0  0.05492000000000006  0.652  0.30762999999999996  1.0000
  H   H80       1.0  0.5040100000000002  0.2481300000000001  0.9614399999999997  1.0000
  H   H81       1.0  0.6409100000000001  0.050240000000000014  0.09191999999999999  1.0000
  H   H82       1.0  0.04762000000000001  0.92519  0.6225  1.0000
  H   H83       1.0  0.32963000000000003  0.25967  0.54824  1.0000
  H   H84       1.0  0.62252  0.047599999999999996  0.92519  1.0000
  H   H85       1.0  0.9251200000000003  0.40485  0.6223699999999999  1.0000
  H   H86       1.0  0.42199000000000003  0.26355000000000006  0.5574199999999999  1.0000
  H   H87       1.0  0.19388000000000002  0.49614  0.06640999999999998  1.0000
  H   H88       1.0  0.7563299999999998  0.2637100000000001  0.42259  1.0000
  H   H89       1.0  0.54823  0.86239  0.32973  1.0000
  H   H90       1.0  0.65202  0.30766  0.05489  1.0000
  H   H91       1.0  0.6373100000000002  0.8173  0.4927399999999999  1.0000
  H   H92       1.0  0.06585999999999999  0.49621  0.24409  1.0000
  H   H93       1.0  0.9619200000000001  0.28637  0.50394  1.0000
  H   H94       1.0  0.62241  0.40483  0.04750999999999998  1.0000
  H   H95       1.0  0.21707  0.64087  0.09207999999999997  1.0000
  H   H96       1.0  0.9854599999999999  0.65199  0.05514  1.0000
  H   H97       1.0  0.9502600000000001  0.7826300000000003  0.35915999999999987  1.0000
  H   H98       1.0  0.74018  0.4517  0.13776  1.0000
  H   H99       1.0  0.7519200000000001  0.49598  0.038509999999999996  1.0000
  H   H100      1.0  0.24366999999999997  0.5774099999999999  0.73629  1.0000
  H   H101      1.0  0.07488000000000004  0.37762999999999997  0.59515  1.0000
  H   H102      1.0  0.7559200000000003  0.50379  0.93412  1.0000
  H   H103      1.0  0.3776200000000001  0.59514  0.07491  1.0000
  H   H104      1.0  0.49605000000000016  0.71361  0.0381  1.0000
  H   H105      1.0  0.5951700000000002  0.37759000000000004  0.9525  1.0000
  H   H106      1.0  0.8059900000000004  0.50387  0.75644  1.0000
  H   H107      1.0  0.35912  0.7829500000000001  0.9079199999999998  1.0000
  H   H108      1.0  0.94975  0.3591  0.90809  1.0000
  H   H109      1.0  0.13833  0.66976  0.74012  1.0000
  H   H110      1.0  0.5780300000000004  0.24296999999999994  0.44265999999999994  1.0000
  H   H111      1.0  0.5947  0.9524500000000001  0.07535  1.0000
  H   H112      1.0  0.6923900000000001  0.94486  0.014699999999999998  1.0000
  H   H113      1.0  0.45169  0.13779  0.74018  1.0000
  H   H114      1.0  0.7826200000000004  0.3591500000000001  0.9502799999999999  1.0000
  H   H115      1.0  0.7521  0.03855000000000006  0.7133199999999997  1.0000
  H   H116      1.0  0.94742  0.18324000000000004  0.5067799999999999  1.0000
  H   H117      1.0  0.9080799999999999  0.9497700000000002  0.35907999999999995  1.0000
  H   H118      1.0  0.9448900000000002  0.014709999999999964  0.69235  1.0000
  H   H119      1.0  0.5773999999999999  0.7362500000000001  0.24367999999999998  1.0000
  H   H120      1.0  0.7401500000000002  0.13832  0.66974  1.0000
  H   H121      1.0  0.45177000000000006  0.67027  0.13761  1.0000
  H   H122      1.0  0.95242  0.07536  0.5947  1.0000
  H   H123      1.0  0.73621  0.44273000000000007  0.24314  1.0000
  H   H124      1.0  0.9475900000000005  0.5073  0.36252999999999996  1.0000
  H   H125      1.0  0.9336100000000002  0.50385  0.8061099999999999  1.0000
  H   H126      1.0  0.03853000000000017  0.7518899999999998  0.49599  1.0000
  H   H127      1.0  0.69261  0.014399999999999996  0.34805  1.0000
  H   H128      1.0  0.73628  0.24369999999999997  0.57738  1.0000
  H   H129      1.0  0.7564599999999999  0.8059900000000001  0.50385  1.0000
  H   H130      1.0  0.24317000000000003  0.73621  0.44271999999999995  1.0000
  H   H131      1.0  0.9524900000000004  0.5951900000000001  0.3775899999999999  1.0000
  H   H132      1.0  0.90822  0.78261  0.9499399999999998  1.0000
  H   H133      1.0  0.4426500000000002  0.57799  0.24303  1.0000
  H   H134      1.0  0.5072700000000001  0.3625199999999999  0.94763  1.0000
  H   H135      1.0  0.03808000000000005  0.49606  0.7136299999999998  1.0000
  H   H136      1.0  0.07537  0.59468  0.95242  1.0000
  H   H137      1.0  0.7562400000000001  0.93408  0.80573  1.0000
  H   H138      1.0  0.78262  0.9499599999999999  0.90821  1.0000
  H   H139      1.0  0.014390000000000003  0.3480700000000001  0.6926299999999999  1.0000
  H   H140      1.0  0.13756999999999997  0.45176  0.6703099999999999  1.0000
  H   H141      1.0  0.50387  0.7564600000000001  0.80598  1.0000
  H   H142      1.0  0.59516  0.07488999999999998  0.37763  1.0000
  H   H143      1.0  0.5038699999999999  0.80612  0.9336  1.0000
  H   H144      1.0  0.7403499999999998  0.6703800000000002  0.45176  1.0000
  H   H145      1.0  0.35917  0.9502700000000002  0.7825899999999998  1.0000
  H   H146      1.0  0.24297000000000002  0.44268000000000013  0.5780399999999999  1.0000
  H   H147      1.0  0.73643  0.57804  0.4425899999999999  1.0000
  H   H148      1.0  0.35909  0.90809  0.94976  1.0000
  H   H149      1.0  0.67031  0.13757  0.45176  1.0000
  H   H150      1.0  0.014540000000000006  0.94486  0.34800999999999993  1.0000
  H   H151      1.0  0.7136400000000003  0.03806000000000002  0.49603999999999987  1.0000
  H   H152      1.0  0.94995  0.90822  0.78262  1.0000
  H   H153      1.0  0.9340799999999999  0.80573  0.75624  1.0000
  H   H154      1.0  0.07481999999999987  0.9524000000000002  0.37748999999999994  1.0000
  H   H155      1.0  0.3775900000000004  0.9524900000000001  0.5951599999999999  1.0000
  H   H156      1.0  0.4959900000000001  0.038550000000000105  0.7518699999999998  1.0000
  H   H157      1.0  0.8061200000000002  0.93359  0.5038599999999999  1.0000
  H   H158      1.0  0.3480400000000002  0.014560000000000003  0.9447999999999999  1.0000
  H   H159      1.0  0.9448500000000002  0.34802  0.01455  1.0000
  H   H160      1.0  0.95238  0.3775  0.07481  1.0000
  H   H161      1.0  0.36269  0.50726  0.18271  1.0000
  H   H162      1.0  0.9079000000000002  0.35913  0.78295  1.0000
  H   H163      1.0  0.7135400000000002  0.49601000000000006  0.7521899999999999  1.0000
  H   H164      1.0  0.7521999999999998  0.71353  0.4959999999999999  1.0000
  H   H165      1.0  0.3480599999999999  0.69259  0.01442  1.0000
  H   H166      1.0  0.50377  0.93416  0.75592  1.0000
  H   H167      1.0  0.13780000000000023  0.74017  0.4516899999999999  1.0000
  H   H168      1.0  0.18265000000000017  0.9473599999999999  0.36266  1.0000
  H   H169      1.0  0.36266999999999994  0.18265000000000003  0.94732  1.0000
  H   H170      1.0  0.5780100000000001  0.44258  0.73645  1.0000
  H   H171      1.0  0.44257  0.73648  0.57801  1.0000
  H   H172      1.0  0.9473500000000002  0.36266  0.18265  1.0000
  H   H173      1.0  0.36250000000000004  0.94766  0.50726  1.0000
  H   H174      1.0  0.66975  0.74015  0.13832  1.0000
  H   H175      1.0  0.67037  0.45176  0.74033  1.0000
  H   H176      1.0  0.9450700000000001  0.6923700000000002  0.34799999999999986  1.0000
  H   H177      1.0  0.03850999999999995  0.71334  0.75212  1.0000
  H   H178      1.0  0.18266  0.3627099999999999  0.50732  1.0000
  H   H179      1.0  0.37749  0.07481000000000007  0.9523999999999999  1.0000
  H   H180      1.0  0.71335  0.7520600000000001  0.03855  1.0000
  H   H181      1.0  0.8057200000000001  0.75625  0.9341  1.0000
  H   H182      1.0  0.4427500000000002  0.24318000000000006  0.73618  1.0000
  H   H183      1.0  0.4959999999999999  0.75224  0.71352  1.0000
  H   H184      1.0  0.45177999999999985  0.74033  0.67036  1.0000
  H   H185      1.0  0.014690000000000116  0.6923699999999998  0.94491  1.0000
  H   H186      1.0  0.34798  0.94512  0.69234  1.0000
  H   H187      1.0  0.7829300000000003  0.9079200000000001  0.35912999999999995  1.0000
  H   H188      1.0  0.50681  0.94739  0.18322  1.0000
  H   H189      1.0  0.18321999999999997  0.5067899999999999  0.94743  1.0000
  H   H190      1.0  0.6923599999999999  0.34798000000000007  0.9450999999999999  1.0000
  H   H191      1.0  0.9341299999999999  0.7559100000000001  0.50379  1.0000
  H   H192      1.0  0.5073  0.18267000000000003  0.36267999999999995  1.0000
  C   C1        1.0  0.09518999999999991  0.6098100000000001  0.40684  1.0000
  C   C2        1.0  0.003570000000000023  0.09581999999999999  0.28462  1.0000
  C   C3        1.0  0.5298899999999999  0.21955  0.20225  1.0000
  C   C4        1.0  0.40721000000000007  0.88761  0.09533  1.0000
  C   C5        1.0  0.2716400000000001  0.9887699999999999  0.20451  1.0000
  C   C6        1.0  0.61075  0.09308999999999999  0.0633  1.0000
  C   C7        1.0  0.19974000000000006  0.14641999999999997  0.56771  1.0000
  C   C8        1.0  0.59862  0.46296  0.15826999999999997  1.0000
  C   C9        1.0  0.15337000000000003  0.5849100000000002  0.3596099999999999  1.0000
  C   C10       1.0  0.21419000000000005  0.3663399999999999  0.85276  1.0000
  C   C11       1.0  0.2846  0.003580000000000006  0.09584999999999999  1.0000
  C   C12       1.0  0.5784700000000002  0.30521  0.15108  1.0000
  C   C13       1.0  0.7937800000000002  0.4171100000000001  0.57238  1.0000
  C   C14       1.0  0.09309000000000005  0.06330000000000004  0.6107399999999998  1.0000
  C   C15       1.0  0.5677100000000003  0.08631  0.19942  1.0000
  C   C16       1.0  0.45704  0.09746  0.61761  1.0000
  C   C17       1.0  0.21408000000000002  0.5666599999999999  0.3658  1.0000
  C   C18       1.0  0.2714300000000001  0.20439000000000002  0.5350799999999999  1.0000
  C   C19       1.0  0.19966  0.08603000000000001  0.14667  1.0000
  C   C20       1.0  0.7801000000000005  0.5984  0.15848999999999996  1.0000
  C   C21       1.0  0.09749000000000002  0.6176  0.45701  1.0000
  C   C22       1.0  0.5848799999999998  0.9020700000000001  0.35957999999999996  1.0000
  C   C23       1.0  0.09583  0.28462  0.00357  1.0000
  C   C24       1.0  0.88811  0.60983  0.09533  1.0000
  C   C25       1.0  0.9651199999999999  0.57843  0.15133  1.0000
  C   C26       1.0  0.7793900000000002  0.15840000000000004  0.46356  1.0000
  C   C27       1.0  0.09532999999999996  0.40724  0.88758  1.0000
  C   C28       1.0  0.5723400000000003  0.21686000000000005  0.79369  1.0000
  C   C29       1.0  0.6160000000000002  0.003930000000000012  0.28433  1.0000
  C   C30       1.0  0.09533999999999992  0.88812  0.60983  1.0000
  C   C31       1.0  0.6069700000000002  0.51608  0.16078  1.0000
  C   C32       1.0  0.20466999999999996  0.9889  0.5350799999999999  1.0000
  C   C33       1.0  0.30509000000000003  0.57844  0.96531  1.0000
  C   C34       1.0  0.16064000000000014  0.71636  0.6065699999999999  1.0000
  C   C35       1.0  0.3054400000000001  0.96484  0.15128  1.0000
  C   C36       1.0  0.53509  0.27142999999999995  0.20436  1.0000
  C   C37       1.0  0.41763  0.7931200000000003  0.21675999999999998  1.0000
  C   C38       1.0  0.04805000000000001  0.5299  0.20266999999999996  1.0000
  C   C39       1.0  0.06330000000000008  0.61076  0.09307999999999997  1.0000
  C   C40       1.0  0.8875700000000003  0.09533000000000001  0.40723  1.0000
  C   C41       1.0  0.6068599999999998  0.7160300000000002  0.51641  1.0000
  C   C42       1.0  0.8277799999999998  0.4570100000000001  0.61747  1.0000
  C   C43       1.0  0.8881100000000001  0.40679000000000004  0.6097399999999998  1.0000
  C   C44       1.0  0.4630500000000001  0.5985100000000001  0.7799999999999999  1.0000
  C   C45       1.0  0.048459999999999996  0.21933999999999995  0.52992  1.0000
  C   C46       1.0  0.60661  0.1606500000000001  0.7163299999999998  1.0000
  C   C47       1.0  0.96484  0.15124999999999997  0.30545  1.0000
  C   C48       1.0  0.59852  0.77995  0.46309  1.0000
  C   C49       1.0  0.5849200000000001  0.35962  0.15337  1.0000
  C   C50       1.0  0.8532400000000002  0.56668  0.21425999999999998  1.0000
  C   C51       1.0  0.60982  0.40687  0.09518  1.0000
  C   C52       1.0  0.3658100000000001  0.21407999999999996  0.56666  1.0000
  C   C53       1.0  0.56665  0.85338  0.3658699999999999  1.0000
  C   C54       1.0  0.3663300000000001  0.85277  0.21419999999999997  1.0000
  C   C55       1.0  0.41711999999999994  0.5724  0.79378  1.0000
  C   C56       1.0  0.5676899999999999  0.14687  0.08594999999999997  1.0000
  C   C57       1.0  0.06322000000000003  0.09298000000000001  0.23315999999999995  1.0000
  C   C58       1.0  0.4629400000000001  0.15828999999999996  0.59862  1.0000
  C   C59       1.0  0.06355000000000002  0.23283000000000006  0.61073  1.0000
  C   C60       1.0  0.15354000000000012  0.9019899999999998  0.5849199999999999  1.0000
  C   C61       1.0  0.09298  0.23314000000000001  0.06321999999999998  1.0000
  C   C62       1.0  0.56668  0.21425999999999998  0.85323  1.0000
  C   C63       1.0  0.08604000000000003  0.14666000000000004  0.19966999999999996  1.0000
  C   C64       1.0  0.20225000000000015  0.5299099999999999  0.21954  1.0000
  C   C65       1.0  0.4635300000000002  0.77939  0.15843  1.0000
  C   C66       1.0  0.5784100000000001  0.15135000000000007  0.9651199999999999  1.0000
  C   C67       1.0  0.53507  0.9892  0.27132  1.0000
  C   C68       1.0  0.15831000000000006  0.59862  0.4629099999999999  1.0000
  C   C69       1.0  0.09558  0.61606  0.28450999999999993  1.0000
  C   C70       1.0  0.2845300000000001  0.09556000000000002  0.6160699999999999  1.0000
  C   C71       1.0  0.2045  0.27165  0.98877  1.0000
  C   C72       1.0  0.15132000000000007  0.9651300000000002  0.5784299999999999  1.0000
  C   C73       1.0  0.6174900000000001  0.82773  0.4570599999999999  1.0000
  C   C74       1.0  0.14641999999999997  0.56772  0.19974  1.0000
  C   C75       1.0  0.9887899999999998  0.20448  0.27164  1.0000
  C   C76       1.0  0.71548  0.16052  0.51701  1.0000
  C   C77       1.0  0.20439000000000004  0.53508  0.27143  1.0000
  C   C78       1.0  0.57247  0.4170400000000001  0.2166  1.0000
  C   C79       1.0  0.7163200000000002  0.60662  0.16063  1.0000
  C   C80       1.0  0.21683  0.7937199999999999  0.57234  1.0000
  C   C81       1.0  0.90157  0.15353  0.35996  1.0000
  C   C82       1.0  0.82786  0.6175  0.09768  1.0000
  C   C83       1.0  0.7931300000000001  0.21673  0.41764  1.0000
  C   C84       1.0  0.9888800000000001  0.53507  0.20468999999999996  1.0000
  C   C85       1.0  0.20240000000000008  0.21966000000000002  0.04807999999999999  1.0000
  C   C86       1.0  0.23316000000000003  0.09266000000000006  0.6107599999999999  1.0000
  C   C87       1.0  0.15352999999999997  0.35997000000000007  0.9015599999999999  1.0000
  C   C88       1.0  0.5169900000000001  0.71548  0.16051999999999997  1.0000
  C   C89       1.0  0.1584000000000001  0.46357  0.77936  1.0000
  C   C90       1.0  0.5163700000000001  0.6068100000000001  0.7161  1.0000
  C   C91       1.0  0.7937  0.57235  0.21683999999999998  1.0000
  C   C92       1.0  0.45744  0.82727  0.09768  1.0000
  C   C93       1.0  0.15849000000000002  0.78012  0.59839  1.0000
  C   C94       1.0  0.08595000000000004  0.56769  0.14685999999999996  1.0000
  C   C95       1.0  0.003960000000000038  0.2843  0.61599  1.0000
  C   C96       1.0  0.28432000000000013  0.61601  0.00394  1.0000
  C   C97       1.0  0.14667  0.19967000000000001  0.08603999999999998  1.0000
  C   C98       1.0  0.56771  0.19974999999999996  0.14642  1.0000
  C   C99       1.0  0.5666599999999999  0.36581  0.21408  1.0000
  C   C100      1.0  0.0976599999999999  0.45748000000000005  0.82723  1.0000
  C   C101      1.0  0.6107399999999998  0.06354  0.23285  1.0000
  C   C102      1.0  0.5299099999999999  0.048460000000000024  0.21933999999999998  1.0000
  C   C103      1.0  0.5984  0.15852000000000002  0.7800899999999998  1.0000
  C   C104      1.0  0.3658300000000001  0.56665  0.85342  1.0000
  C   C105      1.0  0.21966000000000002  0.048060000000000005  0.2024  1.0000
  C   C106      1.0  0.1608  0.60701  0.51601  1.0000
  C   C107      1.0  0.35996000000000006  0.9015799999999999  0.15352  1.0000
  C   C108      1.0  0.61601  0.09588000000000002  0.00378  1.0000
  C   C109      1.0  0.90198  0.58493  0.15353999999999998  1.0000
  C   C110      1.0  0.9021100000000002  0.35956000000000005  0.58487  1.0000
  C   C111      1.0  0.9892100000000005  0.27131  0.53507  1.0000
  C   C112      1.0  0.27129999999999993  0.53509  0.98923  1.0000
  C   C113      1.0  0.61075  0.23317  0.09266999999999997  1.0000
  C   C114      1.0  0.14685999999999996  0.08596  0.56768  1.0000
  C   C115      1.0  0.57843  0.9652900000000001  0.3051  1.0000
  C   C116      1.0  0.21933  0.52991  0.04847999999999999  1.0000
  C   C117      1.0  0.51606  0.16079  0.60699  1.0000
  C   C118      1.0  0.5299100000000001  0.20267  0.04802999999999999  1.0000
  C   C119      1.0  0.09585999999999999  0.003780000000000009  0.61602  1.0000
  C   C120      1.0  0.45703  0.6175  0.82777  1.0000
  C   C121      1.0  0.09768000000000009  0.8278699999999999  0.61749  1.0000
  C   C122      1.0  0.7800100000000001  0.46303000000000005  0.59849  1.0000
  C   C123      1.0  0.23285000000000003  0.61074  0.06354  1.0000
  C   C124      1.0  0.15126000000000012  0.30545  0.9648299999999999  1.0000
  C   C125      1.0  0.6097500000000002  0.88807  0.40682  1.0000
  C   C126      1.0  0.16050000000000006  0.51703  0.7154499999999999  1.0000
  C   C127      1.0  0.21674000000000013  0.4176599999999999  0.7930999999999999  1.0000
  C   C128      1.0  0.40678999999999993  0.60976  0.8880899999999999  1.0000
  C   C129      1.0  0.21424999999999994  0.8532600000000001  0.56668  1.0000
  C   C130      1.0  0.71608  0.5163  0.6068699999999999  1.0000
  C   C131      1.0  0.3052  0.15109  0.57846  1.0000
  C   C132      1.0  0.61762  0.45705  0.09744999999999998  1.0000
  C   C133      1.0  0.21662999999999993  0.57245  0.41700999999999994  1.0000
  C   C134      1.0  0.8534200000000002  0.36584  0.56664  1.0000
  C   C135      1.0  0.9653200000000005  0.3050899999999999  0.57842  1.0000
  C   C136      1.0  0.41702999999999985  0.21662000000000006  0.57246  1.0000
  C   C137      1.0  0.82725  0.09764999999999999  0.45748  1.0000
  C   C138      1.0  0.09266999999999999  0.61076  0.23314999999999997  1.0000
  C   C139      1.0  0.6175000000000003  0.09770000000000008  0.8278699999999999  1.0000
  C   C140      1.0  0.35961999999999994  0.15337  0.58491  1.0000
  C   C141      1.0  0.6098300000000001  0.09533999999999997  0.88812  1.0000
  C   C142      1.0  0.0037799999999999843  0.61603  0.09585999999999997  1.0000
  C   C143      1.0  0.61607  0.28454  0.09555999999999998  1.0000
  C   C144      1.0  0.08632000000000004  0.19940999999999998  0.56771  1.0000
  C   C145      1.0  0.35954999999999987  0.5848800000000001  0.9021  1.0000
  C   C146      1.0  0.23313000000000003  0.06323000000000001  0.09297999999999997  1.0000
  C   C147      1.0  0.04809000000000001  0.20239  0.21965  1.0000
  C   C148      1.0  0.5350700000000002  0.20471000000000011  0.9888599999999997  1.0000
  C   C149      1.0  0.57241  0.7937199999999999  0.41716  1.0000
  C   C150      1.0  0.1511  0.57846  0.3052  1.0000
  C   C151      1.0  0.85277  0.21419999999999997  0.36632999999999993  1.0000
  C   C152      1.0  0.2195400000000001  0.20226  0.5298899999999999  1.0000
  C   C153      1.0  0.20266  0.04806000000000005  0.5298999999999999  1.0000
  C   C154      1.0  0.5849200000000001  0.15355  0.90198  1.0000
  C   C155      1.0  0.4068600000000001  0.09518000000000003  0.60981  1.0000
  C   C156      1.0  0.19941000000000003  0.56771  0.08632  1.0000
  C   C157      1.0  0.90234  0.17277  0.54252  1.0000
  C   C158      1.0  0.85314  0.4323200000000001  0.9140399999999999  1.0000
  C   C159      1.0  0.43332  0.14676  0.78574  1.0000
  C   C160      1.0  0.9515400000000002  0.47008  0.78066  1.0000
  C   C161      1.0  0.3839900000000002  0.9962200000000001  0.9041099999999997  1.0000
  C   C162      1.0  0.20621999999999996  0.42762  0.58289  1.0000
  C   C163      1.0  0.38393000000000005  0.90445  0.71546  1.0000
  C   C164      1.0  0.39303  0.83922  0.48392  1.0000
  C   C165      1.0  0.9367000000000001  0.9069300000000001  0.38924999999999993  1.0000
  C   C166      1.0  0.7831600000000001  0.42766000000000004  0.20627999999999996  1.0000
  C   C167      1.0  0.5364600000000003  0.84157  0.22062  1.0000
  C   C168      1.0  0.43229000000000006  0.80058  0.91369  1.0000
  C   C169      1.0  0.47009000000000023  0.7806599999999999  0.9515399999999999  1.0000
  C   C170      1.0  0.7287000000000001  0.010770000000000031  0.4649099999999999  1.0000
  C   C171      1.0  0.6404500000000001  0.09789999999999997  0.41512  1.0000
  C   C172      1.0  0.7668400000000001  0.38924  0.90733  1.0000
  C   C173      1.0  0.8487400000000002  0.03516999999999998  0.69455  1.0000
  C   C174      1.0  0.9364499999999999  0.38927000000000017  0.7671599999999997  1.0000
  C   C175      1.0  0.010790000000000037  0.46493  0.72869  1.0000
  C   C176      1.0  0.9960400000000001  0.38401  0.7157  1.0000
  C   C177      1.0  0.5932100000000002  0.11190000000000004  0.39024999999999993  1.0000
  C   C178      1.0  0.64004  0.84648  0.09842  1.0000
  C   C179      1.0  0.28367  0.83937  0.39339  1.0000
  C   C180      1.0  0.8415100000000002  0.40161  0.21988999999999997  1.0000
  C   C181      1.0  0.5370600000000002  0.40138  0.84171  1.0000
  C   C182      1.0  0.63417  0.14658000000000002  0.4333499999999999  1.0000
  C   C183      1.0  0.71548  0.3839299999999999  0.90443  1.0000
  C   C184      1.0  0.5425500000000001  0.90233  0.17274  1.0000
  C   C185      1.0  0.3931400000000001  0.48359  0.28398  1.0000
  C   C186      1.0  0.42155999999999993  0.6949  0.03471  1.0000
  C   C187      1.0  0.9046700000000003  0.11242000000000002  0.59276  1.0000
  C   C188      1.0  0.6948  0.42154  0.84891  1.0000
  C   C189      1.0  0.48363000000000006  0.28390000000000004  0.3931899999999999  1.0000
  C   C190      1.0  0.40136999999999995  0.8417299999999999  0.53704  1.0000
  C   C191      1.0  0.7832600000000001  0.20689999999999995  0.58234  1.0000
  C   C192      1.0  0.9964300000000001  0.71538  0.9041699999999999  1.0000
  C   C193      1.0  0.7154000000000003  0.90415  0.9964099999999998  1.0000
  C   C194      1.0  0.034680000000000044  0.42157999999999995  0.69491  1.0000
  C   C195      1.0  0.9044200000000002  0.7154899999999998  0.3839399999999999  1.0000
  C   C196      1.0  0.63419  0.43333999999999995  0.7859099999999999  1.0000
  C   C197      1.0  0.9023100000000002  0.3825  0.17212999999999998  1.0000
  C   C198      1.0  0.43229000000000006  0.85359  0.8002499999999999  1.0000
  C   C199      1.0  0.8416899999999997  0.5370900000000002  0.40138999999999997  1.0000
  C   C200      1.0  0.11189000000000003  0.90467  0.39017  1.0000
  C   C201      1.0  0.9041599999999999  0.99644  0.71538  1.0000
  C   C202      1.0  0.7975999999999999  0.9519300000000002  0.78034  1.0000
  C   C203      1.0  0.1721300000000001  0.9023199999999999  0.38249999999999995  1.0000
  C   C204      1.0  0.4839399999999999  0.3930100000000001  0.8392099999999999  1.0000
  C   C205      1.0  0.4700999999999999  0.7977600000000002  0.78045  1.0000
  C   C206      1.0  0.46492999999999995  0.01113  0.79529  1.0000
  C   C207      1.0  0.8395000000000002  0.28455  0.48296999999999995  1.0000
  C   C208      1.0  0.8464499999999998  0.4150800000000001  0.09800999999999997  1.0000
  C   C209      1.0  0.43334000000000006  0.78592  0.6341899999999999  1.0000
  C   C210      1.0  0.7803400000000006  0.7976  0.9519399999999998  1.0000
  C   C211      1.0  0.84647  0.09844000000000001  0.64003  1.0000
  C   C212      1.0  0.91405  0.85314  0.43231  1.0000
  C   C213      1.0  0.7285699999999998  0.46492  0.79561  1.0000
  C   C214      1.0  0.5369500000000003  0.22000000000000003  0.40148999999999996  1.0000
  C   C215      1.0  0.09789  0.41513000000000005  0.64044  1.0000
  C   C216      1.0  0.6336600000000001  0.7857999999999999  0.14723999999999998  1.0000
  C   C217      1.0  0.79532  0.46492  0.0111  1.0000
  C   C218      1.0  0.03516000000000003  0.69455  0.84874  1.0000
  C   C219      1.0  0.09843000000000006  0.6400399999999999  0.8464699999999998  1.0000
  C   C220      1.0  0.21998999999999996  0.40150000000000013  0.5369699999999998  1.0000
  C   C221      1.0  0.9069199999999998  0.38926  0.9367  1.0000
  C   C222      1.0  0.46491999999999994  0.72868  0.0108  1.0000
  C   C223      1.0  0.40147000000000005  0.53691  0.22006  1.0000
  C   C224      1.0  0.6949100000000001  0.03469000000000002  0.42155999999999993  1.0000
  C   C225      1.0  0.8392000000000001  0.48399000000000003  0.39299  1.0000
  C   C226      1.0  0.7973399999999999  0.4701  0.95193  1.0000
  C   C227      1.0  0.42152000000000006  0.8489199999999999  0.69479  1.0000
  C   C228      1.0  0.8466300000000003  0.64039  0.41509  1.0000
  C   C229      1.0  0.38238000000000005  0.90255  0.54295  1.0000
  C   C230      1.0  0.3825  0.54294  0.17227  1.0000
  C   C231      1.0  0.90414  0.38398000000000004  0.9962199999999999  1.0000
  C   C232      1.0  0.11243000000000002  0.59277  0.90467  1.0000
  C   C233      1.0  0.8533300000000001  0.91397  0.80033  1.0000
  C   C234      1.0  0.7858100000000002  0.14724000000000012  0.6336599999999998  1.0000
  C   C235      1.0  0.0980199999999999  0.84646  0.41508  1.0000
  C   C236      1.0  0.4700900000000003  0.9519700000000001  0.79732  1.0000
  C   C237      1.0  0.28451999999999994  0.48299  0.83948  1.0000
  C   C238      1.0  0.011200000000000062  0.72836  0.79552  1.0000
  C   C239      1.0  0.42766000000000004  0.20630999999999997  0.78314  1.0000
  C   C240      1.0  0.76715  0.9364599999999997  0.38926  1.0000
  C   C241      1.0  0.7804600000000003  0.4701099999999999  0.79774  1.0000
  C   C242      1.0  0.9070200000000005  0.9367799999999998  0.76685  1.0000
  C   C243      1.0  0.20685999999999996  0.58236  0.78326  1.0000
  C   C244      1.0  0.20629999999999996  0.78316  0.42765  1.0000
  C   C245      1.0  0.95191  0.7803500000000001  0.79761  1.0000
  C   C246      1.0  0.38925000000000004  0.9073399999999998  0.76682  1.0000
  C   C247      1.0  0.90481  0.59316  0.39018999999999987  1.0000
  C   C248      1.0  0.91396  0.8003299999999999  0.8533299999999999  1.0000
  C   C249      1.0  0.3933900000000001  0.28367  0.83935  1.0000
  C   C250      1.0  0.4150800000000001  0.09802000000000004  0.84645  1.0000
  C   C251      1.0  0.17222000000000007  0.3825299999999999  0.5429899999999999  1.0000
  C   C252      1.0  0.7859200000000002  0.6342  0.43334  1.0000
  C   C253      1.0  0.5828800000000002  0.20622  0.4275999999999999  1.0000
  C   C254      1.0  0.14657999999999993  0.43337000000000003  0.6341599999999998  1.0000
  C   C255      1.0  0.38925000000000004  0.93671  0.90691  1.0000
  C   C256      1.0  0.14723  0.6336800000000001  0.7857999999999998  1.0000
  C   C257      1.0  0.11188999999999996  0.39026  0.59321  1.0000
  C   C258      1.0  0.8003399999999999  0.85334  0.9139599999999999  1.0000
  C   C259      1.0  0.3892600000000001  0.7671600000000001  0.93646  1.0000
  C   C260      1.0  0.54297  0.17223  0.38251  1.0000
  C   C261      1.0  0.3901700000000001  0.11188  0.9046599999999999  1.0000
  C   C262      1.0  0.8486700000000005  0.42157  0.03487  1.0000
  C   C263      1.0  0.41508  0.84663  0.6403799999999998  1.0000
  C   C264      1.0  0.3901800000000002  0.90483  0.59313  1.0000
  C   C265      1.0  0.90466  0.39017  0.11189  1.0000
  C   C266      1.0  0.9367800000000002  0.7668500000000001  0.9070199999999998  1.0000
  C   C267      1.0  0.85358  0.80026  0.43228  1.0000
  C   C268      1.0  0.40160999999999997  0.21991000000000002  0.84148  1.0000
  C   C269      1.0  0.48301000000000005  0.83949  0.28452  1.0000
  C   C270      1.0  0.41512000000000016  0.64042  0.09793  1.0000
  C   C271      1.0  0.69455  0.8487200000000001  0.03516  1.0000
  C   C272      1.0  0.8416000000000001  0.22064  0.53643  1.0000
  C   C273      1.0  0.42753  0.78341  0.58296  1.0000
  C   C274      1.0  0.011109999999999839  0.7953100000000001  0.46493  1.0000
  C   C275      1.0  0.7283499999999999  0.79549  0.01123  1.0000
  C   C276      1.0  0.9025100000000004  0.543  0.38239999999999996  1.0000
  C   C277      1.0  0.9136800000000004  0.43229000000000006  0.80059  1.0000
  C   C278      1.0  0.7668600000000002  0.90702  0.9367699999999999  1.0000
  C   C279      1.0  0.58236  0.78324  0.20688  1.0000
  C   C280      1.0  0.22060999999999992  0.5364400000000002  0.8416  1.0000
  C   C281      1.0  0.7955  0.011230000000000084  0.7283499999999998  1.0000
  C   C282      1.0  0.5931400000000001  0.39019000000000004  0.9048199999999998  1.0000
  C   C283      1.0  0.8005800000000001  0.91368  0.4322899999999999  1.0000
  C   C284      1.0  0.43230999999999986  0.9140600000000001  0.8531299999999999  1.0000
  C   C285      1.0  0.4215900000000002  0.034880000000000036  0.84865  1.0000
  C   C286      1.0  0.59278  0.90468  0.1124  1.0000
  C   C287      1.0  0.5429600000000001  0.38239000000000006  0.9025299999999998  1.0000
  C   C288      1.0  0.9519500000000001  0.79733  0.47009999999999996  1.0000
  C   C289      1.0  0.64038  0.41509  0.8466299999999999  1.0000
  C   C290      1.0  0.17275000000000026  0.54252  0.90235  1.0000
  C   C291      1.0  0.78575  0.43332  0.14674  1.0000
  C   C292      1.0  0.3902400000000001  0.59318  0.11192999999999999  1.0000
  C   C293      1.0  0.3840000000000001  0.7156799999999998  0.99607  1.0000
  C   C294      1.0  0.21990000000000015  0.8415099999999999  0.4016  1.0000
  C   C295      1.0  0.8489000000000001  0.6948  0.4215399999999999  1.0000
  C   C296      1.0  0.8002600000000005  0.43229000000000006  0.85358  1.0000
  C   C297      1.0  0.79775  0.7804599999999999  0.47009  1.0000
  C   C298      1.0  0.90733  0.76685  0.3892399999999999  1.0000
  C   C299      1.0  0.9962200000000002  0.90414  0.38397  1.0000
  C   C300      1.0  0.14675999999999995  0.78575  0.43332  1.0000
  C   C301      1.0  0.83936  0.39343000000000006  0.28365  1.0000
  C   C302      1.0  0.43335  0.63413  0.14663  1.0000
  C   C303      1.0  0.03487999999999997  0.8486700000000001  0.42157  1.0000
  C   C304      1.0  0.4275900000000001  0.58284  0.20627999999999996  1.0000
  C   C305      1.0  0.7833700000000001  0.5829899999999999  0.42755  1.0000
  C   C306      1.0  0.7956099999999999  0.7285700000000002  0.46492  1.0000
  C   C307      1.0  0.7156799999999998  0.9960600000000001  0.38398999999999994  1.0000
  C   C308      1.0  0.38251000000000007  0.17213000000000006  0.9022899999999999  1.0000
  C   C309      1.0  0.7806700000000004  0.95153  0.47009  1.0000
  C   C310      1.0  0.46491  0.79564  0.7285599999999999  1.0000
  C   C311      1.0  0.5829700000000002  0.42754000000000014  0.7833799999999997  1.0000
  C   C312      1.0  0.28392000000000017  0.3931299999999999  0.4837  1.0000
  N   N1        1.0  0.56356  0.14568999999999996  0.1453  1.0000
  N   N2        1.0  0.14550000000000007  0.1455  0.14550999999999997  1.0000
  N   N3        1.0  0.14569000000000004  0.14530999999999997  0.56355  1.0000
  N   N4        1.0  0.14531000000000002  0.56356  0.14569  1.0000
  N   N5        1.0  0.8544899999999999  0.8545  0.8545  1.0000
  N   N6        1.0  0.85431  0.43645  0.85469  1.0000
  N   N7        1.0  0.43644000000000005  0.8547000000000002  0.8542999999999998  1.0000
  N   N8        1.0  0.8546900000000004  0.8543099999999999  0.43644  1.0000
  O   O1        1.0  0.69851  0.54776  0.6440999999999999  1.0000
  O   O2        1.0  0.5774400000000002  0.52705  0.21624  1.0000
  O   O3        1.0  0.5479099999999999  0.6439799999999999  0.69849  1.0000
  O   O4        1.0  0.6440000000000001  0.54784  0.10974999999999997  1.0000
  O   O5        1.0  0.5278800000000001  0.5771100000000001  0.6791299999999999  1.0000
  O   O6        1.0  0.6794600000000001  0.57656  0.21567999999999998  1.0000
  O   O7        1.0  0.67837  0.21574000000000002  0.5284799999999998  1.0000
  O   O8        1.0  0.5285100000000003  0.6783500000000001  0.21572999999999998  1.0000
  O   O9        1.0  0.21567999999999998  0.6795  0.5765299999999999  1.0000
  O   O10       1.0  0.10948999999999999  0.6988200000000002  0.6439599999999998  1.0000
  O   O11       1.0  0.64402  0.10950000000000001  0.69881  1.0000
  O   O12       1.0  0.54856  0.69814  0.10927  1.0000
  O   O13       1.0  0.6987900000000002  0.64403  0.10949  1.0000
  O   O14       1.0  0.6981199999999999  0.10925999999999998  0.54864  1.0000
  O   O15       1.0  0.5270800000000001  0.21624  0.57745  1.0000
  O   O16       1.0  0.64403  0.69848  0.54794  1.0000
  O   O17       1.0  0.54777  0.10974000000000003  0.64405  1.0000
  O   O18       1.0  0.67907  0.52787  0.57719  1.0000
  O   O19       1.0  0.5772000000000002  0.6790100000000001  0.52796  1.0000
  O   O20       1.0  0.5765500000000001  0.21569000000000002  0.67945  1.0000
  O   O21       1.0  0.21573000000000006  0.5285000000000001  0.6783199999999999  1.0000
  O   O22       1.0  0.10976000000000001  0.6441  0.5476799999999998  1.0000
  O   O23       1.0  0.10924  0.5486700000000001  0.69811  1.0000
  O   O24       1.0  0.21622999999999995  0.5774800000000001  0.52706  1.0000
  O   O25       1.0  0.8905000000000002  0.35604  0.30117999999999995  1.0000
  O   O26       1.0  0.35598  0.3012000000000001  0.8904899999999998  1.0000
  O   O27       1.0  0.7843200000000002  0.42347  0.32051  1.0000
  O   O28       1.0  0.3559999999999999  0.89025  0.45216999999999996  1.0000
  O   O29       1.0  0.35597000000000006  0.4520600000000001  0.3015199999999999  1.0000
  O   O30       1.0  0.8907600000000001  0.30189000000000005  0.45132999999999995  1.0000
  O   O31       1.0  0.32093000000000016  0.42281  0.47213  1.0000
  O   O32       1.0  0.45142  0.8907400000000001  0.30185  1.0000
  O   O33       1.0  0.42279999999999995  0.4720500000000001  0.32098999999999994  1.0000
  O   O34       1.0  0.30188  0.45136  0.89073  1.0000
  O   O35       1.0  0.32163000000000014  0.47152  0.78426  1.0000
  O   O36       1.0  0.42345000000000005  0.3205500000000001  0.7843099999999998  1.0000
  O   O37       1.0  0.4714899999999999  0.78428  0.32166  1.0000
  O   O38       1.0  0.8902400000000001  0.45231  0.3559  1.0000
  O   O39       1.0  0.47292000000000006  0.42255  0.78376  1.0000
  O   O40       1.0  0.45208000000000015  0.30151  0.35602999999999996  1.0000
  O   O41       1.0  0.4721200000000001  0.32086000000000003  0.42288999999999993  1.0000
  O   O42       1.0  0.3205399999999999  0.7843200000000002  0.4234399999999999  1.0000
  O   O43       1.0  0.7837700000000001  0.47294  0.42251999999999995  1.0000
  O   O44       1.0  0.30149000000000004  0.3559  0.4522399999999999  1.0000
  O   O45       1.0  0.42255000000000004  0.78376  0.4729499999999999  1.0000
  O   O46       1.0  0.3011900000000001  0.8905199999999999  0.35596999999999995  1.0000
  O   O47       1.0  0.7842699999999997  0.32167  0.4714999999999999  1.0000
  O   O48       1.0  0.4522300000000002  0.35594000000000003  0.8902499999999999  1.0000
