data_image0
_chemical_formula_structural       Cd24H160C336N16O128
_chemical_formula_sum              "Cd24 H160 C336 N16 O128"
_cell_length_a       13.3726
_cell_length_b       29.31954
_cell_length_c       29.20878
_cell_angle_alpha    86.31327000000002
_cell_angle_beta     76.20526000000001
_cell_angle_gamma    76.35588

_space_group_name_H-M_alt    "P 1"
_space_group_IT_number       1

loop_
  _space_group_symop_operation_xyz
  'x, y, z'

loop_
  _atom_site_type_symbol
  _atom_site_label
  _atom_site_symmetry_multiplicity
  _atom_site_fract_x
  _atom_site_fract_y
  _atom_site_fract_z
  _atom_site_occupancy
  Cd  Cd1       1.0  0.0759100000000001  0.059  0.8837799999999998  1.0000
  Cd  Cd2       1.0  0.07962000000000002  0.01822  0.7329399999999999  1.0000
  Cd  Cd3       1.0  0.85725  0.05779  0.58916  1.0000
  Cd  Cd4       1.0  0.03937999999999997  0.43453  0.61446  1.0000
  Cd  Cd5       1.0  0.8393599999999996  0.47648  0.76403  1.0000
  Cd  Cd6       1.0  0.5005999999999997  0.44732  0.9126  1.0000
  Cd  Cd7       1.0  0.6503700000000001  0.88448  0.42846  1.0000
  Cd  Cd8       1.0  0.5943600000000001  0.7343099999999999  0.47816  1.0000
  Cd  Cd9       1.0  0.40941000000000005  0.58612  0.4452099999999999  1.0000
  Cd  Cd10      1.0  0.97556  0.61313  0.06514  1.0000
  Cd  Cd11      1.0  0.74463  0.7477  0.023819999999999994  1.0000
  Cd  Cd12      1.0  0.4343199999999999  0.91683  0.059839999999999983  1.0000
  Cd  Cd13      1.0  0.92359  0.93826  0.11967999999999997  1.0000
  Cd  Cd14      1.0  0.9213199999999996  0.9804899999999999  0.26642  1.0000
  Cd  Cd15      1.0  0.14234000000000002  0.94193  0.41213999999999995  1.0000
  Cd  Cd16      1.0  0.9561699999999999  0.56693  0.3866699999999999  1.0000
  Cd  Cd17      1.0  0.18934000000000012  0.52509  0.24896999999999994  1.0000
  Cd  Cd18      1.0  0.50368  0.55477  0.08486  1.0000
  Cd  Cd19      1.0  0.34755000000000014  0.11557  0.5708299999999997  1.0000
  Cd  Cd20      1.0  0.4016  0.26553  0.52083  1.0000
  Cd  Cd21      1.0  0.5899  0.41474  0.55348  1.0000
  Cd  Cd22      1.0  0.02628000000000008  0.3873  0.9333199999999999  1.0000
  Cd  Cd23      1.0  0.25614000000000003  0.25509  0.9746099999999998  1.0000
  Cd  Cd24      1.0  0.5585600000000002  0.08598  0.9430999999999998  1.0000
  H   H1        1.0  0.5903799999999999  0.13516  0.793  1.0000
  H   H2        1.0  0.6462099999999998  0.17613  0.71598  1.0000
  H   H3        1.0  0.8382300000000001  0.1736  0.68475  1.0000
  H   H4        1.0  0.30277000000000004  0.12183  0.6861399999999999  1.0000
  H   H5        1.0  0.19330000000000006  0.18175  0.7454599999999998  1.0000
  H   H6        1.0  0.9998600000000001  0.18526  0.77344  1.0000
  H   H7        1.0  0.6281600000000004  0.97084  0.8186399999999998  1.0000
  H   H8        1.0  0.35659  0.91457  0.81997  1.0000
  H   H9        1.0  0.5128099999999997  0.94368  0.7749299999999998  1.0000
  H   H10       1.0  0.4191900000000003  0.83571  0.9202899999999998  1.0000
  H   H11       1.0  0.2886100000000001  0.78813  0.9547899999999998  1.0000
  H   H12       1.0  0.09354000000000011  0.82432  0.9643899999999997  1.0000
  H   H13       1.0  0.20086000000000007  0.01986  0.7851499999999998  1.0000
  H   H14       1.0  0.3648600000000002  0.016919999999999998  0.7221599999999998  1.0000
  H   H15       1.0  0.4814300000000001  0.08286  0.8212499999999998  1.0000
  H   H16       1.0  0.31112000000000006  0.08573  0.8774599999999998  1.0000
  H   H17       1.0  0.45694  0.05902  0.66924  1.0000
  H   H18       1.0  0.6229300000000001  0.05564  0.6086899999999998  1.0000
  H   H19       1.0  0.80014  0.04152  0.7094099999999998  1.0000
  H   H20       1.0  0.6415000000000001  0.04113  0.7751599999999997  1.0000
  H   H21       1.0  0.5268000000000002  0.36785  0.7051299999999998  1.0000
  H   H22       1.0  0.53086  0.33458  0.78606  1.0000
  H   H23       1.0  0.6854800000000001  0.33649  0.81901  1.0000
  H   H24       1.0  0.11447999999999997  0.37305  0.81493  1.0000
  H   H25       1.0  0.12450000000000007  0.31429  0.7549199999999999  1.0000
  H   H26       1.0  0.9622100000000001  0.3134199999999999  0.72717  1.0000
  H   H27       1.0  0.3856300000000001  0.52786  0.6884999999999998  1.0000
  H   H28       1.0  0.06454999999999998  0.59138  0.68003  1.0000
  H   H29       1.0  0.19597999999999988  0.56239  0.7285299999999998  1.0000
  H   H30       1.0  0.14130000000000012  0.66631  0.5848899999999998  1.0000
  H   H31       1.0  0.98748  0.71182  0.5555099999999998  1.0000
  H   H32       1.0  0.8494899999999996  0.67107  0.5436  1.0000
  H   H33       1.0  0.013550000000000046  0.47247  0.7145799999999999  1.0000
  H   H34       1.0  0.10580000000000002  0.47869  0.77739  1.0000
  H   H35       1.0  0.3988500000000002  0.41802  0.6783599999999997  1.0000
  H   H36       1.0  0.29357999999999995  0.41267  0.6222  1.0000
  H   H37       1.0  0.18644000000000005  0.44244  0.83094  1.0000
  H   H38       1.0  0.28007  0.45136  0.89185  1.0000
  H   H39       1.0  0.5499200000000001  0.46401  0.7920099999999998  1.0000
  H   H40       1.0  0.4642  0.4603399999999999  0.72572  1.0000
  H   H41       1.0  0.22265999999999997  0.7915  0.37387999999999993  1.0000
  H   H42       1.0  0.31089999999999995  0.71238  0.3372799999999999  1.0000
  H   H43       1.0  0.5024600000000001  0.6812  0.33477  1.0000
  H   H44       1.0  0.9244999999999997  0.68244  0.37473  1.0000
  H   H45       1.0  0.8773099999999999  0.74202  0.31414  1.0000
  H   H46       1.0  0.6872199999999998  0.77093  0.31154  1.0000
  H   H47       1.0  0.09099000000000007  0.81686  0.52753  1.0000
  H   H48       1.0  0.7555699999999996  0.82546  0.57279  1.0000
  H   H49       1.0  0.9385299999999998  0.77757  0.5460399999999999  1.0000
  H   H50       1.0  0.73215  0.92133  0.6594799999999997  1.0000
  H   H51       1.0  0.54627  0.95058  0.70312  1.0000
  H   H52       1.0  0.39969000000000016  0.96232  0.65998  1.0000
  H   H53       1.0  0.7273000000000001  0.7776099999999998  0.4517099999999999  1.0000
  H   H54       1.0  0.8786699999999998  0.71773  0.46931  1.0000
  H   H55       1.0  0.06870999999999994  0.82092  0.42419  1.0000
  H   H56       1.0  0.9074099999999999  0.87651  0.41508  1.0000
  H   H57       1.0  0.014190000000000017  0.66676  0.44346999999999986  1.0000
  H   H58       1.0  0.16929999999999992  0.60618  0.45398  1.0000
  H   H59       1.0  0.33495  0.7053  0.4677099999999999  1.0000
  H   H60       1.0  0.18104  0.77137  0.46345  1.0000
  H   H61       1.0  0.37717000000000006  0.71043  0.13504999999999998  1.0000
  H   H62       1.0  0.36507000000000006  0.7917799999999998  0.16126  1.0000
  H   H63       1.0  0.53026  0.81896  0.1546  1.0000
  H   H64       1.0  0.9698099999999997  0.82091  0.13452999999999998  1.0000
  H   H65       1.0  0.9305399999999999  0.75153  0.18489  1.0000
  H   H66       1.0  0.7783699999999997  0.71915  0.17797  1.0000
  H   H67       1.0  0.41069000000000017  0.6906599999999998  0.9737999999999998  1.0000
  H   H68       1.0  0.15472999999999995  0.68028  0.91181  1.0000
  H   H69       1.0  0.24948  0.7295399999999999  0.9436799999999997  1.0000
  H   H70       1.0  0.32457999999999987  0.58226  0.83348  1.0000
  H   H71       1.0  0.22258999999999995  0.54874  0.78911  1.0000
  H   H72       1.0  0.03899999999999998  0.53915  0.82957  1.0000
  H   H73       1.0  0.95164  0.7246199999999998  0.04677999999999999  1.0000
  H   H74       1.0  0.052579999999999974  0.78655  0.037409999999999985  1.0000
  H   H75       1.0  0.3081400000000001  0.68193  0.07653999999999997  1.0000
  H   H76       1.0  0.20081999999999994  0.62437  0.08030999999999999  1.0000
  H   H77       1.0  0.1093199999999999  0.83634  0.06866  1.0000
  H   H78       1.0  0.21220999999999993  0.89646  0.06377  1.0000
  H   H79       1.0  0.49674999999999997  0.79836  0.03534  1.0000
  H   H80       1.0  0.40675  0.73243  0.03742  1.0000
  H   H81       1.0  0.4108299999999998  0.8632099999999999  0.21109  1.0000
  H   H82       1.0  0.3530500000000002  0.82438  0.2887  1.0000
  H   H83       1.0  0.16101000000000007  0.82728  0.3195899999999999  1.0000
  H   H84       1.0  0.69837  0.8769  0.31371999999999994  1.0000
  H   H85       1.0  0.8102599999999998  0.81614  0.25585  1.0000
  H   H86       1.0  0.004120000000000071  0.81238  0.22954999999999995  1.0000
  H   H87       1.0  0.37471  0.03075  0.18481999999999996  1.0000
  H   H88       1.0  0.65467  0.08203999999999999  0.17920999999999995  1.0000
  H   H89       1.0  0.4986  0.05421  0.22608999999999996  1.0000
  H   H90       1.0  0.58817  0.16263  0.07689  1.0000
  H   H91       1.0  0.72101  0.20889  0.0417  1.0000
  H   H92       1.0  0.9143299999999998  0.17247  0.03468  1.0000
  H   H93       1.0  0.7981200000000002  0.9790299999999997  0.21740999999999994  1.0000
  H   H94       1.0  0.6329199999999998  0.98291  0.27964  1.0000
  H   H95       1.0  0.51806  0.91634  0.18039  1.0000
  H   H96       1.0  0.68979  0.91239  0.12493999999999997  1.0000
  H   H97       1.0  0.5414400000000001  0.94118  0.33223  1.0000
  H   H98       1.0  0.3755900000000001  0.9443  0.3928199999999999  1.0000
  H   H99       1.0  0.19826  0.95848  0.29211  1.0000
  H   H100      1.0  0.35696  0.9587099999999998  0.22629999999999995  1.0000
  H   H101      1.0  0.47792999999999997  0.63271  0.29040999999999995  1.0000
  H   H102      1.0  0.47150999999999993  0.65839  0.20747  1.0000
  H   H103      1.0  0.31357000000000007  0.65513  0.17833  1.0000
  H   H104      1.0  0.8870300000000001  0.62693  0.18188  1.0000
  H   H105      1.0  0.87445  0.68319  0.24487999999999993  1.0000
  H   H106      1.0  0.034949999999999974  0.68232  0.27476  1.0000
  H   H107      1.0  0.6183399999999999  0.47329  0.30896  1.0000
  H   H108      1.0  0.93731  0.40911  0.31997999999999993  1.0000
  H   H109      1.0  0.80891  0.43922  0.27023  1.0000
  H   H110      1.0  0.8596900000000001  0.3341  0.41567999999999994  1.0000
  H   H111      1.0  0.014560000000000073  0.29006  0.4455699999999999  1.0000
  H   H112      1.0  0.15021000000000004  0.33221  0.45714999999999995  1.0000
  H   H113      1.0  0.9961699999999999  0.53573  0.28049  1.0000
  H   H114      1.0  0.9076700000000001  0.52479  0.21876  1.0000
  H   H115      1.0  0.6094  0.58081  0.31694999999999995  1.0000
  H   H116      1.0  0.7106799999999995  0.58734  0.37431  1.0000
  H   H117      1.0  0.8251299999999999  0.55668  0.16439  1.0000
  H   H118      1.0  0.7292399999999999  0.54958  0.10385999999999997  1.0000
  H   H119      1.0  0.46077999999999997  0.53608  0.20404999999999995  1.0000
  H   H120      1.0  0.5467899999999998  0.53986  0.27016  1.0000
  H   H121      1.0  0.7733800000000001  0.20771  0.6289399999999999  1.0000
  H   H122      1.0  0.6846  0.28736  0.66375  1.0000
  H   H123      1.0  0.49354000000000003  0.31854  0.6651399999999997  1.0000
  H   H124      1.0  0.07215000000000002  0.3198899999999999  0.62602  1.0000
  H   H125      1.0  0.11914999999999998  0.25962  0.68618  1.0000
  H   H126      1.0  0.30932000000000004  0.22909  0.6876399999999999  1.0000
  H   H127      1.0  0.9127999999999998  0.18425  0.47347  1.0000
  H   H128      1.0  0.2480299999999999  0.17433  0.42366  1.0000
  H   H129      1.0  0.06601000000000005  0.2233  0.4510499999999999  1.0000
  H   H130      1.0  0.2672699999999999  0.07936  0.34001  1.0000
  H   H131      1.0  0.4530100000000001  0.05002  0.2958999999999999  1.0000
  H   H132      1.0  0.59996  0.03876999999999999  0.33886  1.0000
  H   H133      1.0  0.27277999999999997  0.2211  0.54391  1.0000
  H   H134      1.0  0.12060999999999998  0.28217  0.52871  1.0000
  H   H135      1.0  0.9274099999999998  0.18082  0.57796  1.0000
  H   H136      1.0  0.08848000000000004  0.12448999999999998  0.58598  1.0000
  H   H137      1.0  0.9852099999999998  0.33402  0.55781  1.0000
  H   H138      1.0  0.8292299999999998  0.3952800000000001  0.5489399999999998  1.0000
  H   H139      1.0  0.66327  0.29692  0.53292  1.0000
  H   H140      1.0  0.8163899999999995  0.23038  0.53742  1.0000
  H   H141      1.0  0.6170600000000002  0.29111  0.86789  1.0000
  H   H142      1.0  0.6316  0.21051  0.8387499999999998  1.0000
  H   H143      1.0  0.4676100000000001  0.18326  0.8431899999999998  1.0000
  H   H144      1.0  0.026840000000000135  0.17868  0.8671599999999998  1.0000
  H   H145      1.0  0.059820000000000026  0.24946999999999997  0.81785  1.0000
  H   H146      1.0  0.21348000000000003  0.28193  0.8221599999999999  1.0000
  H   H147      1.0  0.57401  0.31255  0.02785  1.0000
  H   H148      1.0  0.8376499999999999  0.32039  0.08572  1.0000
  H   H149      1.0  0.7363999999999998  0.27224  0.05638  1.0000
  H   H150      1.0  0.67449  0.41674  0.16471  1.0000
  H   H151      1.0  0.7791999999999999  0.44848  0.20909999999999998  1.0000
  H   H152      1.0  0.96253  0.45798  0.16802999999999996  1.0000
  H   H153      1.0  0.050370000000000074  0.27496  0.95109  1.0000
  H   H154      1.0  0.9466799999999999  0.21377  0.9608899999999998  1.0000
  H   H155      1.0  0.6909999999999995  0.32043  0.9246199999999998  1.0000
  H   H156      1.0  0.8000700000000002  0.3771  0.9215099999999998  1.0000
  H   H157      1.0  0.8886  0.16532  0.9285399999999999  1.0000
  H   H158      1.0  0.7844100000000002  0.10582  0.9330699999999997  1.0000
  H   H159      1.0  0.5008199999999998  0.20425  0.96481  1.0000
  H   H160      1.0  0.5923099999999997  0.26969  0.96326  1.0000
  C   C1        1.0  0.8856099999999996  0.13437  0.74341  1.0000
  C   C2        1.0  0.8549000000000001  0.11085  0.7863799999999997  1.0000
  C   C3        1.0  0.74657  0.11158  0.8035899999999998  1.0000
  C   C4        1.0  0.6728599999999998  0.1355  0.77827  1.0000
  C   C5        1.0  0.7037599999999999  0.15811  0.7357  1.0000
  C   C6        1.0  0.8106799999999998  0.15708999999999998  0.71828  1.0000
  C   C7        1.0  0.99871  0.13437  0.72395  1.0000
  C   C8        1.0  0.05864000000000003  0.10316999999999997  0.68732  1.0000
  C   C9        1.0  0.16994999999999996  0.09706  0.67622  1.0000
  C   C10       1.0  0.21711999999999995  0.12674  0.69568  1.0000
  C   C11       1.0  0.15588000000000013  0.15995  0.7292699999999999  1.0000
  C   C12       1.0  0.04778000000000013  0.16231  0.7446299999999998  1.0000
  C   C13       1.0  0.70807  0.08792  0.8495899999999997  1.0000
  C   C14       1.0  0.9374399999999999  0.08716  0.81353  1.0000
  C   C15       1.0  0.0009499999999999508  0.07549000000000002  0.66331  1.0000
  C   C16       1.0  0.24341000000000013  0.052680000000000005  0.6550499999999998  1.0000
  C   C17       1.0  0.56032  0.9572199999999997  0.83714  1.0000
  C   C18       1.0  0.5360899999999996  0.95644  0.8866699999999997  1.0000
  C   C19       1.0  0.4512299999999997  0.93747  0.91229  1.0000
  C   C20       1.0  0.38635000000000014  0.9226  0.88779  1.0000
  C   C21       1.0  0.40789999999999993  0.92602  0.8384599999999998  1.0000
  C   C22       1.0  0.4958599999999999  0.94235  0.81321  1.0000
  C   C23       1.0  0.11989000000000005  0.89126  0.9368199999999998  1.0000
  C   C24       1.0  0.1945300000000002  0.9186299999999998  0.9181499999999998  1.0000
  C   C25       1.0  0.30266  0.8981  0.91195  1.0000
  C   C26       1.0  0.33490000000000014  0.85107  0.9252299999999998  1.0000
  C   C27       1.0  0.26085000000000025  0.82418  0.9442599999999998  1.0000
  C   C28       1.0  0.15375000000000005  0.8439799999999997  0.94995  1.0000
  C   C29       1.0  0.5921400000000001  0.98267  0.9106299999999998  1.0000
  C   C30       1.0  0.43397  0.9315399999999999  0.96476  1.0000
  C   C31       1.0  0.15721000000000013  0.96932  0.9064399999999998  1.0000
  C   C32       1.0  0.004550000000000218  0.91063  0.9428799999999998  1.0000
  C   C33       1.0  0.2636100000000001  0.0357  0.7901099999999998  1.0000
  C   C34       1.0  0.3557400000000001  0.033490000000000006  0.7555899999999999  1.0000
  C   C35       1.0  0.43671999999999983  0.05189  0.7650099999999999  1.0000
  C   C36       1.0  0.4207500000000002  0.06994000000000002  0.8102199999999998  1.0000
  C   C37       1.0  0.3243700000000001  0.07159  0.8424399999999997  1.0000
  C   C38       1.0  0.5343  0.050780000000000006  0.7280799999999997  1.0000
  C   C39       1.0  0.5306800000000002  0.05474  0.6803499999999998  1.0000
  C   C40       1.0  0.6232599999999999  0.05314  0.64595  1.0000
  C   C41       1.0  0.72232  0.04484  0.70236  1.0000
  C   C42       1.0  0.63341  0.04503  0.73884  1.0000
  C   C43       1.0  0.7675699999999998  0.3665399999999999  0.7563999999999997  1.0000
  C   C44       1.0  0.7653699999999999  0.38585  0.7108299999999997  1.0000
  C   C45       1.0  0.6754099999999998  0.3864199999999999  0.6932599999999999  1.0000
  C   C46       1.0  0.59355  0.3672  0.72041  1.0000
  C   C47       1.0  0.5957600000000001  0.34882999999999986  0.76531  1.0000
  C   C48       1.0  0.6826199999999999  0.34927  0.7834699999999998  1.0000
  C   C49       1.0  0.86001  0.36495  0.77654  1.0000
  C   C50       1.0  0.8517699999999999  0.39554  0.8133699999999998  1.0000
  C   C51       1.0  0.9463500000000001  0.40004  0.8245199999999998  1.0000
  C   C52       1.0  0.04310000000000014  0.36937999999999993  0.8051899999999997  1.0000
  C   C53       1.0  0.04874000000000009  0.33677999999999997  0.7713799999999998  1.0000
  C   C54       1.0  0.9582699999999998  0.33596  0.7559999999999998  1.0000
  C   C55       1.0  0.6642800000000002  0.40707  0.6454899999999999  1.0000
  C   C56       1.0  0.85692  0.40622  0.6828699999999998  1.0000
  C   C57       1.0  0.7425700000000001  0.42522  0.8371099999999999  1.0000
  C   C58       1.0  0.9540299999999999  0.44465  0.84449  1.0000
  C   C59       1.0  0.32618999999999954  0.54214  0.66847  1.0000
  C   C60       1.0  0.3568800000000001  0.5402  0.6190499999999998  1.0000
  C   C61       1.0  0.28368999999999994  0.55997  0.59137  1.0000
  C   C62       1.0  0.17744000000000018  0.5775  0.6137799999999998  1.0000
  C   C63       1.0  0.14709000000000003  0.57736  0.66313  1.0000
  C   C64       1.0  0.22150000000000003  0.56088  0.69037  1.0000
  C   C65       1.0  0.9289200000000001  0.60378  0.56603  1.0000
  C   C66       1.0  0.018139999999999948  0.57759  0.58159  1.0000
  C   C67       1.0  0.09404999999999983  0.60067  0.58868  1.0000
  C   C68       1.0  0.08202000000000005  0.64892  0.5789599999999999  1.0000
  C   C69       1.0  0.9946700000000003  0.6745299999999999  0.56271  1.0000
  C   C70       1.0  0.9183400000000003  0.6522799999999999  0.5562599999999999  1.0000
  C   C71       1.0  0.4643400000000001  0.51122  0.5977199999999998  1.0000
  C   C72       1.0  0.3202100000000002  0.56605  0.5392699999999999  1.0000
  C   C73       1.0  0.03027  0.52605  0.59209  1.0000
  C   C74       1.0  0.8427099999999995  0.58232  0.5596599999999999  1.0000
  C   C75       1.0  0.0985  0.45861  0.70953  1.0000
  C   C76       1.0  0.15094000000000007  0.46251  0.7440999999999998  1.0000
  C   C77       1.0  0.26151  0.44656000000000007  0.7350299999999997  1.0000
  C   C78       1.0  0.31292999999999976  0.42921  0.6897  1.0000
  C   C79       1.0  0.25335999999999975  0.42604  0.65723  1.0000
  C   C80       1.0  0.3174000000000001  0.45006  0.7722199999999999  1.0000
  C   C81       1.0  0.2665600000000001  0.44768  0.8199599999999998  1.0000
  C   C82       1.0  0.31875000000000003  0.45220999999999995  0.8547  1.0000
  C   C83       1.0  0.4687400000000001  0.45999  0.79879  1.0000
  C   C84       1.0  0.42066999999999993  0.45726  0.7619199999999998  1.0000
  C   C85       1.0  0.52026  0.74258  0.36531  1.0000
  C   C86       1.0  0.47111000000000003  0.78701  0.3858499999999999  1.0000
  C   C87       1.0  0.36215  0.80371  0.38836  1.0000
  C   C88       1.0  0.30654000000000003  0.77685  0.37049  1.0000
  C   C89       1.0  0.35538  0.73319  0.35041  1.0000
  C   C90       1.0  0.46255999999999997  0.71602  0.34841  1.0000
  C   C91       1.0  0.6328899999999995  0.72218  0.36416  1.0000
  C   C92       1.0  0.65967  0.68569  0.39608  1.0000
  C   C93       1.0  0.76545  0.67363  0.4009799999999999  1.0000
  C   C94       1.0  0.8437399999999999  0.69242  0.37022999999999995  1.0000
  C   C95       1.0  0.8169700000000001  0.72617  0.3366399999999999  1.0000
  C   C96       1.0  0.7113399999999998  0.74215  0.33488  1.0000
  C   C97       1.0  0.3033500000000002  0.85043  0.4100899999999999  1.0000
  C   C98       1.0  0.5337799999999999  0.81472  0.40599  1.0000
  C   C99       1.0  0.57328  0.66274  0.4264799999999999  1.0000
  C   C100      1.0  0.79246  0.65326  0.44607999999999987  1.0000
  C   C101      1.0  0.01017999999999996  0.83674  0.54011  1.0000
  C   C102      1.0  0.99219  0.88576  0.54437  1.0000
  C   C103      1.0  0.88912  0.91267  0.5623399999999998  1.0000
  C   C104      1.0  0.80351  0.89074  0.57168  1.0000
  C   C105      1.0  0.82245  0.84209  0.56523  1.0000
  C   C106      1.0  0.9254700000000001  0.81516  0.55045  1.0000
  C   C107      1.0  0.5057900000000001  0.9397699999999998  0.59349  1.0000
  C   C108      1.0  0.6113500000000001  0.92247  0.5687999999999998  1.0000
  C   C109      1.0  0.69307  0.91565  0.5928999999999998  1.0000
  C   C110      1.0  0.6681400000000001  0.92656  0.64123  1.0000
  C   C111      1.0  0.5634  0.94282  0.6657899999999999  1.0000
  C   C112      1.0  0.48222999999999994  0.94939  0.64224  1.0000
  C   C113      1.0  0.08470000000000011  0.90712  0.5234099999999999  1.0000
  C   C114      1.0  0.8701499999999999  0.9640399999999998  0.57169  1.0000
  C   C115      1.0  0.63458  0.9112  0.51747  1.0000
  C   C116      1.0  0.41423  0.94918  0.5706999999999998  1.0000
  C   C117      1.0  0.8049299999999999  0.78523  0.44670999999999994  1.0000
  C   C118      1.0  0.89053  0.75172  0.4552499999999999  1.0000
  C   C119      1.0  0.9906399999999999  0.76235  0.44593  1.0000
  C   C120      1.0  0.9956099999999997  0.80852  0.4311699999999999  1.0000
  C   C121      1.0  0.9040699999999998  0.8405799999999999  0.42529999999999996  1.0000
  C   C122      1.0  0.08311000000000014  0.72536  0.4521099999999999  1.0000
  C   C123      1.0  0.0817099999999999  0.67782  0.4498099999999999  1.0000
  C   C124      1.0  0.16923999999999997  0.64317  0.4549899999999999  1.0000
  C   C125      1.0  0.26082000000000005  0.69868  0.4635499999999999  1.0000
  C   C126      1.0  0.17479999999999998  0.73542  0.46048  1.0000
  C   C127      1.0  0.6333399999999999  0.75329  0.1283  1.0000
  C   C128      1.0  0.63999  0.7074  0.11328  1.0000
  C   C129      1.0  0.5456100000000002  0.6927999999999997  0.11538999999999998  1.0000
  C   C130      1.0  0.44801000000000013  0.7230399999999998  0.13356  1.0000
  C   C131      1.0  0.44138999999999995  0.76819  0.14804  1.0000
  C   C132      1.0  0.53386  0.7833799999999997  0.1447  1.0000
  C   C133      1.0  0.7286000000000001  0.77134  0.12778  1.0000
  C   C134      1.0  0.75074  0.8103099999999999  0.09934  1.0000
  C   C135      1.0  0.8411599999999999  0.82657  0.10131  1.0000
  C   C136      1.0  0.90199  0.80676  0.13356  1.0000
  C   C137      1.0  0.8801000000000001  0.76818  0.1614  1.0000
  C   C138      1.0  0.7955199999999994  0.74987  0.15753  1.0000
  C   C139      1.0  0.54944  0.64546  0.09689  1.0000
  C   C140      1.0  0.7479  0.6752899999999998  0.09522  1.0000
  C   C141      1.0  0.6741699999999998  0.83649  0.06987  1.0000
  C   C142      1.0  0.8864799999999999  0.8575299999999999  0.06218  1.0000
  C   C143      1.0  0.36840999999999996  0.6703699999999999  0.9586199999999999  1.0000
  C   C144      1.0  0.4042799999999999  0.6212499999999997  0.95742  1.0000
  C   C145      1.0  0.35434  0.5934  0.93667  1.0000
  C   C146      1.0  0.2627900000000002  0.61517  0.9211599999999998  1.0000
  C   C147      1.0  0.22544000000000006  0.66404  0.9243099999999997  1.0000
  C   C148      1.0  0.27918  0.69171  0.9422  1.0000
  C   C149      1.0  0.045620000000000036  0.56466  0.8958  1.0000
  C   C150      1.0  0.10535000000000005  0.58206  0.92163  1.0000
  C   C151      1.0  0.20518000000000006  0.58928  0.8983399999999998  1.0000
  C   C152      1.0  0.2462700000000001  0.57712  0.8507099999999997  1.0000
  C   C153      1.0  0.18779000000000004  0.55891  0.8255699999999998  1.0000
  C   C154      1.0  0.08747000000000014  0.55314  0.8476999999999998  1.0000
  C   C155      1.0  0.48507000000000006  0.60019  0.9853099999999998  1.0000
  C   C156      1.0  0.39948999999999996  0.54165  0.9299599999999998  1.0000
  C   C157      1.0  0.06340000000000007  0.59263  0.97325  1.0000
  C   C158      1.0  0.9384100000000001  0.55667  0.9171899999999997  1.0000
  C   C159      1.0  0.03149999999999995  0.71664  0.05247  1.0000
  C   C160      1.0  0.08804  0.75137  0.04795999999999999  1.0000
  C   C161      1.0  0.18956  0.7407  0.05724  1.0000
  C   C162      1.0  0.22995999999999991  0.69383  0.06901  1.0000
  C   C163      1.0  0.16895999999999992  0.66075  0.07172999999999997  1.0000
  C   C164      1.0  0.24883000000000008  0.7779599999999999  0.05435  1.0000
  C   C165      1.0  0.19521000000000002  0.8251799999999999  0.06116999999999999  1.0000
  C   C166      1.0  0.25228  0.85968  0.05857  1.0000
  C   C167      1.0  0.41086999999999996  0.80474  0.04246999999999999  1.0000
  C   C168      1.0  0.35996  0.76815  0.043909999999999984  1.0000
  C   C169      1.0  0.11534999999999981  0.86443  0.25948  1.0000
  C   C170      1.0  0.14687999999999993  0.88687  0.21595999999999996  1.0000
  C   C171      1.0  0.25523  0.88641  0.1992  1.0000
  C   C172      1.0  0.3280000000000001  0.86329  0.22534  1.0000
  C   C173      1.0  0.29611999999999994  0.8417  0.2684099999999999  1.0000
  C   C174      1.0  0.18914000000000003  0.84285  0.2856099999999999  1.0000
  C   C175      1.0  0.002200000000000127  0.8645299999999998  0.27832  1.0000
  C   C176      1.0  0.9408200000000001  0.8968499999999998  0.31369  1.0000
  C   C177      1.0  0.8296099999999998  0.90276  0.32402  1.0000
  C   C178      1.0  0.7839499999999999  0.87227  0.30475  1.0000
  C   C179      1.0  0.8465499999999998  0.8384  0.27211  1.0000
  C   C180      1.0  0.95481  0.83588  0.25767999999999996  1.0000
  C   C181      1.0  0.29402  0.9097599999999999  0.15311  1.0000
  C   C182      1.0  0.06503000000000006  0.90877  0.18782  1.0000
  C   C183      1.0  0.9981599999999998  0.92512  0.33731  1.0000
  C   C184      1.0  0.7551899999999999  0.94725  0.3443799999999999  1.0000
  C   C185      1.0  0.44245  0.04388  0.16526  1.0000
  C   C186      1.0  0.4620399999999999  0.04603  0.11575999999999997  1.0000
  C   C187      1.0  0.5471499999999998  0.06444  0.08927  1.0000
  C   C188      1.0  0.61718  0.07693  0.11253999999999999  1.0000
  C   C189      1.0  0.5997199999999998  0.07223  0.16171  1.0000
  C   C190      1.0  0.51156  0.05676  0.18796999999999994  1.0000
  C   C191      1.0  0.88621  0.10617  0.06401999999999998  1.0000
  C   C192      1.0  0.81051  0.07934999999999999  0.08298  1.0000
  C   C193      1.0  0.7026199999999998  0.10027  0.08782999999999998  1.0000
  C   C194      1.0  0.67207  0.14695  0.07296  1.0000
  C   C195      1.0  0.7471399999999999  0.17321  0.05369  1.0000
  C   C196      1.0  0.8536999999999999  0.1531  0.04931999999999999  1.0000
  C   C197      1.0  0.4016  0.02103  0.09276  1.0000
  C   C198      1.0  0.56005  0.07201  0.03718  1.0000
  C   C199      1.0  0.8461799999999999  0.02868  0.09597999999999998  1.0000
  C   C200      1.0  0.0017900000000000047  0.08743  0.058869999999999985  1.0000
  C   C201      1.0  0.7355599999999999  0.96317  0.21226  1.0000
  C   C202      1.0  0.64271  0.9659699999999999  0.24634999999999996  1.0000
  C   C203      1.0  0.5618900000000001  0.9476399999999999  0.2367  1.0000
  C   C204      1.0  0.5786300000000002  0.92919  0.19160999999999995  1.0000
  C   C205      1.0  0.67582  0.92692  0.15984  1.0000
  C   C206      1.0  0.46399999999999986  0.9491500000000002  0.27344999999999997  1.0000
  C   C207      1.0  0.4676799999999998  0.9453299999999999  0.32117  1.0000
  C   C208      1.0  0.37520000000000003  0.94683  0.3555699999999999  1.0000
  C   C209      1.0  0.2760799999999999  0.95516  0.29914  1.0000
  C   C210      1.0  0.3649699999999998  0.95491  0.26264  1.0000
  C   C211      1.0  0.23053000000000018  0.6313199999999998  0.24454  1.0000
  C   C212      1.0  0.23395000000000002  0.61653  0.29137  1.0000
  C   C213      1.0  0.3256899999999999  0.61683  0.30708999999999986  1.0000
  C   C214      1.0  0.40873  0.63299  0.27699999999999997  1.0000
  C   C215      1.0  0.4051900000000001  0.64725  0.23097999999999994  1.0000
  C   C216      1.0  0.31637000000000004  0.64586  0.21472999999999995  1.0000
  C   C217      1.0  0.13793999999999998  0.63089  0.22525999999999993  1.0000
  C   C218      1.0  0.14672  0.60032  0.18822  1.0000
  C   C219      1.0  0.05316000000000001  0.59781  0.17501999999999995  1.0000
  C   C220      1.0  0.9571699999999999  0.62914  0.19358  1.0000
  C   C221      1.0  0.95015  0.6603599999999998  0.22895  1.0000
  C   C222      1.0  0.03939999999999995  0.66003  0.24566  1.0000
  C   C223      1.0  0.33710000000000007  0.59851  0.35540999999999995  1.0000
  C   C224      1.0  0.14184999999999984  0.59961  0.32298  1.0000
  C   C225      1.0  0.25412000000000007  0.56974  0.16354999999999997  1.0000
  C   C226      1.0  0.04661000000000002  0.55418  0.15269  1.0000
  C   C227      1.0  0.6766099999999999  0.45896  0.32953  1.0000
  C   C228      1.0  0.6429499999999999  0.46048  0.37885999999999986  1.0000
  C   C229      1.0  0.71461  0.44045999999999996  0.40727999999999986  1.0000
  C   C230      1.0  0.8217099999999998  0.42304  0.38562999999999986  1.0000
  C   C231      1.0  0.8544600000000001  0.42336  0.3363099999999999  1.0000
  C   C232      1.0  0.78178  0.44027  0.3083499999999999  1.0000
  C   C233      1.0  0.06797000000000003  0.39891  0.43489999999999995  1.0000
  C   C234      1.0  0.9787499999999997  0.42402  0.41873  1.0000
  C   C235      1.0  0.9042400000000005  0.40027999999999997  0.41143  1.0000
  C   C236      1.0  0.91797  0.35209  0.42153  1.0000
  C   C237      1.0  0.005649999999999982  0.32738  0.43815  1.0000
  C   C238      1.0  0.08067000000000014  0.35037999999999997  0.4446599999999999  1.0000
  C   C239      1.0  0.53417  0.48943  0.39898  1.0000
  C   C240      1.0  0.6749899999999999  0.43404999999999994  0.4592099999999999  1.0000
  C   C241      1.0  0.96553  0.47536  0.4077199999999999  1.0000
  C   C242      1.0  0.1531100000000001  0.42132  0.44063999999999987  1.0000
  C   C243      1.0  0.9103600000000001  0.54607  0.2866999999999999  1.0000
  C   C244      1.0  0.85985  0.54023  0.25199  1.0000
  C   C245      1.0  0.7489699999999999  0.55387  0.26079  1.0000
  C   C246      1.0  0.6954599999999999  0.57072  0.3061  1.0000
  C   C247      1.0  0.7527200000000001  0.57489  0.33913  1.0000
  C   C248      1.0  0.6939599999999998  0.54961  0.22346999999999995  1.0000
  C   C249      1.0  0.7446399999999999  0.55187  0.17568  1.0000
  C   C250      1.0  0.6912700000000002  0.54817  0.14109  1.0000
  C   C251      1.0  0.5419300000000001  0.54016  0.19717999999999997  1.0000
  C   C252      1.0  0.59036  0.54272  0.23392999999999994  1.0000
  C   C253      1.0  0.4773599999999997  0.25708  0.63402  1.0000
  C   C254      1.0  0.52714  0.21263  0.61358  1.0000
  C   C255      1.0  0.6357500000000001  0.19557999999999998  0.61204  1.0000
  C   C256      1.0  0.6900200000000001  0.22246999999999997  0.6308499999999998  1.0000
  C   C257      1.0  0.6408199999999997  0.26644  0.6502799999999997  1.0000
  C   C258      1.0  0.5340800000000001  0.28377  0.6514199999999998  1.0000
  C   C259      1.0  0.36481000000000013  0.27759  0.6348799999999998  1.0000
  C   C260      1.0  0.33858000000000005  0.31417999999999996  0.60293  1.0000
  C   C261      1.0  0.23257  0.32679999999999987  0.5982999999999998  1.0000
  C   C262      1.0  0.15357000000000015  0.30886  0.6296699999999997  1.0000
  C   C263      1.0  0.18001000000000011  0.27484  0.6631099999999998  1.0000
  C   C264      1.0  0.28584  0.25803  0.66432  1.0000
  C   C265      1.0  0.6962999999999998  0.14877  0.5906399999999998  1.0000
  C   C266      1.0  0.46386  0.18515  0.59367  1.0000
  C   C267      1.0  0.42658000000000007  0.33648  0.57266  1.0000
  C   C268      1.0  0.20507  0.34753999999999996  0.5534  1.0000
  C   C269      1.0  0.99312  0.16418  0.46015  1.0000
  C   C270      1.0  0.010210000000000021  0.11509999999999997  0.45703999999999995  1.0000
  C   C271      1.0  0.11229  0.08762  0.43852  1.0000
  C   C272      1.0  0.19791999999999998  0.10943  0.4277399999999999  1.0000
  C   C273      1.0  0.18039  0.1582  0.4326899999999999  1.0000
  C   C274      1.0  0.07807000000000008  0.18558999999999998  0.4478899999999999  1.0000
  C   C275      1.0  0.49439000000000005  0.060919999999999995  0.40539999999999987  1.0000
  C   C276      1.0  0.38917  0.07745  0.4306  1.0000
  C   C277      1.0  0.30759000000000003  0.08419000000000001  0.4064599999999999  1.0000
  C   C278      1.0  0.33172  0.07376  0.35803  1.0000
  C   C279      1.0  0.43616000000000005  0.0577  0.33322  1.0000
  C   C280      1.0  0.5174  0.05137999999999999  0.3566499999999999  1.0000
  C   C281      1.0  0.91961  0.09387  0.48110999999999987  1.0000
  C   C282      1.0  0.13118000000000002  0.03605  0.4297499999999999  1.0000
  C   C283      1.0  0.36607000000000006  0.08871  0.48198  1.0000
  C   C284      1.0  0.58789  0.05275  0.42658  1.0000
  C   C285      1.0  0.19393000000000002  0.21438999999999997  0.55087  1.0000
  C   C286      1.0  0.10817999999999998  0.24845  0.54337  1.0000
  C   C287      1.0  0.007240000000000036  0.23857  0.5544399999999999  1.0000
  C   C288      1.0  0.0013200000000000399  0.19265999999999997  0.56983  1.0000
  C   C289      1.0  0.09288000000000003  0.16015000000000001  0.575  1.0000
  C   C290      1.0  0.9147799999999997  0.27597  0.5491  1.0000
  C   C291      1.0  0.9168299999999996  0.32339  0.55184  1.0000
  C   C292      1.0  0.8292699999999998  0.35834  0.5472099999999999  1.0000
  C   C293      1.0  0.73717  0.30323  0.5377499999999998  1.0000
  C   C294      1.0  0.8227399999999999  0.26626  0.54078  1.0000
  C   C295      1.0  0.3623800000000001  0.24842  0.8699499999999998  1.0000
  C   C296      1.0  0.35458999999999985  0.2945  0.8849699999999999  1.0000
  C   C297      1.0  0.44853000000000004  0.3087499999999999  0.8843699999999998  1.0000
  C   C298      1.0  0.54695  0.27869  0.8673799999999998  1.0000
  C   C299      1.0  0.55478  0.23390999999999995  0.85166  1.0000
  C   C300      1.0  0.46271000000000007  0.21875999999999995  0.85372  1.0000
  C   C301      1.0  0.26753  0.22971  0.8713499999999998  1.0000
  C   C302      1.0  0.24721  0.19059  0.90018  1.0000
  C   C303      1.0  0.15720000000000006  0.17372  0.89902  1.0000
  C   C304      1.0  0.09354000000000005  0.19366999999999998  0.8679099999999997  1.0000
  C   C305      1.0  0.11258  0.23267999999999997  0.84029  1.0000
  C   C306      1.0  0.1980800000000001  0.25105  0.8427399999999998  1.0000
  C   C307      1.0  0.44131999999999993  0.35608  0.9036999999999997  1.0000
  C   C308      1.0  0.24685  0.3272  0.90341  1.0000
  C   C309      1.0  0.3250600000000001  0.16541  0.9294799999999998  1.0000
  C   C310      1.0  0.12301999999999999  0.13753  0.9351299999999999  1.0000
  C   C311      1.0  0.6196099999999999  0.3323  0.04158999999999999  1.0000
  C   C312      1.0  0.58667  0.38151  0.04205999999999999  1.0000
  C   C313      1.0  0.6398  0.40879  0.06171  1.0000
  C   C314      1.0  0.73178  0.38627  0.07652  1.0000
  C   C315      1.0  0.7665699999999999  0.33726  0.07375  1.0000
  C   C316      1.0  0.7093099999999998  0.31022  0.05729  1.0000
  C   C317      1.0  0.9528399999999998  0.43442  0.10144999999999997  1.0000
  C   C318      1.0  0.8910400000000002  0.41842999999999997  0.07561  1.0000
  C   C319      1.0  0.7913199999999998  0.41135  0.09910999999999998  1.0000
  C   C320      1.0  0.7522799999999997  0.42225  0.14717  1.0000
  C   C321      1.0  0.8123599999999997  0.43939  0.17227999999999993  1.0000
  C   C322      1.0  0.9126299999999999  0.44502999999999987  0.14983999999999995  1.0000
  C   C323      1.0  0.50413  0.40304  0.015229999999999999  1.0000
  C   C324      1.0  0.5960199999999998  0.46054  0.06859  1.0000
  C   C325      1.0  0.9329999999999998  0.40835999999999995  0.02401  1.0000
  C   C326      1.0  0.062340000000000055  0.44004  0.08049999999999997  1.0000
  C   C327      1.0  0.9696499999999999  0.28357  0.94645  1.0000
  C   C328      1.0  0.9117200000000001  0.24934  0.9511899999999999  1.0000
  C   C329      1.0  0.80958  0.26078  0.94255  1.0000
  C   C330      1.0  0.7694999999999997  0.3079299999999999  0.93168  1.0000
  C   C331      1.0  0.8316799999999996  0.34048  0.9291  1.0000
  C   C332      1.0  0.7496300000000004  0.22386  0.9449299999999998  1.0000
  C   C333      1.0  0.8026600000000002  0.17671  0.9368199999999998  1.0000
  C   C334      1.0  0.7448200000000003  0.14252  0.9393499999999998  1.0000
  C   C335      1.0  0.5868000000000002  0.19767  0.9572099999999998  1.0000
  C   C336      1.0  0.63845  0.23397  0.9560299999999998  1.0000
  N   N1        1.0  0.24524000000000007  0.05582999999999999  0.8322499999999998  1.0000
  N   N2        1.0  0.71774  0.04910000000000001  0.6566499999999997  1.0000
  N   N3        1.0  0.1468  0.43921  0.66719  1.0000
  N   N4        1.0  0.41945000000000016  0.45721  0.8445499999999998  1.0000
  N   N5        1.0  0.80984  0.8290199999999998  0.4313899999999999  1.0000
  N   N6        1.0  0.25903000000000004  0.65325  0.46039  1.0000
  N   N7        1.0  0.06977999999999995  0.6719  0.06457  1.0000
  N   N8        1.0  0.3586799999999998  0.84984  0.05041999999999999  1.0000
  N   N9        1.0  0.7548399999999995  0.94248  0.17038  1.0000
  N   N10       1.0  0.2807700000000001  0.9508599999999999  0.34483  1.0000
  N   N11       1.0  0.8595099999999999  0.56399  0.32944  1.0000
  N   N12       1.0  0.5905  0.54333  0.15140999999999993  1.0000
  N   N13       1.0  0.18815  0.17102  0.56727  1.0000
  N   N14       1.0  0.7394499999999999  0.34853  0.5414399999999998  1.0000
  N   N15       1.0  0.9317100000000001  0.3285699999999999  0.9350999999999998  1.0000
  N   N16       1.0  0.6382499999999999  0.15262  0.94848  1.0000
  O   O1        1.0  0.9999  0.04626  0.8011499999999998  1.0000
  O   O2        1.0  0.9498300000000001  0.10892  0.8467599999999997  1.0000
  O   O3        1.0  0.7744200000000001  0.06526  0.87112  1.0000
  O   O4        1.0  0.6062200000000001  0.0946  0.86377  1.0000
  O   O5        1.0  0.9741799999999999  0.03881  0.68515  1.0000
  O   O6        1.0  0.9792299999999999  0.09031  0.62513  1.0000
  O   O7        1.0  0.22669  0.013780000000000002  0.67609  1.0000
  O   O8        1.0  0.3242399999999999  0.05359  0.6227  1.0000
  O   O9        1.0  0.3421500000000001  0.94231  0.9907499999999998  1.0000
  O   O10       1.0  0.51565  0.9137699999999999  0.98122  1.0000
  O   O11       1.0  0.53153  0.013350000000000002  0.94047  1.0000
  O   O12       1.0  0.6906499999999999  0.97622  0.89792  1.0000
  O   O13       1.0  0.10159000000000021  0.97949  0.87522  1.0000
  O   O14       1.0  0.18088000000000026  0.9998699999999999  0.9277599999999998  1.0000
  O   O15       1.0  0.9539999999999997  0.88946  0.9232399999999997  1.0000
  O   O16       1.0  0.9585799999999999  0.9466  0.9675299999999998  1.0000
  O   O17       1.0  0.8702700000000001  0.44572  0.69577  1.0000
  O   O18       1.0  0.92408  0.3842  0.6488199999999997  1.0000
  O   O19       1.0  0.7321399999999999  0.4279  0.62269  1.0000
  O   O20       1.0  0.58351  0.40062  0.63186  1.0000
  O   O21       1.0  0.7019399999999997  0.46081999999999995  0.8133599999999999  1.0000
  O   O22       1.0  0.6968599999999999  0.41331  0.87686  1.0000
  O   O23       1.0  0.9226400000000002  0.48271  0.8215899999999998  1.0000
  O   O24       1.0  0.0002600000000001092  0.44453  0.8774599999999998  1.0000
  O   O25       1.0  0.26805999999999996  0.55748  0.5115  1.0000
  O   O26       1.0  0.4026499999999999  0.58304  0.52526  1.0000
  O   O27       1.0  0.46584999999999993  0.48165  0.56686  1.0000
  O   O28       1.0  0.5408  0.51513  0.61359  1.0000
  O   O29       1.0  0.9527900000000004  0.51263  0.6202799999999998  1.0000
  O   O30       1.0  0.11570000000000005  0.4977  0.57387  1.0000
  O   O31       1.0  0.7483599999999999  0.60021  0.58077  1.0000
  O   O32       1.0  0.86308  0.54803  0.53244  1.0000
  O   O33       1.0  0.55623  0.80316  0.4469599999999999  1.0000
  O   O34       1.0  0.5711399999999995  0.84674  0.38185  1.0000
  O   O35       1.0  0.3508400000000001  0.8726099999999999  0.42932  1.0000
  O   O36       1.0  0.20663000000000017  0.86367  0.4054899999999999  1.0000
  O   O37       1.0  0.5061300000000001  0.6873499999999999  0.4608299999999999  1.0000
  O   O38       1.0  0.5701799999999999  0.6226  0.41647  1.0000
  O   O39       1.0  0.7365099999999999  0.6758400000000001  0.48399999999999993  1.0000
  O   O40       1.0  0.8726900000000001  0.62046  0.44648  1.0000
  O   O41       1.0  0.7839499999999998  0.9909699999999999  0.5670699999999997  1.0000
  O   O42       1.0  0.9405199999999999  0.97876  0.5857299999999999  1.0000
  O   O43       1.0  0.0734400000000001  0.93767  0.4908399999999999  1.0000
  O   O44       1.0  0.16809000000000004  0.89121  0.5372  1.0000
  O   O45       1.0  0.5662999999999999  0.89345  0.5043  1.0000
  O   O46       1.0  0.71722  0.91853  0.48985999999999996  1.0000
  O   O47       1.0  0.3434099999999999  0.92625  0.5855199999999998  1.0000
  O   O48       1.0  0.40397  0.981  0.53985  1.0000
  O   O49       1.0  0.8029199999999997  0.6830199999999998  0.05233  1.0000
  O   O50       1.0  0.7926299999999997  0.64566  0.12067999999999997  1.0000
  O   O51       1.0  0.6367399999999998  0.62259  0.07426  1.0000
  O   O52       1.0  0.46114999999999984  0.63227  0.10633  1.0000
  O   O53       1.0  0.66178  0.81659  0.03259999999999999  1.0000
  O   O54       1.0  0.61728  0.87523  0.08321999999999997  1.0000
  O   O55       1.0  0.8675699999999998  0.85374  0.023119999999999995  1.0000
  O   O56       1.0  0.9527599999999999  0.88013  0.07056  1.0000
  O   O57       1.0  0.33811  0.51374  0.9376  1.0000
  O   O58       1.0  0.4994999999999998  0.52767  0.91437  1.0000
  O   O59       1.0  0.45978  0.56822  0.01486  1.0000
  O   O60       1.0  0.5642699999999999  0.61731  0.98069  1.0000
  O   O61       1.0  0.96943  0.61812  0.98648  1.0000
  O   O62       1.0  0.12106999999999998  0.57647  0.0018299999999999996  1.0000
  O   O63       1.0  0.8628399999999998  0.57667  0.89854  1.0000
  O   O64       1.0  0.9244799999999999  0.52898  0.95171  1.0000
  O   O65       1.0  0.99936  0.94926  0.1992  1.0000
  O   O66       1.0  0.05523999999999996  0.88611  0.1547  1.0000
  O   O67       1.0  0.22781999999999994  0.93287  0.13171  1.0000
  O   O68       1.0  0.3960300000000001  0.90267  0.13858999999999994  1.0000
  O   O69       1.0  0.02407000000000005  0.96206  0.3155399999999999  1.0000
  O   O70       1.0  0.02095999999999997  0.90999  0.37522  1.0000
  O   O71       1.0  0.77323  0.98607  0.32365  1.0000
  O   O72       1.0  0.6726  0.94634  0.37577  1.0000
  O   O73       1.0  0.65076  0.06199  0.00978  1.0000
  O   O74       1.0  0.47617  0.09035  0.022579999999999992  1.0000
  O   O75       1.0  0.4591999999999998  0.99017  0.06241  1.0000
  O   O76       1.0  0.30342  0.02841  0.10665  1.0000
  O   O77       1.0  0.904  0.0184  0.1263  1.0000
  O   O78       1.0  0.8186299999999997  0.9980299999999998  0.07642  1.0000
  O   O79       1.0  0.051120000000000006  0.11093  0.07668  1.0000
  O   O80       1.0  0.05031000000000001  0.050409999999999996  0.03646999999999999  1.0000
  O   O81       1.0  0.12552  0.55845  0.31466  1.0000
  O   O82       1.0  0.07474000000000004  0.62464  0.35421999999999987  1.0000
  O   O83       1.0  0.26916  0.57834  0.37931  1.0000
  O   O84       1.0  0.41809999999999997  0.60597  0.36808999999999986  1.0000
  O   O85       1.0  0.30055  0.53472  0.18745999999999996  1.0000
  O   O86       1.0  0.29654  0.57905  0.12280999999999997  1.0000
  O   O87       1.0  0.08205000000000003  0.51626  0.17291999999999993  1.0000
  O   O88       1.0  0.99496  0.55745  0.12039  1.0000
  O   O89       1.0  0.72211  0.44453  0.4883399999999999  1.0000
  O   O90       1.0  0.5959099999999998  0.41481  0.47216999999999987  1.0000
  O   O91       1.0  0.52795  0.51652  0.43286  1.0000
  O   O92       1.0  0.46044  0.48851  0.3797199999999999  1.0000
  O   O93       1.0  0.04286000000000007  0.48879  0.3794399999999999  1.0000
  O   O94       1.0  0.8798299999999997  0.50349  0.4260099999999999  1.0000
  O   O95       1.0  0.24723999999999993  0.40327  0.4192199999999999  1.0000
  O   O96       1.0  0.13282  0.45629  0.46707999999999994  1.0000
  O   O97       1.0  0.4394100000000001  0.19691  0.5531399999999999  1.0000
  O   O98       1.0  0.4288099999999999  0.15263  0.61783  1.0000
  O   O99       1.0  0.6508399999999998  0.1253  0.57166  1.0000
  O   O100      1.0  0.79318  0.13638999999999998  0.59492  1.0000
  O   O101      1.0  0.49012  0.31268  0.5368799999999999  1.0000
  O   O102      1.0  0.43505999999999995  0.37507  0.58426  1.0000
  O   O103      1.0  0.25909  0.32424  0.51551  1.0000
  O   O104      1.0  0.12682999999999994  0.3813099999999999  0.55339  1.0000
  O   O105      1.0  0.21826000000000004  0.00935  0.43337  1.0000
  O   O106      1.0  0.0601  0.02092  0.41665  1.0000
  O   O107      1.0  0.9401199999999998  0.06249  0.51208  1.0000
  O   O108      1.0  0.83108  0.11053  0.47216  1.0000
  O   O109      1.0  0.43379  0.10682  0.4951799999999999  1.0000
  O   O110      1.0  0.28362000000000004  0.08124  0.50974  1.0000
  O   O111      1.0  0.6567899999999998  0.07631  0.40999999999999986  1.0000
  O   O112      1.0  0.6025100000000001  0.02106999999999999  0.4571  1.0000
  O   O113      1.0  0.19211000000000011  0.31889  0.9462899999999997  1.0000
  O   O114      1.0  0.20062999999999995  0.3567  0.87819  1.0000
  O   O115      1.0  0.35091000000000006  0.37915  0.9227999999999997  1.0000
  O   O116      1.0  0.5296300000000002  0.36836  0.89831  1.0000
  O   O117      1.0  0.3333600000000001  0.1855  0.9676499999999998  1.0000
  O   O118      1.0  0.38882  0.12857  0.9146  1.0000
  O   O119      1.0  0.16527000000000006  0.12987  0.9691  1.0000
  O   O120      1.0  0.0459500000000001  0.12039000000000001  0.9284599999999997  1.0000
  O   O121      1.0  0.6572499999999999  0.48854  0.057679999999999995  1.0000
  O   O122      1.0  0.49768  0.47454  0.08755999999999997  1.0000
  O   O123      1.0  0.5266500000000001  0.43584999999999996  0.9862399999999998  1.0000
  O   O124      1.0  0.42510999999999993  0.38575  0.0203  1.0000
  O   O125      1.0  0.02872999999999998  0.38438  0.0111  1.0000
  O   O126      1.0  0.8749899999999994  0.42342  0.99533  1.0000
  O   O127      1.0  0.13635  0.41474  0.09717999999999999  1.0000
  O   O128      1.0  0.08072999999999997  0.4701  0.048789999999999986  1.0000
