data_image0
_chemical_formula_structural       Cd24H332C576O96
_chemical_formula_sum              "Cd24 H332 C576 O96"
_cell_length_a       13.84256
_cell_length_b       33.91799
_cell_length_c       42.87776
_cell_angle_alpha    90.00227
_cell_angle_beta     90.03032
_cell_angle_gamma    89.98288000000001

_symmetry_space_group_name_H-M    'P 1'
_symmetry_Int_Tables_number       1

loop_
  _symmetry_equiv_pos_as_xyz
  'x,y,z'

loop_
  _atom_site_type_symbol
  _atom_site_label
  _atom_site_symmetry_multiplicity
  _atom_site_fract_x
  _atom_site_fract_y
  _atom_site_fract_z
  _atom_site_occupancy
  Cd  Cd1       1.0  0.52981  0.19638  0.18307  1.0000
  Cd  Cd2       1.0  0.81701  0.7015000000000002  0.36342  1.0000
  Cd  Cd3       1.0  0.02661  0.6957  0.3165799999999999  1.0000
  Cd  Cd4       1.0  0.31788  0.20187  0.13652  1.0000
  Cd  Cd5       1.0  0.4720300000000001  0.69592  0.81665  1.0000
  Cd  Cd6       1.0  0.10508000000000003  0.2298  0.14986  1.0000
  Cd  Cd7       1.0  0.6823100000000001  0.70186  0.86327  1.0000
  Cd  Cd8       1.0  0.8942300000000002  0.72988  0.8497799999999999  1.0000
  Cd  Cd9       1.0  0.39507000000000003  0.2299  0.65  1.0000
  Cd  Cd10      1.0  0.6057200000000003  0.72944  0.34929  1.0000
  Cd  Cd11      1.0  0.18225000000000002  0.20157  0.63661  1.0000
  Cd  Cd12      1.0  0.9704500000000003  0.19644  0.68358  1.0000
  Cd  Cd13      1.0  0.09086  0.00976  0.8225299999999999  1.0000
  Cd  Cd14      1.0  0.64029  0.009190000000000002  0.36429  1.0000
  Cd  Cd15      1.0  0.40914  0.00974  0.32254  1.0000
  Cd  Cd16      1.0  0.85086  0.9913799999999999  0.34132  1.0000
  Cd  Cd17      1.0  0.8596  0.009290000000000001  0.86425  1.0000
  Cd  Cd18      1.0  0.64938  0.9915000000000002  0.8414  1.0000
  Cd  Cd19      1.0  0.14808  0.49130999999999997  0.65803  1.0000
  Cd  Cd20      1.0  0.35776  0.51155  0.6358  1.0000
  Cd  Cd21      1.0  0.9118000000000003  0.51049  0.17784999999999998  1.0000
  Cd  Cd22      1.0  0.58704  0.50976  0.67759  1.0000
  Cd  Cd23      1.0  0.35108  0.49121000000000004  0.15827  1.0000
  Cd  Cd24      1.0  0.14264  0.51142  0.13589  1.0000
  H   H1        1.0  0.28500000000000003  0.78434  0.75533  1.0000
  H   H2        1.0  0.66843  0.06255  0.63858  1.0000
  H   H3        1.0  0.5846200000000001  0.91947  0.53723  1.0000
  H   H4        1.0  0.24203000000000005  0.79353  0.9421  1.0000
  H   H5        1.0  0.5772200000000001  0.96129  0.5625  1.0000
  H   H6        1.0  0.65981  0.4432300000000001  0.96126  1.0000
  H   H7        1.0  0.7578800000000002  0.29361  0.05816  1.0000
  H   H8        1.0  0.7769500000000003  0.3923200000000001  0.34708999999999995  1.0000
  H   H9        1.0  0.4020100000000001  0.90086  0.14829  1.0000
  H   H10       1.0  0.25761000000000006  0.79291  0.44178999999999996  1.0000
  H   H11       1.0  0.19524000000000002  0.76183  0.39279  1.0000
  H   H12       1.0  0.22799000000000003  0.7622  0.07631  1.0000
  H   H13       1.0  0.38818  0.6825400000000003  0.7061899999999999  1.0000
  H   H14       1.0  0.11179  0.68178  0.20557  1.0000
  H   H15       1.0  0.6959700000000002  0.93971  0.6766199999999999  1.0000
  H   H16       1.0  0.58249  0.71841  0.75345  1.0000
  H   H17       1.0  0.9228000000000002  0.9612800000000001  0.06255  1.0000
  H   H18       1.0  0.42067000000000004  0.21890000000000004  0.24617  1.0000
  H   H19       1.0  0.65337  0.60173  0.90446  1.0000
  H   H20       1.0  0.40427000000000013  0.27916  0.07563  1.0000
  H   H21       1.0  0.69547  0.26158  0.10680999999999999  1.0000
  H   H22       1.0  0.57051  0.41305  0.97886  1.0000
  H   H23       1.0  0.4741  0.55976  0.8299  1.0000
  H   H24       1.0  0.8513500000000003  0.89441  0.19077999999999998  1.0000
  H   H25       1.0  0.19227000000000005  0.9067300000000003  0.51038  1.0000
  H   H26       1.0  0.18878  0.08033  0.14045  1.0000
  H   H27       1.0  0.8398900000000002  0.443  0.46142  1.0000
  H   H28       1.0  0.8316200000000002  0.06259000000000003  0.13858  1.0000
  H   H29       1.0  0.03497  0.30822  0.52612  1.0000
  H   H30       1.0  0.0696  0.91307  0.52126  1.0000
  H   H31       1.0  0.21483000000000005  0.811  0.70581  1.0000
  H   H32       1.0  0.42996  0.43164  0.32417999999999997  1.0000
  H   H33       1.0  0.23552  0.2670900000000001  0.48917999999999995  1.0000
  H   H34       1.0  0.92944  0.41288  0.47898  1.0000
  H   H35       1.0  0.26431  0.26726  0.9890799999999998  1.0000
  H   H36       1.0  0.59783  0.40115  0.8519499999999999  1.0000
  H   H37       1.0  0.76419  0.7674  0.51102  1.0000
  H   H38       1.0  0.78004  0.28389  0.74434  1.0000
  H   H39       1.0  0.23502000000000006  0.2343  0.54127  1.0000
  H   H40       1.0  0.27697  0.89236  0.15319  1.0000
  H   H41       1.0  0.7411700000000002  0.79766  0.08388  1.0000
  H   H42       1.0  0.28213  0.81094  0.20653999999999997  1.0000
  H   H43       1.0  0.90467  0.8624000000000002  0.9721799999999999  1.0000
  H   H44       1.0  0.16698  0.56226  0.86158  1.0000
  H   H45       1.0  0.9039800000000001  0.77936  0.4240399999999999  1.0000
  H   H46       1.0  0.07936  0.21901  0.74628  1.0000
  H   H47       1.0  0.18226  0.70845  0.15639  1.0000
  H   H48       1.0  0.36429  0.28595  0.40989999999999993  1.0000
  H   H49       1.0  0.7420500000000001  0.29298  0.55826  1.0000
  H   H50       1.0  0.90175  0.40118  0.35214  1.0000
  H   H51       1.0  0.40307  0.36267  0.52759  1.0000
  H   H52       1.0  0.85334  0.25402000000000013  0.42609  1.0000
  H   H53       1.0  0.8097500000000001  0.94658  0.04741  1.0000
  H   H54       1.0  0.49896  0.99102  0.15257999999999997  1.0000
  H   H55       1.0  0.6355200000000001  0.7862000000000002  0.58958  1.0000
  H   H56       1.0  0.6150000000000002  0.18272  0.29308999999999996  1.0000
  H   H57       1.0  0.7364400000000001  0.7672500000000002  0.01093  1.0000
  H   H58       1.0  0.72267  0.39233  0.84696  1.0000
  H   H59       1.0  0.86456  0.78623  0.08969  1.0000
  H   H60       1.0  0.4148900000000001  0.4190500000000001  0.46247999999999995  1.0000
  H   H61       1.0  0.8800300000000002  0.5141700000000001  0.87032  1.0000
  H   H62       1.0  0.84623  0.60168  0.40441  1.0000
  H   H63       1.0  0.18599000000000004  0.03211  0.57825  1.0000
  H   H64       1.0  0.57373  0.75425  0.70314  1.0000
  H   H65       1.0  0.8039900000000002  0.93981  0.17667  1.0000
  H   H66       1.0  0.4288500000000001  0.25506000000000006  0.2963799999999999  1.0000
  H   H67       1.0  0.22304  0.89232  0.65288  1.0000
  H   H68       1.0  0.8047800000000002  0.26198  0.60726  1.0000
  H   H69       1.0  0.6486700000000001  0.8943100000000003  0.69069  1.0000
  H   H70       1.0  0.3181  0.70838  0.6566  1.0000
  H   H71       1.0  0.7202700000000001  0.2842100000000001  0.24408  1.0000
  H   H72       1.0  0.4028700000000001  0.62844  0.35042  1.0000
  H   H73       1.0  0.33172000000000007  0.56236  0.36144  1.0000
  H   H74       1.0  0.9742800000000001  0.06047000000000001  0.66944  1.0000
  H   H75       1.0  0.02476  0.55945  0.3297999999999999  1.0000
  H   H76       1.0  0.28834000000000004  0.76728  0.03962  1.0000
  H   H77       1.0  0.19012  0.44636000000000003  0.9523899999999998  1.0000
  H   H78       1.0  0.30348  0.76171  0.8933  1.0000
  H   H79       1.0  0.7885100000000002  0.3111  0.2938  1.0000
  H   H80       1.0  0.71124  0.31087  0.79396  1.0000
  H   H81       1.0  0.42241  0.46096  0.43731  1.0000
  H   H82       1.0  0.63901  0.3536900000000001  0.8398999999999999  1.0000
  H   H83       1.0  0.14645000000000005  0.7540400000000003  0.5738  1.0000
  H   H84       1.0  0.31129000000000007  0.08033  0.64048  1.0000
  H   H85       1.0  0.59525  0.77877  0.92424  1.0000
  H   H86       1.0  0.80655  0.4066300000000001  0.48963  1.0000
  H   H87       1.0  0.73529  0.73423  0.95892  1.0000
  H   H88       1.0  0.36014  0.8535  0.16034  1.0000
  H   H89       1.0  0.9047200000000002  0.82887  0.92071  1.0000
  H   H90       1.0  0.19556000000000007  0.4400900000000001  0.8231499999999999  1.0000
  H   H91       1.0  0.07124  0.2553  0.7963899999999999  1.0000
  H   H92       1.0  0.82562  0.82196  0.72865  1.0000
  H   H93       1.0  0.7163600000000002  0.7859200000000001  0.6219  1.0000
  H   H94       1.0  0.7880700000000002  0.26705  0.46042999999999995  1.0000
  H   H95       1.0  0.25899  0.29783  0.9156699999999999  1.0000
  H   H96       1.0  0.09582  0.27936  0.57584  1.0000
  H   H97       1.0  0.14783000000000002  0.3948600000000001  0.8088699999999999  1.0000
  H   H98       1.0  0.34050000000000014  0.94321  0.03907  1.0000
  H   H99       1.0  0.07727000000000002  0.46134  0.9372199999999999  1.0000
  H   H100      1.0  0.68331  0.5325  0.9219499999999999  1.0000
  H   H101      1.0  0.78382  0.7859300000000001  0.122  1.0000
  H   H102      1.0  0.3514500000000001  0.39444  0.30893  1.0000
  H   H103      1.0  0.46461  0.30877  0.02608  1.0000
  H   H104      1.0  0.7726  0.26238000000000006  0.9237899999999999  1.0000
  H   H105      1.0  0.09674000000000003  0.36282  0.027519999999999996  1.0000
  H   H106      1.0  0.27225000000000005  0.76221  0.57627  1.0000
  H   H107      1.0  0.17177  0.28752  0.21949  1.0000
  H   H108      1.0  0.52626  0.06101000000000001  0.16932  1.0000
  H   H109      1.0  0.2835  0.28574  0.37757  1.0000
  H   H110      1.0  0.92592  0.7541800000000002  0.20315  1.0000
  H   H111      1.0  0.6184  0.5137  0.3700399999999999  1.0000
  H   H112      1.0  0.8608000000000002  0.35373  0.33999  1.0000
  H   H113      1.0  0.50139  0.49010000000000004  0.84755  1.0000
  H   H114      1.0  0.09797000000000002  0.9008200000000001  0.6480099999999999  1.0000
  H   H115      1.0  0.67208  0.7889400000000002  0.28040999999999994  1.0000
  H   H116      1.0  0.3444  0.10143000000000003  0.09489  1.0000
  H   H117      1.0  0.71189  0.26725  0.96046  1.0000
  H   H118      1.0  0.30392  0.43974  0.32313  1.0000
  H   H119      1.0  0.06946  0.4321  0.8241499999999999  1.0000
  H   H120      1.0  0.3282000000000001  0.28752  0.71952  1.0000
  H   H121      1.0  0.6901700000000002  0.94657  0.54731  1.0000
  H   H122      1.0  0.08435  0.41943  0.9624099999999999  1.0000
  H   H123      1.0  0.13996  0.85347  0.66006  1.0000
  H   H124      1.0  0.21196  0.76702  0.53951  1.0000
  H   H125      1.0  0.64675  0.25421000000000005  0.9260699999999998  1.0000
  H   H126      1.0  0.59556  0.86199  0.47135  1.0000
  H   H127      1.0  0.21087000000000006  0.78352  0.2556  1.0000
  H   H128      1.0  0.81637  0.20856  0.8432699999999999  1.0000
  H   H129      1.0  0.17391000000000006  0.32107  0.27105  1.0000
  H   H130      1.0  0.26478000000000007  0.23441  0.04114  1.0000
  H   H131      1.0  0.40411000000000014  0.32928  0.57914  1.0000
  H   H132      1.0  0.81616  0.53253  0.42199  1.0000
  H   H133      1.0  0.15961  0.94308  0.5387199999999999  1.0000
  H   H134      1.0  0.30938  0.44615  0.45238  1.0000
  H   H135      1.0  0.5700000000000001  0.93152  0.67555  1.0000
  H   H136      1.0  0.30741000000000007  0.90692  0.01074  1.0000
  H   H137      1.0  0.67449  0.82209  0.22868999999999998  1.0000
  H   H138      1.0  0.35387000000000013  0.75414  0.07387  1.0000
  H   H139      1.0  0.24096  0.29743  0.4157  1.0000
  H   H140      1.0  0.21642000000000006  0.28609  0.8775399999999999  1.0000
  H   H141      1.0  0.9171100000000002  0.7182300000000003  0.25342  1.0000
  H   H142      1.0  0.90281  0.12865  0.14968  1.0000
  H   H143      1.0  0.00274  0.9906400000000001  0.65258  1.0000
  H   H144      1.0  0.53569  0.80831  0.97384  1.0000
  H   H145      1.0  0.9151900000000002  0.91942  0.03734  1.0000
  H   H146      1.0  0.3818900000000001  0.01388  0.63006  1.0000
  H   H147      1.0  0.59556  0.82767  0.42028999999999994  1.0000
  H   H148      1.0  0.9973400000000002  0.48985000000000006  0.34753  1.0000
  H   H149      1.0  0.09565000000000003  0.32938  0.07904  1.0000
  H   H150      1.0  0.7274700000000002  0.26219  0.42371999999999993  1.0000
  H   H151      1.0  0.75891  0.7976  0.58377  1.0000
  H   H152      1.0  0.6934900000000003  0.4068900000000001  0.98948  1.0000
  H   H153      1.0  0.92999  0.93161  0.17564  1.0000
  H   H154      1.0  0.8850700000000002  0.18247  0.79355  1.0000
  H   H155      1.0  0.59727  0.12861000000000006  0.64969  1.0000
  H   H156      1.0  0.9645400000000002  0.80831  0.47374  1.0000
  H   H157      1.0  0.68321  0.20876  0.34289  1.0000
  H   H158      1.0  0.11816000000000002  0.01388  0.13001  1.0000
  H   H159      1.0  0.81009  0.58081  0.85985  1.0000
  H   H160      1.0  0.7656  0.73372  0.45929999999999993  1.0000
  H   H161      1.0  0.43022  0.91315  0.02153  1.0000
  H   H162      1.0  0.6888800000000002  0.58023  0.35969  1.0000
  H   H163      1.0  0.8280500000000002  0.7888100000000002  0.78037  1.0000
  H   H164      1.0  0.09655000000000002  0.62848  0.85047  1.0000
  H   H165      1.0  0.32612  0.32118  0.77102  1.0000
  H   H166      1.0  0.31424000000000013  0.03189  0.07826999999999999  1.0000
  H   H167      1.0  0.13573  0.28629  0.90987  1.0000
  H   H168      1.0  0.15501  0.10148  0.59491  1.0000
  H   H169      1.0  0.4279900000000001  0.96196  0.5888899999999999  1.0000
  H   H170      1.0  0.19610000000000005  0.9508100000000002  0.08559  1.0000
  H   H171      1.0  0.4165700000000001  0.14092  0.33004  1.0000
  H   H172      1.0  0.58039  0.9459400000000001  0.42235  1.0000
  H   H173      1.0  0.38663  0.28844  0.96295  1.0000
  H   H174      1.0  0.42301  0.17175  0.84354  1.0000
  H   H175      1.0  0.9428900000000002  0.93578  0.58249  1.0000
  H   H176      1.0  0.24134  0.42501  0.99537  1.0000
  H   H177      1.0  0.44660000000000005  0.93399  0.71967  1.0000
  H   H178      1.0  0.55675  0.43209  0.28032  1.0000
  H   H179      1.0  0.96256  0.7557500000000003  0.55834  1.0000
  H   H180      1.0  0.56378  0.27223  0.45088999999999996  1.0000
  H   H181      1.0  0.12135000000000003  0.9484700000000001  0.05181999999999999  1.0000
  H   H182      1.0  0.50792  0.37956  0.03287  1.0000
  H   H183      1.0  0.9833000000000002  0.9733399999999999  0.70266  1.0000
  H   H184      1.0  0.5165100000000001  0.97332  0.20264999999999997  1.0000
  H   H185      1.0  0.22269  0.9313000000000002  0.9031399999999999  1.0000
  H   H186      1.0  0.7604400000000002  0.92362  0.00454  1.0000
  H   H187      1.0  0.79479  0.95756  0.95414  1.0000
  H   H188      1.0  0.39627  0.68675  0.57736  1.0000
  H   H189      1.0  0.68136  0.92429  0.0819  1.0000
  H   H190      1.0  0.9720000000000002  0.29286  0.32931999999999995  1.0000
  H   H191      1.0  0.55566  0.92222  0.47689  1.0000
  H   H192      1.0  0.37175000000000014  0.9631000000000001  0.7675699999999999  1.0000
  H   H193      1.0  0.52796  0.29293  0.8294  1.0000
  H   H194      1.0  0.8098100000000003  0.19598  0.39171999999999996  1.0000
  H   H195      1.0  0.63091  0.30531  0.47514  1.0000
  H   H196      1.0  0.47281  0.79318  0.17057  1.0000
  H   H197      1.0  0.85558  0.51295  0.28835  1.0000
  H   H198      1.0  0.6048700000000002  0.18613  0.42223999999999995  1.0000
  H   H199      1.0  0.019330000000000007  0.8582  0.16948  1.0000
  H   H200      1.0  0.20903000000000005  0.4593700000000001  0.04574  1.0000
  H   H201      1.0  0.7167100000000001  0.4312700000000001  0.59724  1.0000
  H   H202      1.0  0.58314  0.64064  0.66962  1.0000
  H   H203      1.0  0.5889200000000002  0.11422  0.41048999999999997  1.0000
  H   H204      1.0  0.8183700000000002  0.92428  0.58192  1.0000
  H   H205      1.0  0.52026  0.35798  0.33059  1.0000
  H   H206      1.0  0.4726200000000001  0.80744  0.65867  1.0000
  H   H207      1.0  0.7445000000000003  0.91372  0.27898  1.0000
  H   H208      1.0  0.63361  0.33412  0.33273  1.0000
  H   H209      1.0  0.028610000000000003  0.41163  0.58362  1.0000
  H   H210      1.0  0.9153000000000001  0.64165  0.16991  1.0000
  H   H211      1.0  0.8662000000000002  0.33409  0.8326699999999999  1.0000
  H   H212      1.0  0.9865300000000002  0.60422  0.66891  1.0000
  H   H213      1.0  0.61408  0.78862  0.03712  1.0000
  H   H214      1.0  0.4716400000000001  0.41174  0.08366  1.0000
  H   H215      1.0  0.19058  0.6981000000000003  0.60884  1.0000
  H   H216      1.0  0.18125000000000005  0.42391  0.41795  1.0000
  H   H217      1.0  0.57131  0.4617300000000001  0.41114999999999996  1.0000
  H   H218      1.0  0.68969  0.19618  0.89182  1.0000
  H   H219      1.0  0.8952000000000002  0.18615  0.9222599999999999  1.0000
  H   H220      1.0  0.87868  0.44841  0.9482  1.0000
  H   H221      1.0  0.9964700000000002  0.30863  0.9736199999999999  1.0000
  H   H222      1.0  0.01815  0.47307999999999995  0.29737  1.0000
  H   H223      1.0  0.8692200000000002  0.3053900000000001  0.97512  1.0000
  H   H224      1.0  0.12828000000000003  0.96312  0.26756  1.0000
  H   H225      1.0  0.7053900000000001  0.95766  0.45412  1.0000
  H   H226      1.0  0.3181700000000001  0.42385  0.91791  1.0000
  H   H227      1.0  0.8038200000000001  0.4505500000000001  0.9144399999999999  1.0000
  H   H228      1.0  0.02731  0.79319  0.6706  1.0000
  H   H229      1.0  0.4819500000000001  0.47317  0.79713  1.0000
  H   H230      1.0  0.4452500000000001  0.32828  0.8137299999999998  1.0000
  H   H231      1.0  0.4326800000000001  0.21295  0.34111  1.0000
  H   H232      1.0  0.027370000000000005  0.80747  0.15864  1.0000
  H   H233      1.0  0.9923900000000001  0.37935  0.53284  1.0000
  H   H234      1.0  0.22013  0.98574  0.6639399999999999  1.0000
  H   H235      1.0  0.9278800000000003  0.46182  0.91111  1.0000
  H   H236      1.0  0.4575  0.50394  0.7454  1.0000
  H   H237      1.0  0.5567900000000001  0.9357400000000002  0.08252  1.0000
  H   H238      1.0  0.08537000000000002  0.44707  0.07731  1.0000
  H   H239      1.0  0.9452700000000002  0.82879  0.68625  1.0000
  H   H240      1.0  0.08630000000000002  0.61435  0.08938  1.0000
  H   H241      1.0  0.53908  0.00398  0.2545  1.0000
  H   H242      1.0  0.12468000000000003  0.43677  0.38208  1.0000
  H   H243      1.0  0.63359  0.46028  0.23236  1.0000
  H   H244      1.0  0.5773700000000002  0.67085  0.15534  1.0000
  H   H245      1.0  0.97947  0.3580000000000001  0.83056  1.0000
  H   H246      1.0  0.9110600000000002  0.11425  0.91047  1.0000
  H   H247      1.0  0.5036300000000001  0.30857  0.47362999999999994  1.0000
  H   H248      1.0  0.4839500000000001  0.10472  0.82996  1.0000
  H   H249      1.0  0.27738  0.9312800000000001  0.40311  1.0000
  H   H250      1.0  0.86575  0.46047  0.73221  1.0000
  H   H251      1.0  0.53771  0.7557  0.058379999999999994  1.0000
  H   H252      1.0  0.8749600000000002  0.9371800000000002  0.61777  1.0000
  H   H253      1.0  0.9323000000000002  0.71368  0.15879  1.0000
  H   H254      1.0  0.05467000000000002  0.3282000000000001  0.31368  1.0000
  H   H255      1.0  0.43992000000000003  0.42299  0.52281  1.0000
  H   H256      1.0  0.3687900000000001  0.80546  0.52507  1.0000
  H   H257      1.0  0.6954400000000002  0.45057  0.41445  1.0000
  H   H258      1.0  0.4360700000000001  0.77243  0.54933  1.0000
  H   H259      1.0  0.75008  0.12866  0.37831999999999993  1.0000
  H   H260      1.0  0.04179  0.50426  0.24581  1.0000
  H   H261      1.0  0.14571  0.01368  0.71202  1.0000
  H   H262      1.0  0.52723  0.30723  0.34147  1.0000
  H   H263      1.0  0.10360000000000003  0.6863300000000002  0.0776  1.0000
  H   H264      1.0  0.01176  0.79565  0.53631  1.0000
  H   H265      1.0  0.29084  0.4594  0.54571  1.0000
  H   H266      1.0  0.25416000000000005  0.41294  0.72108  1.0000
  H   H267      1.0  0.9443900000000002  0.9221500000000002  0.97681  1.0000
  H   H268      1.0  0.7496700000000002  0.12885  0.87832  1.0000
  H   H269      1.0  0.41448  0.44695000000000007  0.57729  1.0000
  H   H270      1.0  0.9362700000000003  0.2723  0.95088  1.0000
  H   H271      1.0  0.06407  0.77241  0.04935  1.0000
  H   H272      1.0  0.11365  0.2884  0.46285999999999994  1.0000
  H   H273      1.0  0.90283  0.78225  0.67263  1.0000
  H   H274      1.0  0.97268  0.30726  0.8414999999999999  1.0000
  H   H275      1.0  0.59731  0.78225  0.17265  1.0000
  H   H276      1.0  0.96935  0.9116900000000002  0.416  1.0000
  H   H277      1.0  0.40366  0.28165  0.82746  1.0000
  H   H278      1.0  0.24510000000000007  0.41353  0.22086  1.0000
  H   H279      1.0  0.22300000000000006  0.38232  0.27293  1.0000
  H   H280      1.0  0.07655000000000003  0.17159  0.34352  1.0000
  H   H281      1.0  0.25356  0.63124  0.62247  1.0000
  H   H282      1.0  0.62491  0.93715  0.11776999999999999  1.0000
  H   H283      1.0  0.64312  0.51301  0.78792  1.0000
  H   H284      1.0  0.3037800000000001  0.95082  0.58558  1.0000
  H   H285      1.0  0.72332  0.88314  0.22663999999999998  1.0000
  H   H286      1.0  0.24632  0.63133  0.12250999999999998  1.0000
  H   H287      1.0  0.4127900000000001  0.61465  0.5886  1.0000
  H   H288      1.0  0.4960100000000001  0.8088100000000003  0.52659  1.0000
  H   H289      1.0  0.09633  0.28158  0.32741999999999993  1.0000
  H   H290      1.0  0.05985  0.4231000000000001  0.02287  1.0000
  H   H291      1.0  0.46312  0.25548  0.9417599999999999  1.0000
  H   H292      1.0  0.7768500000000003  0.8831  0.7266599999999999  1.0000
  H   H293      1.0  0.015710000000000002  0.10455000000000003  0.33001  1.0000
  H   H294      1.0  0.7187200000000002  0.48581  0.8361299999999999  1.0000
  H   H295      1.0  0.44267  0.43538000000000004  0.9174799999999999  1.0000
  H   H296      1.0  0.51364  0.60425  0.16892  1.0000
  H   H297      1.0  0.06731  0.21296  0.84116  1.0000
  H   H298      1.0  0.9195900000000002  0.94584  0.92225  1.0000
  H   H299      1.0  0.13134  0.8054000000000001  0.02509  1.0000
  H   H300      1.0  0.48058  0.85816  0.66954  1.0000
  H   H301      1.0  0.49239  0.88003  0.96686  1.0000
  H   H302      1.0  0.5303700000000001  0.91192  0.91605  1.0000
  H   H303      1.0  0.37851000000000007  0.9484700000000001  0.55182  1.0000
  H   H304      1.0  0.51244  0.29543  0.96371  1.0000
  H   H305      1.0  0.7397700000000001  0.9237000000000001  0.50453  1.0000
  H   H306      1.0  0.007400000000000002  0.87977  0.46681999999999996  1.0000
  H   H307      1.0  0.05669  0.43534  0.41735  1.0000
  H   H308      1.0  0.9878400000000003  0.29542  0.4636799999999999  1.0000
  H   H309      1.0  0.3541900000000001  0.01366  0.21201999999999996  1.0000
  H   H310      1.0  0.053370000000000015  0.93399  0.21964999999999998  1.0000
  H   H311      1.0  0.56731  0.71276  0.65893  1.0000
  H   H312      1.0  0.96081  0.00399  0.7545099999999999  1.0000
  H   H313      1.0  0.8859500000000002  0.78866  0.53712  1.0000
  H   H314      1.0  0.92264  0.67084  0.65536  1.0000
  H   H315      1.0  0.9424800000000001  0.43233  0.7802299999999999  1.0000
  H   H316      1.0  0.036990000000000016  0.25545  0.44171  1.0000
  H   H317      1.0  0.2797  0.98568  0.16394  1.0000
  H   H318      1.0  0.55475  0.82879  0.18625  1.0000
  H   H319      1.0  0.30927  0.69814  0.10885999999999998  1.0000
  H   H320      1.0  0.77971  0.48562000000000005  0.33647  1.0000
  H   H321      1.0  0.08331  0.14093000000000006  0.83007  1.0000
  H   H322      1.0  0.1331  0.83467  0.16759  1.0000
  H   H323      1.0  0.7557200000000002  0.91368  0.7789799999999999  1.0000
  H   H324      1.0  0.2586  0.425  0.49534  1.0000
  H   H325      1.0  0.6208200000000003  0.44841  0.44823  1.0000
  H   H326      1.0  0.36683  0.83464  0.66758  1.0000
  H   H327      1.0  0.48822000000000004  0.79554  0.03633  1.0000
  H   H328      1.0  0.37502  0.43677  0.8821199999999998  1.0000
  H   H329      1.0  0.7832300000000001  0.4313  0.09726  1.0000
  H   H330      1.0  0.0041  0.80876  0.02656  1.0000
  H   H331      1.0  0.27702000000000004  0.38228  0.7733  1.0000
  H   H332      1.0  0.07189  0.96195  0.08886  1.0000
  C   C1        1.0  0.24553000000000005  0.78256  0.20643999999999998  1.0000
  C   C2        1.0  0.83706  0.36647  0.38848  1.0000
  C   C3        1.0  0.46489  0.0153  0.14017  1.0000
  C   C4        1.0  0.8549200000000001  0.41319  0.47002  1.0000
  C   C5        1.0  0.25202  0.78274  0.70608  1.0000
  C   C6        1.0  0.7261700000000002  0.78106  0.26314  1.0000
  C   C7        1.0  0.5699300000000002  0.99643  0.62615  1.0000
  C   C8        1.0  0.6803  0.77852  0.4366999999999999  1.0000
  C   C9        1.0  0.27107  0.28087  0.50899  1.0000
  C   C10       1.0  0.7050500000000002  0.75192  0.77041  1.0000
  C   C11       1.0  0.50814  0.2481  0.12253999999999998  1.0000
  C   C12       1.0  0.8146800000000002  0.32711  0.39656  1.0000
  C   C13       1.0  0.13938  0.03838  0.59805  1.0000
  C   C14       1.0  0.8196800000000001  0.7795400000000002  0.93671  1.0000
  C   C15       1.0  0.7935800000000001  0.7339100000000002  0.30182  1.0000
  C   C16       1.0  0.85258  0.31816  0.50971  1.0000
  C   C17       1.0  0.45292  0.76809  0.9059  1.0000
  C   C18       1.0  0.33738000000000007  0.8307800000000002  0.01686  1.0000
  C   C19       1.0  0.018660000000000006  0.28227  0.57167  1.0000
  C   C20       1.0  0.61098  0.5760000000000001  0.36003  1.0000
  C   C21       1.0  0.3630900000000001  0.40891000000000005  0.41584  1.0000
  C   C22       1.0  0.74855  0.28264000000000006  0.79371  1.0000
  C   C23       1.0  0.16285  0.86638  0.61155  1.0000
  C   C24       1.0  0.6769200000000001  0.8437100000000002  0.6054  1.0000
  C   C25       1.0  0.9044600000000003  0.50656  0.38581  1.0000
  C   C26       1.0  0.3194  0.27975  0.56335  1.0000
  C   C27       1.0  0.6751  0.8361400000000002  0.52409  1.0000
  C   C28       1.0  0.29548000000000013  0.23314  0.19809999999999997  1.0000
  C   C29       1.0  0.8329000000000002  0.85264  0.04957999999999999  1.0000
  C   C30       1.0  0.29637  0.25144  0.22937999999999997  1.0000
  C   C31       1.0  0.27158  0.29932  0.76526  1.0000
  C   C32       1.0  0.32617000000000007  0.2586600000000001  0.59351  1.0000
  C   C33       1.0  0.1805  0.27984  0.06325  1.0000
  C   C34       1.0  0.4508000000000001  0.12736  0.14247999999999997  1.0000
  C   C35       1.0  0.29281  0.80014  0.12788  1.0000
  C   C36       1.0  0.18916  0.72478  0.17806  1.0000
  C   C37       1.0  0.17666000000000007  0.34385  0.89407  1.0000
  C   C38       1.0  0.19839000000000007  0.30112  0.89936  1.0000
  C   C39       1.0  0.68008  0.81723  0.49479  1.0000
  C   C40       1.0  0.6880100000000002  0.31504  0.9280899999999999  1.0000
  C   C41       1.0  0.4372600000000001  0.08530000000000001  0.13295  1.0000
  C   C42       1.0  0.85411  0.27263  0.58942  1.0000
  C   C43       1.0  0.62087  0.577  0.89222  1.0000
  C   C44       1.0  0.40966000000000014  0.56638  0.36093  1.0000
  C   C45       1.0  0.71329  0.26806  0.26587  1.0000
  C   C46       1.0  0.12238  0.07695  0.60735  1.0000
  C   C47       1.0  0.70637  0.73394  0.8018099999999999  1.0000
  C   C48       1.0  0.14963000000000007  0.7099  0.20549  1.0000
  C   C49       1.0  0.14428000000000002  0.9133  0.5301  1.0000
  C   C50       1.0  0.77389  0.781  0.76309  1.0000
  C   C51       1.0  0.02822  0.53395  0.867  1.0000
  C   C52       1.0  0.66702  0.8525900000000001  0.54934  1.0000
  C   C53       1.0  0.17411000000000001  0.25867  0.09336999999999998  1.0000
  C   C54       1.0  0.49147  0.74785  0.87738  1.0000
  C   C55       1.0  0.66296  0.23208  0.26568  1.0000
  C   C56       1.0  0.22841000000000006  0.2992  0.26526  1.0000
  C   C57       1.0  0.17087000000000005  0.35991  0.86374  1.0000
  C   C58       1.0  0.03637000000000001  0.015079999999999998  0.64023  1.0000
  C   C59       1.0  0.18074  0.31752  0.00476  1.0000
  C   C60       1.0  0.9638900000000002  0.51448  0.35969  1.0000
  C   C61       1.0  0.32387  0.33582  0.47537  1.0000
  C   C62       1.0  0.13138000000000002  0.93392  0.59584  1.0000
  C   C63       1.0  0.59051  0.06656000000000002  0.63915  1.0000
  C   C64       1.0  0.33708  0.86643  0.11184  1.0000
  C   C65       1.0  0.4805500000000001  0.05414  0.14939  1.0000
  C   C66       1.0  0.29108  0.76808  0.73355  1.0000
  C   C67       1.0  0.020190000000000003  0.05388  0.64951  1.0000
  C   C68       1.0  0.8151100000000002  0.83467  0.16202  1.0000
  C   C69       1.0  0.8014300000000002  0.79098  0.21263  1.0000
  C   C70       1.0  0.1567  0.73128  0.23345999999999997  1.0000
  C   C71       1.0  0.9928000000000002  0.24879000000000004  0.62307  1.0000
  C   C72       1.0  0.13246000000000002  0.24176999999999998  0.7514999999999998  1.0000
  C   C73       1.0  0.81194  0.31486000000000003  0.42811  1.0000
  C   C74       1.0  0.59112  0.64852  0.35005  1.0000
  C   C75       1.0  0.77181  0.79982  0.73443  1.0000
  C   C76       1.0  0.20669000000000007  0.8000400000000001  0.62758  1.0000
  C   C77       1.0  0.04593  0.76859  0.40547  1.0000
  C   C78       1.0  0.7062200000000002  0.30025  0.8723299999999999  1.0000
  C   C79       1.0  0.4500300000000001  0.10860000000000002  0.64555  1.0000
  C   C80       1.0  0.1154  0.80249  0.46124  1.0000
  C   C81       1.0  0.64708  0.3187  0.009669999999999998  1.0000
  C   C82       1.0  0.8287000000000002  0.85974  0.1359  1.0000
  C   C83       1.0  0.6367800000000002  0.90916  0.58382  1.0000
  C   C84       1.0  0.61326  0.46755000000000013  0.89543  1.0000
  C   C85       1.0  0.31466  0.82709  0.10367  1.0000
  C   C86       1.0  0.88796  0.5764000000000002  0.86015  1.0000
  C   C87       1.0  0.17109000000000002  0.8430700000000002  0.54815  1.0000
  C   C88       1.0  0.8650500000000002  0.7414  0.24822  1.0000
  C   C89       1.0  0.57175  0.539  0.36598  1.0000
  C   C90       1.0  0.7712200000000002  0.76245  0.9621299999999999  1.0000
  C   C91       1.0  0.27344  0.28019  0.73671  1.0000
  C   C92       1.0  0.9085600000000003  0.64887  0.85009  1.0000
  C   C93       1.0  0.6736400000000002  0.75699  0.40672  1.0000
  C   C94       1.0  0.22892000000000007  0.26263  0.03785  1.0000
  C   C95       1.0  0.17601  0.33608  0.97532  1.0000
  C   C96       1.0  0.26941  0.77983  0.15022  1.0000
  C   C97       1.0  0.14571  0.77253  0.41057  1.0000
  C   C98       1.0  0.63298  0.8149500000000002  0.44017999999999996  1.0000
  C   C99       1.0  0.64615  0.27242  0.08901999999999999  1.0000
  C   C100      1.0  0.3015200000000001  0.30077  0.3994  1.0000
  C   C101      1.0  0.68065  0.28995  0.06183999999999999  1.0000
  C   C102      1.0  0.3288000000000001  0.35959  0.36379  1.0000
  C   C103      1.0  0.050020000000000016  0.10861  0.14554  1.0000
  C   C104      1.0  0.8632200000000002  0.9092100000000002  0.08394  1.0000
  C   C105      1.0  0.6917800000000002  0.22518  0.32132  1.0000
  C   C106      1.0  0.11448000000000001  0.9674599999999999  0.6047999999999999  1.0000
  C   C107      1.0  0.5622200000000002  0.58482  0.8661699999999999  1.0000
  C   C108      1.0  0.66033  0.86892  0.57962  1.0000
  C   C109      1.0  0.14695  0.81824  0.49025  1.0000
  C   C110      1.0  0.8595  0.91712  0.17286  1.0000
  C   C111      1.0  0.6848600000000002  0.8345700000000003  0.66189  1.0000
  C   C112      1.0  0.6566  0.3835  0.9443999999999999  1.0000
  C   C113      1.0  0.12996  0.42425  0.8852  1.0000
  C   C114      1.0  0.36757000000000006  0.24163999999999997  0.25146  1.0000
  C   C115      1.0  0.31542  0.33459  0.33764  1.0000
  C   C116      1.0  0.37902  0.43513000000000013  0.44352  1.0000
  C   C117      1.0  0.4813700000000001  0.28214  0.0714  1.0000
  C   C118      1.0  0.16017000000000006  0.3689800000000001  0.9198999999999999  1.0000
  C   C119      1.0  0.18441  0.3349300000000001  0.8375699999999999  1.0000
  C   C120      1.0  0.35113000000000005  0.39983000000000013  0.35898  1.0000
  C   C121      1.0  0.85106  0.89998  0.14077  1.0000
  C   C122      1.0  0.54826  0.6266000000000003  0.8560899999999999  1.0000
  C   C123      1.0  0.07154  0.03918  0.13411  1.0000
  C   C124      1.0  0.6206300000000002  0.9354900000000003  0.5562  1.0000
  C   C125      1.0  0.7599400000000001  0.26171  0.82207  1.0000
  C   C126      1.0  0.6307700000000002  0.43401000000000006  0.9042199999999998  1.0000
  C   C127      1.0  0.47038  0.53376  0.36687  1.0000
  C   C128      1.0  0.55007  0.6084300000000002  0.35459  1.0000
  C   C129      1.0  0.8692400000000002  0.9242300000000002  0.11457999999999999  1.0000
  C   C130      1.0  0.38921  0.07614  0.64013  1.0000
  C   C131      1.0  0.26226  0.76164  0.67775  1.0000
  C   C132      1.0  0.6155  0.30285  0.038599999999999995  1.0000
  C   C133      1.0  0.9701800000000002  0.03397  0.13317  1.0000
  C   C134      1.0  0.29439  0.77232  0.06475  1.0000
  C   C135      1.0  0.20582  0.7722000000000001  0.5646199999999999  1.0000
  C   C136      1.0  0.55085  0.10337  0.64534  1.0000
  C   C137      1.0  0.93012  0.99649  0.12618  1.0000
  C   C138      1.0  0.31034  0.7249000000000002  0.67816  1.0000
  C   C139      1.0  0.72905  0.76186  0.46227999999999997  1.0000
  C   C140      1.0  0.6013200000000002  0.96371  0.61982  1.0000
  C   C141      1.0  0.7060300000000002  0.27239  0.93532  1.0000
  C   C142      1.0  0.3190900000000001  0.31732  0.50483  1.0000
  C   C143      1.0  0.8687100000000002  0.43391  0.40437999999999996  1.0000
  C   C144      1.0  0.65023  0.39444  0.91264  1.0000
  C   C145      1.0  0.3413100000000001  0.7320700000000001  0.7336199999999999  1.0000
  C   C146      1.0  0.13632  0.40919  0.91581  1.0000
  C   C147      1.0  0.63073  0.76111  0.71976  1.0000
  C   C148      1.0  0.6851200000000001  0.32723  0.89654  1.0000
  C   C149      1.0  0.8432700000000002  0.3833  0.44451999999999997  1.0000
  C   C150      1.0  0.8463800000000002  0.21039  0.794  1.0000
  C   C151      1.0  0.13337  0.31627  0.059379999999999995  1.0000
  C   C152      1.0  0.8257700000000002  0.75853  0.90653  1.0000
  C   C153      1.0  0.13403  0.33495  0.03063  1.0000
  C   C154      1.0  0.87858  0.5769200000000002  0.3921799999999999  1.0000
  C   C155      1.0  0.6489600000000002  0.8999  0.64067  1.0000
  C   C156      1.0  0.3692200000000001  0.424  0.38523  1.0000
  C   C157      1.0  0.014990000000000003  0.79859  0.45586999999999994  1.0000
  C   C158      1.0  0.048680000000000015  0.1273  0.64259  1.0000
  C   C159      1.0  0.7934600000000002  0.30021  0.37228  1.0000
  C   C160      1.0  0.6633200000000002  0.33081000000000005  0.98331  1.0000
  C   C161      1.0  0.15033000000000005  0.8943100000000003  0.58732  1.0000
  C   C162      1.0  0.4285400000000001  0.03916  0.63414  1.0000
  C   C163      1.0  0.7284500000000002  0.2798  0.84997  1.0000
  C   C164      1.0  0.16737000000000002  0.3526  0.95012  1.0000
  C   C165      1.0  0.3664800000000001  0.31617000000000006  0.55945  1.0000
  C   C166      1.0  0.87931  0.9354800000000002  0.05629  1.0000
  C   C167      1.0  0.3690700000000001  0.93395  0.09614  1.0000
  C   C168      1.0  0.3087000000000001  0.31319  0.31483  1.0000
  C   C169      1.0  0.72819  0.7999  0.23449  1.0000
  C   C170      1.0  0.5194  0.55332  0.85001  1.0000
  C   C171      1.0  0.22654  0.28014  0.23669  1.0000
  C   C172      1.0  0.7397600000000002  0.26193  0.32183  1.0000
  C   C173      1.0  0.63738  0.53856  0.9019299999999999  1.0000
  C   C174      1.0  0.9515000000000002  0.6264600000000001  0.3561  1.0000
  C   C175      1.0  0.3395  0.36868  0.41994  1.0000
  C   C176      1.0  0.3449100000000001  0.87881  0.14528  1.0000
  C   C177      1.0  0.64049  0.91702  0.67277  1.0000
  C   C178      1.0  0.69844  0.79096  0.71257  1.0000
  C   C179      1.0  0.8246000000000002  0.83607  0.024399999999999998  1.0000
  C   C180      1.0  0.9811300000000002  0.7822600000000001  0.42823  1.0000
  C   C181      1.0  0.75125  0.28286  0.29347  1.0000
  C   C182      1.0  0.31227  0.81494  0.07208  1.0000
  C   C183      1.0  0.06284000000000001  0.08522000000000003  0.6331  1.0000
  C   C184      1.0  0.4045900000000001  0.00675  0.11435999999999999  1.0000
  C   C185      1.0  0.32902  0.8431900000000002  0.04843999999999999  1.0000
  C   C186      1.0  0.9269200000000002  0.53935  0.86616  1.0000
  C   C187      1.0  0.63079  0.92416  0.61447  1.0000
  C   C188      1.0  0.35337000000000013  0.81863  0.99047  1.0000
  C   C189      1.0  0.7939900000000002  0.2722  0.43529999999999996  1.0000
  C   C190      1.0  0.8017600000000003  0.801  0.10018999999999999  1.0000
  C   C191      1.0  0.19755000000000006  0.2911  0.78701  1.0000
  C   C192      1.0  0.3192000000000001  0.78993  0.9382899999999998  1.0000
  C   C193      1.0  0.5350600000000001  0.51468  0.8597  1.0000
  C   C194      1.0  0.06816  0.49642  0.87386  1.0000
  C   C195      1.0  0.8396700000000002  0.86898  0.07979  1.0000
  C   C196      1.0  0.51509  0.2987900000000001  0.04388  1.0000
  C   C197      1.0  0.8861  0.46746  0.39555999999999997  1.0000
  C   C198      1.0  0.40870000000000006  0.1487  0.64995  1.0000
  C   C199      1.0  0.9371300000000002  0.58467  0.36612  1.0000
  C   C200      1.0  0.86906  0.76108  0.21978  1.0000
  C   C201      1.0  0.61731  0.21782  0.23622999999999997  1.0000
  C   C202      1.0  0.72861  0.78078  0.49102999999999997  1.0000
  C   C203      1.0  0.8366000000000001  0.33046  0.48338  1.0000
  C   C204      1.0  0.9539000000000001  0.26868  0.59446  1.0000
  C   C205      1.0  0.9846400000000001  0.29853000000000013  0.54403  1.0000
  C   C206      1.0  0.8620000000000002  0.53851  0.40194  1.0000
  C   C207      1.0  0.54646  0.26826  0.09401  1.0000
  C   C208      1.0  0.33244  0.35231  0.45016  1.0000
  C   C209      1.0  0.6449700000000003  0.41342000000000007  0.96987  1.0000
  C   C210      1.0  0.82844  0.34302  0.45184  1.0000
  C   C211      1.0  0.7867400000000002  0.26781  0.76618  1.0000
  C   C212      1.0  0.86704  0.81591  0.94044  1.0000
  C   C213      1.0  0.12871  0.26167  0.77984  1.0000
  C   C214      1.0  0.80795  0.22496  0.82168  1.0000
  C   C215      1.0  0.82004  0.81737  0.9950399999999999  1.0000
  C   C216      1.0  0.34978000000000004  0.89437  0.08764  1.0000
  C   C217      1.0  0.16285  0.83057  0.51659  1.0000
  C   C218      1.0  0.6715300000000001  0.34325  0.9517599999999999  1.0000
  C   C219      1.0  0.3230800000000001  0.34352  0.39412  1.0000
  C   C220      1.0  0.8986700000000002  0.9637600000000001  0.11989999999999999  1.0000
  C   C221      1.0  0.59477  0.50667  0.88576  1.0000
  C   C222      1.0  0.7716800000000001  0.7809600000000001  0.99104  1.0000
  C   C223      1.0  0.6347700000000001  0.74147  0.7482099999999999  1.0000
  C   C224      1.0  0.04991  0.60331  0.85483  1.0000
  C   C225      1.0  0.9492000000000003  0.10339000000000002  0.14534  1.0000
  C   C226      1.0  0.84503  0.37895  0.35507  1.0000
  C   C227      1.0  0.80816  0.8132400000000001  0.18479  1.0000
  C   C228      1.0  0.82315  0.84375  0.10554999999999999  1.0000
  C   C229      1.0  0.39872000000000013  0.4635500000000001  0.37998  1.0000
  C   C230      1.0  0.3657800000000001  0.3348000000000001  0.53069  1.0000
  C   C231      1.0  0.22875  0.28104  0.00889  1.0000
  C   C232      1.0  0.38458  0.80275  0.96149  1.0000
  C   C233      1.0  0.44926  0.60318  0.35478  1.0000
  C   C234      1.0  0.77117  0.27994  0.34981  1.0000
  C   C235      1.0  0.11086  0.07615000000000001  0.14011  1.0000
  C   C236      1.0  0.30245000000000005  0.29089  0.28701999999999994  1.0000
  C   C237      1.0  0.3532800000000001  0.77241  0.9110199999999999  1.0000
  C   C238      1.0  0.35954  0.41708000000000006  0.32692  1.0000
  C   C239      1.0  0.9796200000000003  0.5531  0.34994999999999993  1.0000
  C   C240      1.0  0.5299  0.03392  0.63318  1.0000
  C   C241      1.0  0.11045000000000002  0.71685  0.26273  1.0000
  C   C242      1.0  0.37760000000000005  0.07693  0.10724  1.0000
  C   C243      1.0  0.13983000000000004  0.41747  0.82689  1.0000
  C   C244      1.0  0.6983700000000002  0.8009600000000001  0.60007  1.0000
  C   C245      1.0  0.09643000000000003  0.00668  0.61435  1.0000
  C   C246      1.0  0.15510000000000004  0.87877  0.64499  1.0000
  C   C247      1.0  0.3556400000000001  0.91343  0.03042  1.0000
  C   C248      1.0  0.6917800000000002  0.8132  0.68471  1.0000
  C   C249      1.0  0.006930000000000002  0.74864  0.3768699999999999  1.0000
  C   C250      1.0  0.34963  0.71049  0.70579  1.0000
  C   C251      1.0  0.65465  0.37896  0.85495  1.0000
  C   C252      1.0  0.34381  0.8834500000000002  0.05586  1.0000
  C   C253      1.0  0.88287  0.21765  0.73678  1.0000
  C   C254      1.0  0.206  0.76749  0.23368999999999998  1.0000
  C   C255      1.0  0.19126  0.3135  0.8147799999999998  1.0000
  C   C256      1.0  0.18515000000000006  0.82704  0.60338  1.0000
  C   C257      1.0  0.20361000000000007  0.2515  0.72942  1.0000
  C   C258      1.0  0.20459000000000005  0.23316  0.69815  1.0000
  C   C259      1.0  0.3713300000000001  0.26147  0.27983  1.0000
  C   C260      1.0  0.65358  0.21066  0.29356  1.0000
  C   C261      1.0  0.27093  0.2625  0.53796  1.0000
  C   C262      1.0  0.12043000000000002  0.4354500000000001  0.9434799999999999  1.0000
  C   C263      1.0  0.9095400000000002  0.0666  0.13914  1.0000
  C   C264      1.0  0.94918  0.60871  0.85463  1.0000
  C   C265      1.0  0.18034  0.78964  0.43794  1.0000
  C   C266      1.0  0.8667600000000002  0.83467  0.96914  1.0000
  C   C267      1.0  0.6333300000000002  0.83415  0.4687  1.0000
  C   C268      1.0  0.08915  0.5664600000000002  0.8610299999999999  1.0000
  C   C269      1.0  0.22974000000000006  0.77961  0.64988  1.0000
  C   C270      1.0  0.67133  0.8596600000000002  0.63578  1.0000
  C   C271      1.0  0.48488000000000003  0.79854  0.95607  1.0000
  C   C272      1.0  0.14825  0.40014  0.8589399999999999  1.0000
  C   C273      1.0  0.15623000000000006  0.88334  0.55555  1.0000
  C   C274      1.0  0.10013  0.4637500000000001  0.87998  1.0000
  C   C275      1.0  0.38736000000000004  0.71779  0.76296  1.0000
  C   C276      1.0  0.51819  0.78186  0.9285  1.0000
  C   C277      1.0  0.8193300000000002  0.28968  0.56206  1.0000
  C   C278      1.0  0.7949400000000002  0.75192  0.27043  1.0000
  C   C279      1.0  0.8370800000000003  0.23184000000000002  0.76613  1.0000
  C   C280      1.0  0.3865400000000001  0.96748  0.10497  1.0000
  C   C281      1.0  0.23646  0.76169  0.17797  1.0000
  C   C282      1.0  0.0913  0.14871  0.14995  1.0000
  C   C283      1.0  0.43032000000000004  0.49625  0.3737599999999999  1.0000
  C   C284      1.0  0.6626700000000002  0.36656000000000005  0.8883799999999997  1.0000
  C   C285      1.0  0.84946  0.39431  0.41278  1.0000
  C   C286      1.0  0.8842000000000002  0.3024500000000001  0.5387199999999999  1.0000
  C   C287      1.0  0.18776  0.81485  0.57182  1.0000
  C   C288      1.0  0.3611000000000001  0.0383  0.098  1.0000
  C   C289      1.0  0.07181000000000003  0.84836  0.12298  1.0000
  C   C290      1.0  0.54844  0.7864700000000002  0.05145  1.0000
  C   C291      1.0  0.24665  0.98934  0.24283999999999997  1.0000
  C   C292      1.0  0.87748  0.45026  0.7818799999999999  1.0000
  C   C293      1.0  0.9204500000000002  0.8533  0.57524  1.0000
  C   C294      1.0  0.64386  0.96102  0.26998  1.0000
  C   C295      1.0  0.00518  0.16217000000000004  0.35101  1.0000
  C   C296      1.0  0.28808  0.99642  0.21344999999999997  1.0000
  C   C297      1.0  0.7298400000000003  0.93994  0.95699  1.0000
  C   C298      1.0  0.4522500000000001  0.28627  0.9486099999999997  1.0000
  C   C299      1.0  0.07934  0.35292  0.42466999999999994  1.0000
  C   C300      1.0  0.31862000000000007  0.64027  0.1295  1.0000
  C   C301      1.0  0.15937  0.47848000000000007  0.19873  1.0000
  C   C302      1.0  0.48543  0.7261900000000001  0.12230999999999999  1.0000
  C   C303      1.0  0.061670000000000016  0.8364000000000003  0.15645  1.0000
  C   C304      1.0  0.014140000000000002  0.43775  0.06954  1.0000
  C   C305      1.0  0.5646000000000001  0.32008  0.40166  1.0000
  C   C306      1.0  0.50506  0.66211  0.14824  1.0000
  C   C307      1.0  0.18132000000000006  0.64023  0.62948  1.0000
  C   C308      1.0  0.030500000000000003  0.6250300000000002  0.65587  1.0000
  C   C309      1.0  0.00010000000000000003  0.62386  0.13032  1.0000
  C   C310      1.0  0.65184  0.07124  0.84804  1.0000
  C   C311      1.0  0.5620000000000002  0.33607  0.34371  1.0000
  C   C312      1.0  0.34233000000000013  0.57265  0.15186  1.0000
  C   C313      1.0  0.5925700000000003  0.38768000000000014  0.38480999999999993  1.0000
  C   C314      1.0  0.5919300000000002  0.41016000000000014  0.52937  1.0000
  C   C315      1.0  0.59566  0.88775  0.15792  1.0000
  C   C316      1.0  0.70878  0.49547  0.7865399999999999  1.0000
  C   C317      1.0  0.8759500000000001  0.89957  0.48923  1.0000
  C   C318      1.0  0.06876  0.93994  0.90942  1.0000
  C   C319      1.0  0.4482600000000001  0.68872  0.13069  1.0000
  C   C320      1.0  0.3992000000000001  0.88392  0.52854  1.0000
  C   C321      1.0  0.9412800000000001  0.82299  0.63625  1.0000
  C   C322      1.0  0.29175  0.42256  0.01469  1.0000
  C   C323      1.0  0.60428  0.88221  0.01862  1.0000
  C   C324      1.0  0.56827  0.30255  0.45951  1.0000
  C   C325      1.0  0.9713500000000003  0.12482  0.34344  1.0000
  C   C326      1.0  0.12352000000000003  0.61361  0.6462799999999999  1.0000
  C   C327      1.0  0.09676  0.9098  0.97067  1.0000
  C   C328      1.0  0.4573  0.15124  0.35015  1.0000
  C   C329      1.0  0.31633  0.40882  0.76699  1.0000
  C   C330      1.0  0.57959  0.85327  0.07523  1.0000
  C   C331      1.0  0.3765000000000001  0.6136  0.14628  1.0000
  C   C332      1.0  0.0928  0.88798  0.11537  1.0000
  C   C333      1.0  0.94066  0.8962700000000002  0.46388999999999997  1.0000
  C   C334      1.0  0.3710100000000001  0.9363900000000002  0.66208  1.0000
  C   C335      1.0  0.40715  0.88795  0.61539  1.0000
  C   C336      1.0  0.3847000000000001  0.42102  0.9041899999999999  1.0000
  C   C337      1.0  0.68331  0.90952  0.23293  1.0000
  C   C338      1.0  0.42820000000000014  0.84832  0.6229999999999999  1.0000
  C   C339      1.0  0.52037  0.2045  0.38235  1.0000
  C   C340      1.0  0.2533  0.9893300000000002  0.74285  1.0000
  C   C341      1.0  0.058200000000000016  0.3225100000000001  0.36369  1.0000
  C   C342      1.0  0.56756  0.9606  0.2191  1.0000
  C   C343      1.0  0.09379000000000003  0.8719400000000002  0.06013999999999999  1.0000
  C   C344      1.0  0.62153  0.45012  0.282  1.0000
  C   C345      1.0  0.6240600000000002  0.89964  0.98926  1.0000
  C   C346      1.0  0.9244700000000001  0.33165  0.93318  1.0000
  C   C347      1.0  0.03317  0.74546  0.11147999999999998  1.0000
  C   C348      1.0  0.15769000000000005  0.57268  0.65187  1.0000
  C   C349      1.0  0.09153  0.36829  0.45519  1.0000
  C   C350      1.0  0.3376  0.43733  0.06801  1.0000
  C   C351      1.0  0.3372200000000001  0.9571399999999999  0.68861  1.0000
  C   C352      1.0  0.07839  0.41451  0.56415  1.0000
  C   C353      1.0  0.81356  0.9571000000000001  0.40182999999999996  1.0000
  C   C354      1.0  0.18212  0.45802  0.59794  1.0000
  C   C355      1.0  0.9949200000000002  0.6621  0.64825  1.0000
  C   C356      1.0  0.55879  0.82298  0.13625  1.0000
  C   C357      1.0  0.54792  0.27989  0.3944  1.0000
  C   C358      1.0  0.6864000000000001  0.95712  0.90185  1.0000
  C   C359      1.0  0.10546000000000003  0.89501  0.00145  1.0000
  C   C360      1.0  0.46955000000000013  0.6250300000000002  0.15587  1.0000
  C   C361      1.0  0.96567  0.69192  0.14358  1.0000
  C   C362      1.0  0.14549  0.46091  0.23004  1.0000
  C   C363      1.0  0.10080000000000001  0.8839  0.02852  1.0000
  C   C364      1.0  0.45238  0.7801800000000002  0.6058  1.0000
  C   C365      1.0  0.40846  0.36834  0.95525  1.0000
  C   C366      1.0  0.27313  0.44122  0.04286  1.0000
  C   C367      1.0  0.19639000000000006  0.4264  0.23792999999999997  1.0000
  C   C368      1.0  0.06873  0.80272  0.04071  1.0000
  C   C369      1.0  0.6653600000000002  0.9365200000000002  0.9318  1.0000
  C   C370      1.0  0.9080400000000002  0.87881  0.60105  1.0000
  C   C371      1.0  0.30312  0.42606  0.73798  1.0000
  C   C372      1.0  0.8548700000000002  0.17578  0.37843999999999994  1.0000
  C   C373      1.0  0.29741  0.00083  0.27223  1.0000
  C   C374      1.0  0.41744000000000003  0.47759  0.75164  1.0000
  C   C375      1.0  0.6640900000000001  0.46569  0.25535  1.0000
  C   C376      1.0  0.60857  0.41491  0.36031  1.0000
  C   C377      1.0  0.41783  0.36275  0.86849  1.0000
  C   C378      1.0  0.05630000000000002  0.31262  0.42062999999999995  1.0000
  C   C379      1.0  0.61853  0.92603  0.21095  1.0000
  C   C380      1.0  0.8020900000000002  0.49901  0.22828  1.0000
  C   C381      1.0  0.42059000000000013  0.3529700000000001  0.92474  1.0000
  C   C382      1.0  0.16266  0.9571399999999999  0.1886  1.0000
  C   C383      1.0  0.05843000000000002  0.3963000000000001  0.5358  1.0000
  C   C384      1.0  0.90704  0.37186000000000013  0.93998  1.0000
  C   C385      1.0  0.59164  0.86851  0.04468  1.0000
  C   C386      1.0  0.08209000000000002  0.36269  0.36841  1.0000
  C   C387      1.0  0.78996  0.92153  0.48515  1.0000
  C   C388      1.0  0.20261  0.00082  0.7722299999999999  1.0000
  C   C389      1.0  0.9367300000000002  0.44063  0.09054999999999999  1.0000
  C   C390      1.0  0.78995  0.4954200000000001  0.28689  1.0000
  C   C391      1.0  0.4664800000000001  0.19132000000000005  0.35633  1.0000
  C   C392      1.0  0.9196600000000003  0.91428  0.43551999999999996  1.0000
  C   C393      1.0  0.042630000000000015  0.15125  0.85018  1.0000
  C   C394      1.0  0.04423  0.29796  0.39002999999999993  1.0000
  C   C395      1.0  0.18352  0.4089200000000001  0.26685  1.0000
  C   C396      1.0  0.5159200000000002  0.75882  0.11528  1.0000
  C   C397      1.0  0.57175  0.34804  0.37719  1.0000
  C   C398      1.0  0.58016  0.9778700000000001  0.24823  1.0000
  C   C399      1.0  0.93236  0.9606  0.71911  1.0000
  C   C400      1.0  0.84849  0.07104  0.34808  1.0000
  C   C401      1.0  0.33783  0.9281  0.41925  1.0000
  C   C402      1.0  0.10495000000000003  0.40627  0.31787  1.0000
  C   C403      1.0  0.16247  0.4372800000000001  0.56796  1.0000
  C   C404      1.0  0.95596  0.6519  0.14978  1.0000
  C   C405      1.0  0.5801800000000003  0.91445  0.93555  1.0000
  C   C406      1.0  0.9481300000000003  0.18811  0.36909  1.0000
  C   C407      1.0  0.5986100000000002  0.38388000000000005  0.47165  1.0000
  C   C408      1.0  0.44649000000000005  0.6365  0.60364  1.0000
  C   C409      1.0  0.37595  0.94273  0.57694  1.0000
  C   C410      1.0  0.44177  0.39644  0.03584  1.0000
  C   C411      1.0  0.3768200000000001  0.40001  0.01055  1.0000
  C   C412      1.0  0.5568500000000001  0.81295  0.07932  1.0000
  C   C413      1.0  0.10309000000000003  0.9003100000000003  0.08403  1.0000
  C   C414      1.0  0.49442  0.16229  0.8510199999999999  1.0000
  C   C415      1.0  0.044690000000000014  0.3056500000000001  0.33163  1.0000
  C   C416      1.0  0.8433600000000002  0.42832000000000003  0.08098  1.0000
  C   C417      1.0  0.4062200000000001  0.87193  0.56017  1.0000
  C   C418      1.0  0.40331000000000006  0.9098600000000002  0.47071  1.0000
  C   C419      1.0  0.00427  0.92307  0.96035  1.0000
  C   C420      1.0  0.5152800000000001  0.22585  0.8776  1.0000
  C   C421      1.0  0.43125  0.93997  0.40945999999999994  1.0000
  C   C422      1.0  0.6015500000000001  0.39523  0.49867  1.0000
  C   C423      1.0  0.35384  0.67738  0.12179  1.0000
  C   C424      1.0  0.381  0.4255200000000001  0.78892  1.0000
  C   C425      1.0  0.39525  0.40641  0.8179599999999999  1.0000
  C   C426      1.0  0.44898  0.95752  0.37793999999999994  1.0000
  C   C427      1.0  0.5823500000000003  0.86316  0.13146  1.0000
  C   C428      1.0  0.17032  0.9133  0.9487899999999999  1.0000
  C   C429      1.0  0.33992  0.96787  0.74469  1.0000
  C   C430      1.0  0.6974700000000003  0.4990200000000001  0.72784  1.0000
  C   C431      1.0  0.95166  0.78652  0.55144  1.0000
  C   C432      1.0  0.4382800000000001  0.83637  0.6564699999999999  1.0000
  C   C433      1.0  0.54575  0.45825  0.62197  1.0000
  C   C434      1.0  0.39687  0.9003100000000003  0.58405  1.0000
  C   C435      1.0  0.09558000000000003  0.38719  0.34189  1.0000
  C   C436      1.0  0.4556500000000001  0.29804  0.8901  1.0000
  C   C437      1.0  0.45525  0.30572  0.83169  1.0000
  C   C438      1.0  0.49706000000000006  0.08026  0.36225  1.0000
  C   C439      1.0  0.49578  0.92314  0.46040999999999993  1.0000
  C   C440      1.0  0.8168100000000003  0.90949  0.73294  1.0000
  C   C441      1.0  0.4856700000000001  0.43762  0.5695  1.0000
  C   C442      1.0  0.24633  0.9809399999999999  0.18658999999999998  1.0000
  C   C443      1.0  0.9068600000000002  0.38776  0.88471  1.0000
  C   C444      1.0  0.7702400000000003  0.93996  0.45696999999999993  1.0000
  C   C445      1.0  0.16005  0.96789  0.24467999999999998  1.0000
  C   C446      1.0  0.43734  0.67654  0.5974499999999999  1.0000
  C   C447      1.0  0.52841  0.12496000000000002  0.8433999999999999  1.0000
  C   C448      1.0  0.04791  0.2862400000000001  0.44855999999999996  1.0000
  C   C449      1.0  0.12395000000000003  0.94272  0.07693  1.0000
  C   C450      1.0  0.8349500000000002  0.41347  0.05149  1.0000
  C   C451      1.0  0.97969  0.20454  0.88239  1.0000
  C   C452      1.0  0.019650000000000008  0.7048900000000002  0.11753  1.0000
  C   C453      1.0  0.85615  0.9610100000000001  0.76999  1.0000
  C   C454      1.0  0.20824  0.42252  0.51465  1.0000
  C   C455      1.0  0.65659  0.42824  0.58095  1.0000
  C   C456      1.0  0.4994800000000001  0.42376  0.53941  1.0000
  C   C457      1.0  0.74736  0.48035000000000005  0.31373  1.0000
  C   C458      1.0  0.8760400000000003  0.4425700000000001  0.9231  1.0000
  C   C459      1.0  0.9667000000000002  0.24517  0.8885099999999999  1.0000
  C   C460      1.0  0.955  0.79841  0.60994  1.0000
  C   C461      1.0  0.7512700000000002  0.4804300000000001  0.81344  1.0000
  C   C462      1.0  0.33993  0.47837999999999997  0.69868  1.0000
  C   C463      1.0  0.9432300000000001  0.81298  0.57932  1.0000
  C   C464      1.0  0.66501  0.41343000000000013  0.55145  1.0000
  C   C465      1.0  0.98424  0.22577  0.37757999999999997  1.0000
  C   C466      1.0  0.89507  0.90694  0.6819  1.0000
  C   C467      1.0  0.44369000000000003  0.31266  0.9206999999999999  1.0000
  C   C468      1.0  0.53334  0.24512000000000003  0.38848  1.0000
  C   C469      1.0  0.00287  0.08027  0.86226  1.0000
  C   C470      1.0  0.60245  0.40011  0.41612999999999994  1.0000
  C   C471      1.0  0.10848000000000002  0.91527  0.13988  1.0000
  C   C472      1.0  0.3914  0.91525  0.6399  1.0000
  C   C473      1.0  0.95478  0.80617  0.66832  1.0000
  C   C474      1.0  0.55143  0.18823  0.86912  1.0000
  C   C475      1.0  0.43099  0.4603  0.78074  1.0000
  C   C476      1.0  0.5453100000000001  0.80616  0.16832  1.0000
  C   C477      1.0  0.54507  0.79839  0.10994  1.0000
  C   C478      1.0  0.42407  0.83176  0.567  1.0000
  C   C479      1.0  0.90432  0.88775  0.65793  1.0000
  C   C480      1.0  0.57547  0.33157  0.43321  1.0000
  C   C481      1.0  0.8692700000000001  0.43603000000000003  0.83803  1.0000
  C   C482      1.0  0.25353  0.9809600000000002  0.6866  1.0000
  C   C483      1.0  0.06896  0.4603500000000001  0.28086  1.0000
  C   C484      1.0  0.4849000000000001  0.25848  0.8847399999999999  1.0000
  C   C485      1.0  0.4417200000000001  0.3225800000000001  0.86375  1.0000
  C   C486      1.0  0.9079  0.4102200000000001  0.02938  1.0000
  C   C487      1.0  0.43536000000000014  0.82034  0.59854  1.0000
  C   C488      1.0  0.8350300000000003  0.46581  0.75517  1.0000
  C   C489      1.0  0.93778  0.33609  0.84368  1.0000
  C   C490      1.0  0.16222000000000003  0.92808  0.91926  1.0000
  C   C491      1.0  0.6563900000000003  0.97858  0.30133  1.0000
  C   C492      1.0  0.5592100000000001  0.89645  0.96392  1.0000
  C   C493      1.0  0.10425000000000002  0.38223  0.48117  1.0000
  C   C494      1.0  0.92794  0.34812  0.8771399999999998  1.0000
  C   C495      1.0  0.4802800000000001  0.70472  0.61747  1.0000
  C   C496      1.0  0.91976  0.97788  0.74825  1.0000
  C   C497      1.0  0.89051  0.41498  0.8601799999999998  1.0000
  C   C498      1.0  0.56373  0.17615  0.40212  1.0000
  C   C499      1.0  0.9908600000000002  0.93682  0.9302199999999999  1.0000
  C   C500      1.0  0.9840800000000002  0.75883  0.61528  1.0000
  C   C501      1.0  0.062440000000000016  0.67644  0.09774  1.0000
  C   C502      1.0  0.9945400000000002  0.58094  0.13781  1.0000
  C   C503      1.0  0.8957500000000003  0.8821600000000003  0.5186  1.0000
  C   C504      1.0  0.9543300000000001  0.45841  0.12205  1.0000
  C   C505      1.0  0.11901  0.42549  0.28887  1.0000
  C   C506      1.0  0.50914  0.93689  0.43028  1.0000
  C   C507      1.0  0.5548300000000003  0.13619000000000003  0.39565999999999996  1.0000
  C   C508      1.0  0.89831  0.39528  0.99866  1.0000
  C   C509      1.0  0.32975  0.91335  0.4488  1.0000
  C   C510      1.0  0.59277  0.37178  0.44003  1.0000
  C   C511      1.0  0.67836  0.13854  0.87089  1.0000
  C   C512      1.0  0.88149  0.92602  0.71096  1.0000
  C   C513      1.0  0.71013  0.92152  0.98517  1.0000
  C   C514      1.0  0.43140000000000006  0.80274  0.54071  1.0000
  C   C515      1.0  0.050950000000000016  0.9575299999999999  0.87792  1.0000
  C   C516      1.0  0.46721  0.74539  0.6116  1.0000
  C   C517      1.0  0.11852000000000003  0.95179  0.21802999999999997  1.0000
  C   C518      1.0  0.95208  0.27996000000000004  0.8943799999999998  1.0000
  C   C519      1.0  0.052840000000000005  0.6365  0.10419  1.0000
  C   C520      1.0  0.6049000000000001  0.90696  0.18189  1.0000
  C   C521      1.0  0.11488000000000002  0.42100000000000004  0.40413  1.0000
  C   C522      1.0  0.6233300000000002  0.44254  0.42315  1.0000
  C   C523      1.0  0.6641900000000002  0.45628  0.31157  1.0000
  C   C524      1.0  0.12884  0.9364000000000002  0.16207  1.0000
  C   C525      1.0  0.6201700000000002  0.11254000000000003  0.8535999999999999  1.0000
  C   C526      1.0  0.22685000000000005  0.4412000000000001  0.54282  1.0000
  C   C527      1.0  0.6956600000000002  0.92674  0.26199  1.0000
  C   C528      1.0  0.07603000000000001  0.83178  0.06697  1.0000
  C   C529      1.0  0.9363200000000002  0.17618  0.9021299999999999  1.0000
  C   C530      1.0  0.8044600000000002  0.9267200000000002  0.76199  1.0000
  C   C531      1.0  0.5429  0.65115  0.64947  1.0000
  C   C532      1.0  0.35383000000000003  0.46057  0.72994  1.0000
  C   C533      1.0  0.8346100000000002  0.93646  0.43177999999999994  1.0000
  C   C534      1.0  0.3958100000000001  0.3823  0.98123  1.0000
  C   C535      1.0  0.014490000000000003  0.72618  0.62232  1.0000
  C   C536      1.0  0.05167  0.6886900000000002  0.63069  1.0000
  C   C537      1.0  0.9083700000000002  0.86852  0.54469  1.0000
  C   C538      1.0  0.4988  0.62338  0.62976  1.0000
  C   C539      1.0  0.014830000000000003  0.25839  0.3847  1.0000
  C   C540      1.0  0.14606  0.67735  0.62177  1.0000
  C   C541      1.0  0.61504  0.92139  0.09571  1.0000
  C   C542      1.0  0.08214  0.47787  0.25184  1.0000
  C   C543      1.0  0.6294700000000002  0.43594  0.33814  1.0000
  C   C544      1.0  0.40807  0.37842  0.89889  1.0000
  C   C545      1.0  0.31789  0.45804  0.098  1.0000
  C   C546      1.0  0.04789  0.78025  0.10576  1.0000
  C   C547      1.0  0.83456  0.4563700000000001  0.81142  1.0000
  C   C548      1.0  0.7488400000000001  0.48758  0.7571  1.0000
  C   C549      1.0  0.42180000000000006  0.41461  0.0642  1.0000
  C   C550      1.0  0.50329  0.5803200000000002  0.63698  1.0000
  C   C551      1.0  0.12327  0.39992  0.51051  1.0000
  C   C552      1.0  0.89711  0.4001600000000001  0.91606  1.0000
  C   C553      1.0  0.03352  0.19133  0.8563699999999999  1.0000
  C   C554      1.0  0.09176  0.37839000000000006  0.39882  1.0000
  C   C555      1.0  0.8798000000000002  0.11233  0.35367  1.0000
  C   C556      1.0  0.53381  0.69128  0.6435  1.0000
  C   C557      1.0  0.06478000000000002  0.8204  0.09852  1.0000
  C   C558      1.0  0.9980000000000001  0.12332  0.8695999999999999  1.0000
  C   C559      1.0  0.00030000000000000003  0.42387  0.03945  1.0000
  C   C560      1.0  0.8435800000000002  0.9785699999999999  0.80134  1.0000
  C   C561      1.0  0.9317900000000002  0.30263  0.95948  1.0000
  C   C562      1.0  0.8214  0.13832  0.37089  1.0000
  C   C563      1.0  0.4044400000000001  0.38728000000000007  0.84197  1.0000
  C   C564      1.0  0.7501200000000001  0.48751000000000005  0.25739  1.0000
  C   C565      1.0  0.8848  0.92142  0.59571  1.0000
  C   C566      1.0  0.3814200000000001  0.95178  0.71804  1.0000
  C   C567      1.0  0.39459  0.89506  0.50147  1.0000
  C   C568      1.0  0.50193  0.12330000000000002  0.3696  1.0000
  C   C569      1.0  0.9451700000000001  0.13622  0.89565  1.0000
  C   C570      1.0  0.9176700000000001  0.86317  0.6314599999999999  1.0000
  C   C571      1.0  0.9012500000000002  0.38398  0.97162  1.0000
  C   C572      1.0  0.5919500000000002  0.87879  0.10103999999999999  1.0000
  C   C573      1.0  0.9353000000000002  0.32017  0.90163  1.0000
  C   C574      1.0  0.56317  0.44049  0.5905  1.0000
  C   C575      1.0  0.64472  0.17596000000000003  0.8784999999999998  1.0000
  C   C576      1.0  0.21181000000000005  0.99643  0.71345  1.0000
  O   O1        1.0  0.06657  0.7299800000000001  0.35967  1.0000
  O   O2        1.0  0.31903  0.15486  0.6468  1.0000
  O   O3        1.0  0.37605  0.73812  0.7879  1.0000
  O   O4        1.0  0.02853  0.17646  0.15625  1.0000
  O   O5        1.0  0.47144000000000014  0.17644  0.65625  1.0000
  O   O6        1.0  0.6287200000000002  0.23803000000000002  0.21121999999999996  1.0000
  O   O7        1.0  0.23321000000000006  0.24602  0.17807  1.0000
  O   O8        1.0  0.26681  0.246  0.67811  1.0000
  O   O9        1.0  0.9330600000000002  0.23008000000000006  0.64018  1.0000
  O   O10       1.0  0.8522000000000002  0.70637  0.30935  1.0000
  O   O11       1.0  0.08706  0.15306  0.62457  1.0000
  O   O12       1.0  0.56774  0.22845  0.13905  1.0000
  O   O13       1.0  0.41770000000000007  0.25195  0.12798  1.0000
  O   O14       1.0  0.91585  0.7518200000000003  0.37206  1.0000
  O   O15       1.0  0.0  0.63306  0.33135  1.0000
  O   O16       1.0  0.81893  0.65517  0.8532  1.0000
  O   O17       1.0  0.52828  0.67617  0.34364  1.0000
  O   O18       1.0  0.64755  0.7064600000000002  0.8093199999999999  1.0000
  O   O19       1.0  0.4998600000000001  0.6332  0.8312999999999999  1.0000
  O   O20       1.0  0.4118100000000001  0.15302000000000004  0.12448999999999999  1.0000
  O   O21       1.0  0.71899  0.7245000000000003  0.4030099999999999  1.0000
  O   O22       1.0  0.7671600000000002  0.74788  0.82188  1.0000
  O   O23       1.0  0.58617  0.65292  0.8736899999999999  1.0000
  O   O24       1.0  0.38284  0.27401000000000003  0.61428  1.0000
  O   O25       1.0  0.11916  0.73795  0.28745  1.0000
  O   O26       1.0  0.5658400000000001  0.18643  0.2367  1.0000
  O   O27       1.0  0.9714600000000002  0.6765  0.8437099999999998  1.0000
  O   O28       1.0  0.11810000000000002  0.27404  0.11429  1.0000
  O   O29       1.0  0.28136000000000005  0.22613  0.59748  1.0000
  O   O30       1.0  0.08376  0.25195  0.62796  1.0000
  O   O31       1.0  0.7328  0.74791  0.32186  1.0000
  O   O32       1.0  0.8820900000000002  0.77385  0.8856999999999999  1.0000
  O   O33       1.0  0.8714000000000002  0.23799  0.71187  1.0000
  O   O34       1.0  0.58196  0.7518200000000003  0.87202  1.0000
  O   O35       1.0  0.18092000000000005  0.15487  0.14679  1.0000
  O   O36       1.0  0.6169500000000002  0.77212  0.38587  1.0000
  O   O37       1.0  0.14386000000000002  0.20638  0.69063  1.0000
  O   O38       1.0  0.43233  0.72808  0.86081  1.0000
  O   O39       1.0  0.4385600000000001  0.68635  0.76254  1.0000
  O   O40       1.0  0.6808000000000001  0.6548200000000001  0.35315  1.0000
  O   O41       1.0  0.9139500000000003  0.6528600000000001  0.37371  1.0000
  O   O42       1.0  0.7806000000000002  0.72604  0.9026899999999999  1.0000
  O   O43       1.0  0.93451  0.18631  0.7372699999999999  1.0000
  O   O44       1.0  0.3562900000000001  0.2064  0.1906  1.0000
  O   O45       1.0  0.21878  0.22604  0.09717  1.0000
  O   O46       1.0  3.9999999999999956e-05  0.13467  0.66715  1.0000
  O   O47       1.0  0.49939  0.13474  0.16708  1.0000
  O   O48       1.0  0.06184000000000001  0.6847500000000001  0.26256  1.0000
  O   O49       1.0  0.7721000000000002  0.05769  0.36082  1.0000
  O   O50       1.0  0.05582  0.06979  0.8393699999999998  1.0000
  O   O51       1.0  0.4440500000000001  0.06978  0.33936  1.0000
  O   O52       1.0  0.26202  0.56145  0.1406  1.0000
  O   O53       1.0  0.6188800000000002  0.47037  0.63741  1.0000
  O   O54       1.0  0.25515  0.99751  0.29841  1.0000
  O   O55       1.0  0.37632  0.9703399999999999  0.36259  1.0000
  O   O56       1.0  0.76214  0.9782500000000001  0.8999699999999999  1.0000
  O   O57       1.0  0.8813500000000001  0.47056  0.13751  1.0000
  O   O58       1.0  0.40053  0.54964  0.16727  1.0000
  O   O59       1.0  0.04256  0.5574500000000002  0.12026999999999999  1.0000
  O   O60       1.0  0.3864700000000001  0.01191  0.27025  1.0000
  O   O61       1.0  0.11353000000000003  0.01191  0.77025  1.0000
  O   O62       1.0  0.3953  0.50588  0.6889799999999999  1.0000
  O   O63       1.0  0.23794  0.56143  0.64062  1.0000
  O   O64       1.0  0.38059  0.4525  0.12005999999999999  1.0000
  O   O65       1.0  0.7382500000000002  0.49398999999999993  0.70156  1.0000
  O   O66       1.0  0.53634  0.9585799999999999  0.36856  1.0000
  O   O67       1.0  0.55211  0.56987  0.66086  1.0000
  O   O68       1.0  0.77536  0.96432  0.8187199999999999  1.0000
  O   O69       1.0  0.10428  0.506  0.18893999999999997  1.0000
  O   O70       1.0  0.24495  0.9975000000000002  0.79841  1.0000
  O   O71       1.0  0.0994  0.54971  0.66726  1.0000
  O   O72       1.0  0.60992  0.5119500000000001  0.72991  1.0000
  O   O73       1.0  0.11930000000000003  0.45247  0.61995  1.0000
  O   O74       1.0  0.9635600000000002  0.9586300000000001  0.8685499999999999  1.0000
  O   O75       1.0  0.12360000000000003  0.97033  0.86258  1.0000
  O   O76       1.0  0.27118  0.46417  0.68152  1.0000
  O   O77       1.0  0.72828  0.05789  0.8607899999999999  1.0000
  O   O78       1.0  0.72464  0.96432  0.31873  1.0000
  O   O79       1.0  0.9427400000000002  0.57114  0.16116999999999998  1.0000
  O   O80       1.0  0.9526900000000003  0.0574  0.87974  1.0000
  O   O81       1.0  0.8763700000000002  0.95242  0.37975  1.0000
  O   O82       1.0  0.7378100000000002  0.97824  0.39997  1.0000
  O   O83       1.0  0.22803000000000007  0.46407000000000004  0.1816  1.0000
  O   O84       1.0  0.8893800000000002  0.51198  0.23077999999999999  1.0000
  O   O85       1.0  0.4583500000000001  0.46022000000000013  0.63127  1.0000
  O   O86       1.0  0.24372000000000005  0.48013000000000006  0.10011999999999999  1.0000
  O   O87       1.0  0.2561800000000001  0.48012  0.60011  1.0000
  O   O88       1.0  0.041870000000000004  0.46026  0.13126  1.0000
  O   O89       1.0  0.5473500000000001  0.0574  0.37972  1.0000
  O   O90       1.0  0.45664  0.55726  0.61867  1.0000
  O   O91       1.0  0.9053400000000003  0.04925  0.33115  1.0000
  O   O92       1.0  0.5949600000000003  0.0494  0.83116  1.0000
  O   O93       1.0  0.8996200000000002  0.00585  0.81106  1.0000
  O   O94       1.0  0.6003300000000003  0.00585  0.31106  1.0000
  O   O95       1.0  0.6236  0.9524299999999999  0.87975  1.0000
  O   O96       1.0  0.76203  0.49404  0.20181  1.0000
