data_image0
_chemical_formula_structural       Zn120P96H384C672O480
_chemical_formula_sum              "Zn120 P96 H384 C672 O480"
_cell_length_a       32.92096
_cell_length_b       32.92096999999999
_cell_length_c       32.92595
_cell_angle_alpha    90.03554
_cell_angle_beta     90.02734999999998
_cell_angle_gamma    90.03556

_space_group_name_H-M_alt    "P 1"
_space_group_IT_number       1

loop_
  _space_group_symop_operation_xyz
  'x, y, z'

loop_
  _atom_site_type_symbol
  _atom_site_label
  _atom_site_symmetry_multiplicity
  _atom_site_fract_x
  _atom_site_fract_y
  _atom_site_fract_z
  _atom_site_occupancy
  Zn  Zn1       1.0  0.30775  0.63707  0.02497  1.0000
  Zn  Zn2       1.0  0.13885  0.58372  0.9829  1.0000
  Zn  Zn3       1.0  0.19262  0.8621  0.0254  1.0000
  Zn  Zn4       1.0  0.36074  0.91605  0.98303  1.0000
  Zn  Zn5       1.0  0.19224  0.63751  0.4747  1.0000
  Zn  Zn6       1.0  0.36076  0.58369  0.518  1.0000
  Zn  Zn7       1.0  0.30822  0.86183  0.4746  1.0000
  Zn  Zn8       1.0  0.1393  0.91644  0.51674  1.0000
  Zn  Zn9       1.0  0.02501  0.30779  0.63698  1.0000
  Zn  Zn10      1.0  0.9827900000000002  0.13869  0.5836499999999998  1.0000
  Zn  Zn11      1.0  0.02539  0.19265  0.86211  1.0000
  Zn  Zn12      1.0  0.98299  0.36074  0.91606  1.0000
  Zn  Zn13      1.0  0.47505  0.19216  0.63755  1.0000
  Zn  Zn14      1.0  0.51794  0.36078  0.5835  1.0000
  Zn  Zn15      1.0  0.4746200000000001  0.30827  0.86183  1.0000
  Zn  Zn16      1.0  0.51712  0.14022  0.91644  1.0000
  Zn  Zn17      1.0  0.63707  0.02497  0.30769  1.0000
  Zn  Zn18      1.0  0.58378  0.9827900000000002  0.13869  1.0000
  Zn  Zn19      1.0  0.8621000000000002  0.02539  0.19263999999999995  1.0000
  Zn  Zn20      1.0  0.91605  0.98302  0.3607999999999999  1.0000
  Zn  Zn21      1.0  0.63753  0.47465  0.19222  1.0000
  Zn  Zn22      1.0  0.58361  0.5179499999999999  0.36073  1.0000
  Zn  Zn23      1.0  0.86188  0.4745199999999999  0.3081799999999999  1.0000
  Zn  Zn24      1.0  0.9164100000000002  0.51671  0.13936  1.0000
  Zn  Zn25      1.0  0.63733  0.30799  0.4752999999999999  1.0000
  Zn  Zn26      1.0  0.58368  0.13886  0.51784  1.0000
  Zn  Zn27      1.0  0.86188  0.19231  0.47418  1.0000
  Zn  Zn28      1.0  0.9162  0.36068  0.5168  1.0000
  Zn  Zn29      1.0  0.6371  0.19247  0.02511  1.0000
  Zn  Zn30      1.0  0.58428  0.36071  0.9829899999999999  1.0000
  Zn  Zn31      1.0  0.86233  0.30804  0.0251  1.0000
  Zn  Zn32      1.0  0.91627  0.13984  0.98272  1.0000
  Zn  Zn33      1.0  0.30812  0.025089999999999994  0.8624999999999998  1.0000
  Zn  Zn34      1.0  0.14012  0.9827499999999999  0.9162  1.0000
  Zn  Zn35      1.0  0.19247  0.02512  0.6370299999999999  1.0000
  Zn  Zn36      1.0  0.36093  0.9829499999999999  0.58436  1.0000
  Zn  Zn37      1.0  0.19242  0.47421  0.86189  1.0000
  Zn  Zn38      1.0  0.36065  0.51666  0.91616  1.0000
  Zn  Zn39      1.0  0.3079600000000001  0.47521999999999986  0.63743  1.0000
  Zn  Zn40      1.0  0.13881  0.51793  0.58336  1.0000
  Zn  Zn41      1.0  0.02507  0.63679  0.1924  1.0000
  Zn  Zn42      1.0  0.983  0.5843  0.36073  1.0000
  Zn  Zn43      1.0  0.02505  0.86216  0.3081699999999999  1.0000
  Zn  Zn44      1.0  0.9827500000000001  0.9162799999999999  0.14038  1.0000
  Zn  Zn45      1.0  0.47522  0.63741  0.30799  1.0000
  Zn  Zn46      1.0  0.51791  0.58338  0.13892999999999997  1.0000
  Zn  Zn47      1.0  0.47422  0.86182  0.1924  1.0000
  Zn  Zn48      1.0  0.51688  0.91615  0.36076999999999987  1.0000
  Zn  Zn49      1.0  0.69228  0.36293  0.9749899999999999  1.0000
  Zn  Zn50      1.0  0.8612  0.41621  0.017079999999999994  1.0000
  Zn  Zn51      1.0  0.8074000000000002  0.13794  0.97459  1.0000
  Zn  Zn52      1.0  0.63932  0.08394999999999998  0.017  1.0000
  Zn  Zn53      1.0  0.8078300000000003  0.36247  0.52506  1.0000
  Zn  Zn54      1.0  0.63921  0.41645  0.4819999999999999  1.0000
  Zn  Zn55      1.0  0.69177  0.13811  0.52543  1.0000
  Zn  Zn56      1.0  0.86083  0.0835  0.4833  1.0000
  Zn  Zn57      1.0  0.9749999999999999  0.69217  0.36292999999999986  1.0000
  Zn  Zn58      1.0  0.01707  0.86123  0.41625999999999996  1.0000
  Zn  Zn59      1.0  0.9747400000000002  0.80748  0.1371  1.0000
  Zn  Zn60      1.0  0.01709  0.63941  0.08389  1.0000
  Zn  Zn61      1.0  0.52533  0.8077  0.36251  1.0000
  Zn  Zn62      1.0  0.48209  0.63924  0.4166  1.0000
  Zn  Zn63      1.0  0.52543  0.69174  0.13816  1.0000
  Zn  Zn64      1.0  0.4829500000000001  0.85977  0.08351  1.0000
  Zn  Zn65      1.0  0.3629500000000001  0.9750299999999998  0.69231  1.0000
  Zn  Zn66      1.0  0.41614  0.01711  0.86133  1.0000
  Zn  Zn67      1.0  0.13784  0.9746299999999999  0.8073699999999998  1.0000
  Zn  Zn68      1.0  0.08396  0.01695  0.63925  1.0000
  Zn  Zn69      1.0  0.36255  0.52542  0.80768  1.0000
  Zn  Zn70      1.0  0.41664  0.48204  0.63923  1.0000
  Zn  Zn71      1.0  0.13809  0.52546  0.6917799999999997  1.0000
  Zn  Zn72      1.0  0.08357  0.48325  0.8608  1.0000
  Zn  Zn73      1.0  0.36259000000000013  0.69203  0.5247599999999998  1.0000
  Zn  Zn74      1.0  0.41658  0.86113  0.48209999999999986  1.0000
  Zn  Zn75      1.0  0.13815  0.80762  0.52581  1.0000
  Zn  Zn76      1.0  0.08384  0.63935  0.48318  1.0000
  Zn  Zn77      1.0  0.36289  0.8075  0.97487  1.0000
  Zn  Zn78      1.0  0.41572  0.63921  0.01704  1.0000
  Zn  Zn79      1.0  0.13779  0.69189  0.97492  1.0000
  Zn  Zn80      1.0  0.0838  0.85999  0.01723  1.0000
  Zn  Zn81      1.0  0.69191  0.9748799999999999  0.1376  1.0000
  Zn  Zn82      1.0  0.8597300000000002  0.01716  0.08382  1.0000
  Zn  Zn83      1.0  0.80756  0.9749  0.3630199999999999  1.0000
  Zn  Zn84      1.0  0.63917  0.01708  0.4157499999999999  1.0000
  Zn  Zn85      1.0  0.80759  0.5257399999999999  0.13814  1.0000
  Zn  Zn86      1.0  0.63934  0.48338  0.08383  1.0000
  Zn  Zn87      1.0  0.69204  0.52474  0.36259  1.0000
  Zn  Zn88      1.0  0.8612  0.48210999999999987  0.41655  1.0000
  Zn  Zn89      1.0  0.97496  0.36297  0.8075299999999997  1.0000
  Zn  Zn90      1.0  0.01705  0.41586  0.6391599999999998  1.0000
  Zn  Zn91      1.0  0.9749000000000001  0.13769  0.69191  1.0000
  Zn  Zn92      1.0  0.017300000000000006  0.08376  0.8599699999999998  1.0000
  Zn  Zn93      1.0  0.52475  0.36261  0.6919799999999999  1.0000
  Zn  Zn94      1.0  0.48212  0.41663  0.86117  1.0000
  Zn  Zn95      1.0  0.52578  0.13815  0.80762  1.0000
  Zn  Zn96      1.0  0.48315  0.08375  0.6391999999999999  1.0000
  Zn  Zn97      1.0  0.24927  0.41501  0.08677  1.0000
  Zn  Zn98      1.0  0.2494  0.08663  0.08522  1.0000
  Zn  Zn99      1.0  0.24919  0.41364  0.41529  1.0000
  Zn  Zn100     1.0  0.24968  0.08573  0.41436  1.0000
  Zn  Zn101     1.0  0.08688  0.24924  0.41512  1.0000
  Zn  Zn102     1.0  0.08536  0.24970999999999996  0.08608  1.0000
  Zn  Zn103     1.0  0.4151200000000001  0.24926  0.4136199999999999  1.0000
  Zn  Zn104     1.0  0.41394  0.24953000000000003  0.0855  1.0000
  Zn  Zn105     1.0  0.4151300000000001  0.08676  0.24924  1.0000
  Zn  Zn106     1.0  0.08662  0.08522  0.24954999999999997  1.0000
  Zn  Zn107     1.0  0.41365  0.41526  0.24922999999999998  1.0000
  Zn  Zn108     1.0  0.0863  0.4146  0.24991  1.0000
  Zn  Zn109     1.0  0.7507000000000003  0.58532  0.9132099999999997  1.0000
  Zn  Zn110     1.0  0.75042  0.91341  0.9146999999999997  1.0000
  Zn  Zn111     1.0  0.7507400000000002  0.58635  0.58485  1.0000
  Zn  Zn112     1.0  0.75034  0.9142  0.5861199999999998  1.0000
  Zn  Zn113     1.0  0.913  0.75088  0.5853  1.0000
  Zn  Zn114     1.0  0.9149500000000003  0.75062  0.9131899999999997  1.0000
  Zn  Zn115     1.0  0.58481  0.7508  0.58635  1.0000
  Zn  Zn116     1.0  0.58605  0.75052  0.9147599999999998  1.0000
  Zn  Zn117     1.0  0.58473  0.91301  0.7508099999999998  1.0000
  Zn  Zn118     1.0  0.91344  0.9148  0.7506  1.0000
  Zn  Zn119     1.0  0.5863  0.58506  0.75082  1.0000
  Zn  Zn120     1.0  0.91411  0.58563  0.7501699999999998  1.0000
  P   P1        1.0  0.20353  0.6386  0.02844  1.0000
  P   P2        1.0  0.1345  0.49487  0.94032  1.0000
  P   P3        1.0  0.29647  0.86162  0.02782  1.0000
  P   P4        1.0  0.36521  0.00498  0.9412199999999997  1.0000
  P   P5        1.0  0.29621000000000003  0.63878  0.47214  1.0000
  P   P6        1.0  0.36536000000000013  0.4949299999999999  0.55923  1.0000
  P   P7        1.0  0.204  0.86175  0.47221  1.0000
  P   P8        1.0  0.13533  0.00512  0.55876  1.0000
  P   P9        1.0  0.02823  0.20358  0.63861  1.0000
  P   P10       1.0  0.9403200000000003  0.13451  0.49497  1.0000
  P   P11       1.0  0.02783  0.29647  0.86163  1.0000
  P   P12       1.0  0.94108  0.36522  0.004919999999999998  1.0000
  P   P13       1.0  0.4721700000000001  0.29619  0.6387799999999998  1.0000
  P   P14       1.0  0.5592000000000003  0.36534  0.49510999999999994  1.0000
  P   P15       1.0  0.47211  0.20415  0.86163  1.0000
  P   P16       1.0  0.55882  0.13536  0.00511  1.0000
  P   P17       1.0  0.63863  0.02828  0.20351999999999995  1.0000
  P   P18       1.0  0.49483  0.93989  0.13424  1.0000
  P   P19       1.0  0.86159  0.0278  0.29651  1.0000
  P   P20       1.0  0.004889999999999999  0.9410499999999998  0.3651899999999999  1.0000
  P   P21       1.0  0.63879  0.47213  0.29619  1.0000
  P   P22       1.0  0.49498000000000003  0.5592  0.36536999999999986  1.0000
  P   P23       1.0  0.8617300000000002  0.4722  0.20401  1.0000
  P   P24       1.0  0.00511  0.55871  0.135  1.0000
  P   P25       1.0  0.63861  0.20368  0.47195  1.0000
  P   P26       1.0  0.49498000000000003  0.13534  0.55941  1.0000
  P   P27       1.0  0.86106  0.29624  0.47203  1.0000
  P   P28       1.0  0.00491  0.36543  0.55864  1.0000
  P   P29       1.0  0.63906  0.29629  0.027779999999999992  1.0000
  P   P30       1.0  0.49506  0.36515  0.9408599999999998  1.0000
  P   P31       1.0  0.86198  0.20391  0.02768  1.0000
  P   P32       1.0  0.00514  0.13507999999999998  0.9401499999999998  1.0000
  P   P33       1.0  0.204  0.02774  0.86205  1.0000
  P   P34       1.0  0.13481  0.94032  0.00521  1.0000
  P   P35       1.0  0.2963  0.02767  0.6390599999999997  1.0000
  P   P36       1.0  0.36515  0.94086  0.49511999999999995  1.0000
  P   P37       1.0  0.29629  0.47197  0.86144  1.0000
  P   P38       1.0  0.36541  0.55877  0.00469  1.0000
  P   P39       1.0  0.20372  0.47206  0.63863  1.0000
  P   P40       1.0  0.13542  0.55943  0.49493  1.0000
  P   P41       1.0  0.02777  0.63905  0.29625  1.0000
  P   P42       1.0  0.9409400000000002  0.49506000000000006  0.36509  1.0000
  P   P43       1.0  0.02782  0.86182  0.20397  1.0000
  P   P44       1.0  0.9401  0.00524  0.13535  1.0000
  P   P45       1.0  0.47197  0.6386  0.20371999999999996  1.0000
  P   P46       1.0  0.55941  0.49494  0.13542999999999994  1.0000
  P   P47       1.0  0.47212  0.86142  0.29628  1.0000
  P   P48       1.0  0.5588  0.00461  0.3653899999999999  1.0000
  P   P49       1.0  0.79651  0.36138  0.9715599999999998  1.0000
  P   P50       1.0  0.86551  0.5051  0.05978  1.0000
  P   P51       1.0  0.70354  0.13837  0.97216  1.0000
  P   P52       1.0  0.63479  0.99509  0.05891  1.0000
  P   P53       1.0  0.70379  0.36123  0.52785  1.0000
  P   P54       1.0  0.63463  0.50505  0.44074  1.0000
  P   P55       1.0  0.79599  0.13825  0.52778  1.0000
  P   P56       1.0  0.86463  0.99488  0.44126  1.0000
  P   P57       1.0  0.97158  0.79642  0.36143  1.0000
  P   P58       1.0  0.059720000000000016  0.86552  0.50504  1.0000
  P   P59       1.0  0.97224  0.70352  0.13842  1.0000
  P   P60       1.0  0.05903000000000001  0.63477  0.9950499999999999  1.0000
  P   P61       1.0  0.52786  0.70381  0.3612299999999999  1.0000
  P   P62       1.0  0.44081  0.63464  0.5051  1.0000
  P   P63       1.0  0.52789  0.79586  0.13837  1.0000
  P   P64       1.0  0.44121  0.86468  0.9948199999999999  1.0000
  P   P65       1.0  0.36145  0.9716099999999998  0.79653  1.0000
  P   P66       1.0  0.50518  0.06008  0.86562  1.0000
  P   P67       1.0  0.13837  0.9722000000000001  0.70352  1.0000
  P   P68       1.0  0.99511  0.05894  0.63479  1.0000
  P   P69       1.0  0.36125  0.52785  0.70379  1.0000
  P   P70       1.0  0.50508  0.44079  0.6345999999999998  1.0000
  P   P71       1.0  0.13825  0.52777  0.79601  1.0000
  P   P72       1.0  0.99488  0.44127  0.86474  1.0000
  P   P73       1.0  0.36139  0.79626  0.52799  1.0000
  P   P74       1.0  0.50502  0.86456  0.44062  1.0000
  P   P75       1.0  0.13856  0.70373  0.52803  1.0000
  P   P76       1.0  0.99524  0.63458  0.44126  1.0000
  P   P77       1.0  0.36095  0.7037099999999997  0.9722699999999999  1.0000
  P   P78       1.0  0.50486  0.63478  0.05927  1.0000
  P   P79       1.0  0.13796  0.79601  0.9722899999999999  1.0000
  P   P80       1.0  0.99486  0.86586  0.05976  1.0000
  P   P81       1.0  0.79598  0.9721000000000001  0.13809  1.0000
  P   P82       1.0  0.86501  0.05965  0.9948899999999999  1.0000
  P   P83       1.0  0.70373  0.9723  0.3609499999999999  1.0000
  P   P84       1.0  0.63483  0.0591  0.50488  1.0000
  P   P85       1.0  0.7037600000000003  0.528  0.13865  1.0000
  P   P86       1.0  0.63455  0.4413  0.99513  1.0000
  P   P87       1.0  0.79633  0.52798  0.36139  1.0000
  P   P88       1.0  0.8646100000000001  0.44059  0.50498  1.0000
  P   P89       1.0  0.9723  0.36098  0.70371  1.0000
  P   P90       1.0  0.05913  0.50502  0.63486  1.0000
  P   P91       1.0  0.9723700000000001  0.13811  0.7960399999999997  1.0000
  P   P92       1.0  0.05981  0.9947899999999998  0.8648  1.0000
  P   P93       1.0  0.52798  0.36142  0.7962799999999998  1.0000
  P   P94       1.0  0.44059  0.50505  0.8645899999999997  1.0000
  P   P95       1.0  0.52782  0.13913  0.70375  1.0000
  P   P96       1.0  0.44136  0.99509  0.6347399999999999  1.0000
  H   H1        1.0  0.12772  0.6388  0.0686  1.0000
  H   H2        1.0  0.25327  0.65262  0.10372  1.0000
  H   H3        1.0  0.23160000000000006  0.6598  0.17591  1.0000
  H   H4        1.0  0.15806  0.6555  0.19403  1.0000
  H   H5        1.0  0.17800000000000005  0.45588  0.00577  1.0000
  H   H6        1.0  0.07003  0.43098  0.93508  1.0000
  H   H7        1.0  0.05793  0.36941  0.97583  1.0000
  H   H8        1.0  0.10564  0.34995  0.031179999999999996  1.0000
  H   H9        1.0  0.37257  0.86093  0.06823  1.0000
  H   H10       1.0  0.24674  0.84729  0.10275  1.0000
  H   H11       1.0  0.26809  0.8404799999999998  0.17499999999999993  1.0000
  H   H12       1.0  0.34164  0.84425  0.19343  1.0000
  H   H13       1.0  0.3217600000000001  0.04374  0.00606  1.0000
  H   H14       1.0  0.4296900000000001  0.06945  0.9356299999999997  1.0000
  H   H15       1.0  0.44138  0.13103  0.9766699999999999  1.0000
  H   H16       1.0  0.39347  0.1501  0.03187  1.0000
  H   H17       1.0  0.37218  0.6388  0.4315199999999999  1.0000
  H   H18       1.0  0.24639000000000003  0.65269  0.39692  1.0000
  H   H19       1.0  0.2678  0.65976  0.32483  1.0000
  H   H20       1.0  0.34129  0.65546  0.3062999999999999  1.0000
  H   H21       1.0  0.32185  0.45588  0.49396  1.0000
  H   H22       1.0  0.42982  0.43094  0.56433  1.0000
  H   H23       1.0  0.44174000000000013  0.36915  0.52344  1.0000
  H   H24       1.0  0.39341  0.34979  0.46815  1.0000
  H   H25       1.0  0.12725  0.86127  0.43174  1.0000
  H   H26       1.0  0.2529700000000001  0.84776  0.39686  1.0000
  H   H27       1.0  0.23143000000000005  0.84035  0.32476  1.0000
  H   H28       1.0  0.15776  0.84417  0.3065  1.0000
  H   H29       1.0  0.17743  0.04414  0.49405  1.0000
  H   H30       1.0  0.06974  0.06944  0.56474  1.0000
  H   H31       1.0  0.05802  0.13107  0.52396  1.0000
  H   H32       1.0  0.10561000000000002  0.15036  0.4686099999999999  1.0000
  H   H33       1.0  0.06849  0.12767  0.6386599999999998  1.0000
  H   H34       1.0  0.10362000000000003  0.25326  0.65254  1.0000
  H   H35       1.0  0.1758  0.23155  0.65982  1.0000
  H   H36       1.0  0.19394  0.15804  0.65549  1.0000
  H   H37       1.0  0.00575  0.17798  0.45599  1.0000
  H   H38       1.0  0.9350300000000002  0.07003  0.4310699999999999  1.0000
  H   H39       1.0  0.97579  0.05789  0.36947  1.0000
  H   H40       1.0  0.0311  0.10573  0.35005999999999987  1.0000
  H   H41       1.0  0.06816  0.37252  0.86092  1.0000
  H   H42       1.0  0.10281  0.24673  0.8473  1.0000
  H   H43       1.0  0.17503  0.26816  0.8404599999999998  1.0000
  H   H44       1.0  0.19342  0.34169  0.84426  1.0000
  H   H45       1.0  0.00604  0.32178  0.04374999999999998  1.0000
  H   H46       1.0  0.93563  0.42966  0.06939999999999998  1.0000
  H   H47       1.0  0.97668  0.44146  0.13094  1.0000
  H   H48       1.0  0.03183  0.3934999999999999  0.15012  1.0000
  H   H49       1.0  0.43152  0.37224  0.63879  1.0000
  H   H50       1.0  0.39694  0.24642  0.65269  1.0000
  H   H51       1.0  0.32484  0.2678  0.65974  1.0000
  H   H52       1.0  0.30628  0.34131  0.65545  1.0000
  H   H53       1.0  0.49394000000000005  0.32181  0.45583999999999997  1.0000
  H   H54       1.0  0.5643500000000002  0.42978  0.4309  1.0000
  H   H55       1.0  0.52345  0.44173  0.36918  1.0000
  H   H56       1.0  0.46816  0.39342  0.34982999999999986  1.0000
  H   H57       1.0  0.43178000000000005  0.12729  0.86128  1.0000
  H   H58       1.0  0.39685000000000004  0.25297  0.8477499999999998  1.0000
  H   H59       1.0  0.32473  0.2314  0.84035  1.0000
  H   H60       1.0  0.30646  0.15778  0.84419  1.0000
  H   H61       1.0  0.49410999999999994  0.17757  0.044049999999999985  1.0000
  H   H62       1.0  0.5647400000000001  0.06986  0.06937999999999997  1.0000
  H   H63       1.0  0.52391  0.05812  0.13102  1.0000
  H   H64       1.0  0.46854  0.10579  0.15025  1.0000
  H   H65       1.0  0.6387000000000003  0.06855  0.1277  1.0000
  H   H66       1.0  0.6525600000000003  0.1037  0.25324  1.0000
  H   H67       1.0  0.6598100000000002  0.17586  0.23155  1.0000
  H   H68       1.0  0.65548  0.19399  0.15803  1.0000
  H   H69       1.0  0.4559800000000001  0.00569  0.17788  1.0000
  H   H70       1.0  0.431  0.93504  0.06991999999999997  1.0000
  H   H71       1.0  0.36933  0.97575  0.05792  1.0000
  H   H72       1.0  0.34999  0.03112  0.10568999999999998  1.0000
  H   H73       1.0  0.86086  0.06813  0.37254  1.0000
  H   H74       1.0  0.8472300000000003  0.10276  0.24676  1.0000
  H   H75       1.0  0.8405  0.17501  0.26814  1.0000
  H   H76       1.0  0.84436  0.19338  0.34173  1.0000
  H   H77       1.0  0.04369  0.005959999999999999  0.3217499999999999  1.0000
  H   H78       1.0  0.06943  0.9356  0.42965  1.0000
  H   H79       1.0  0.13108  0.9766799999999999  0.44139  1.0000
  H   H80       1.0  0.15005  0.0319  0.39343  1.0000
  H   H81       1.0  0.63881  0.43151  0.37214999999999987  1.0000
  H   H82       1.0  0.65268  0.39689  0.24636999999999998  1.0000
  H   H83       1.0  0.65974  0.32483  0.26778  1.0000
  H   H84       1.0  0.65548  0.30626  0.3411999999999999  1.0000
  H   H85       1.0  0.4559  0.4939299999999999  0.32184999999999997  1.0000
  H   H86       1.0  0.43096  0.56435  0.42979  1.0000
  H   H87       1.0  0.3691600000000001  0.52348  0.44177  1.0000
  H   H88       1.0  0.3497900000000001  0.46816  0.39341  1.0000
  H   H89       1.0  0.86133  0.4317999999999999  0.12726  1.0000
  H   H90       1.0  0.84784  0.39683  0.25296  1.0000
  H   H91       1.0  0.84032  0.32477  0.23135  1.0000
  H   H92       1.0  0.8441200000000002  0.30656  0.15769  1.0000
  H   H93       1.0  0.04409  0.49409  0.17757  1.0000
  H   H94       1.0  0.06967  0.56453  0.06978  1.0000
  H   H95       1.0  0.13127  0.52358  0.05814  1.0000
  H   H96       1.0  0.15044  0.4684  0.10599  1.0000
  H   H97       1.0  0.6387600000000001  0.12737  0.43174  1.0000
  H   H98       1.0  0.6525000000000002  0.25299  0.39669  1.0000
  H   H99       1.0  0.65968  0.23127999999999996  0.32455  1.0000
  H   H100      1.0  0.65543  0.15767  0.30638999999999994  1.0000
  H   H101      1.0  0.45588  0.17799  0.49388999999999994  1.0000
  H   H102      1.0  0.43117  0.07021  0.56468  1.0000
  H   H103      1.0  0.36933  0.05797  0.52406  1.0000
  H   H104      1.0  0.34988  0.10581  0.4686099999999999  1.0000
  H   H105      1.0  0.86096  0.37231  0.4314599999999999  1.0000
  H   H106      1.0  0.8474  0.24643999999999996  0.39701  1.0000
  H   H107      1.0  0.84045  0.26766  0.32479  1.0000
  H   H108      1.0  0.8442000000000001  0.34122  0.3062799999999999  1.0000
  H   H109      1.0  0.04406  0.32228  0.49416  1.0000
  H   H110      1.0  0.0696  0.43031  0.5644599999999999  1.0000
  H   H111      1.0  0.13129  0.44188  0.52356  1.0000
  H   H112      1.0  0.15036  0.39382  0.4683099999999999  1.0000
  H   H113      1.0  0.6392  0.3722  0.06809  1.0000
  H   H114      1.0  0.6531  0.24655999999999997  0.10292999999999997  1.0000
  H   H115      1.0  0.65957  0.26813  0.17516999999999996  1.0000
  H   H116      1.0  0.65527  0.34159  0.19348  1.0000
  H   H117      1.0  0.456  0.32135  0.0061  1.0000
  H   H118      1.0  0.43099  0.42926  0.93564  1.0000
  H   H119      1.0  0.3695100000000001  0.44144  0.9766699999999999  1.0000
  H   H120      1.0  0.34996  0.39343  0.031709999999999995  1.0000
  H   H121      1.0  0.86123  0.12726  0.06817  1.0000
  H   H122      1.0  0.8476200000000003  0.25299  0.10280999999999997  1.0000
  H   H123      1.0  0.84036  0.2317  0.17496999999999993  1.0000
  H   H124      1.0  0.84427  0.15822  0.19342  1.0000
  H   H125      1.0  0.04364000000000001  0.17756  0.005469999999999998  1.0000
  H   H126      1.0  0.06966  0.06962  0.9351699999999997  1.0000
  H   H127      1.0  0.13116000000000003  0.05847  0.97624  1.0000
  H   H128      1.0  0.14995  0.10615  0.03164  1.0000
  H   H129      1.0  0.1273  0.06823  0.86123  1.0000
  H   H130      1.0  0.25308  0.10281  0.8476299999999998  1.0000
  H   H131      1.0  0.23183  0.17497  0.84039  1.0000
  H   H132      1.0  0.15834  0.19348  0.84419  1.0000
  H   H133      1.0  0.17765000000000006  0.005749999999999999  0.04374999999999998  1.0000
  H   H134      1.0  0.06979  0.9353  0.06969  1.0000
  H   H135      1.0  0.05845  0.9763000000000001  0.13122999999999996  1.0000
  H   H136      1.0  0.10608  0.03166  0.15011  1.0000
  H   H137      1.0  0.3722800000000001  0.06818  0.63923  1.0000
  H   H138      1.0  0.24652999999999997  0.10295  0.65309  1.0000
  H   H139      1.0  0.26809  0.17515  0.65958  1.0000
  H   H140      1.0  0.34157  0.19355  0.65534  1.0000
  H   H141      1.0  0.32132  0.00623  0.45601  1.0000
  H   H142      1.0  0.42919  0.93565  0.4310799999999999  1.0000
  H   H143      1.0  0.4414500000000001  0.9765799999999999  0.36953  1.0000
  H   H144      1.0  0.39347  0.03166  0.3500099999999999  1.0000
  H   H145      1.0  0.3722400000000001  0.43148  0.86096  1.0000
  H   H146      1.0  0.24636  0.39695  0.8473699999999997  1.0000
  H   H147      1.0  0.26763  0.32473999999999986  0.8404199999999997  1.0000
  H   H148      1.0  0.3412  0.30626  0.84427  1.0000
  H   H149      1.0  0.32218  0.49413  0.04397  1.0000
  H   H150      1.0  0.43022  0.56453  0.06952  1.0000
  H   H151      1.0  0.44183  0.52364  0.13113999999999995  1.0000
  H   H152      1.0  0.39381  0.46835  0.15021  1.0000
  H   H153      1.0  0.12741  0.4317999999999999  0.6387599999999998  1.0000
  H   H154      1.0  0.25306  0.39674  0.65251  1.0000
  H   H155      1.0  0.23131  0.32461  0.65967  1.0000
  H   H156      1.0  0.15771  0.30644  0.6554  1.0000
  H   H157      1.0  0.17802000000000004  0.49387  0.45595  1.0000
  H   H158      1.0  0.07027  0.5646899999999998  0.4312699999999999  1.0000
  H   H159      1.0  0.057990000000000014  0.52407  0.36943  1.0000
  H   H160      1.0  0.10579  0.46866  0.3499099999999999  1.0000
  H   H161      1.0  0.06816  0.63925  0.3722499999999999  1.0000
  H   H162      1.0  0.10293000000000002  0.65312  0.24657999999999997  1.0000
  H   H163      1.0  0.17518  0.65956  0.26809  1.0000
  H   H164      1.0  0.19355  0.65528  0.3415399999999999  1.0000
  H   H165      1.0  0.00638  0.45597  0.32129999999999986  1.0000
  H   H166      1.0  0.9357  0.43111  0.4291199999999999  1.0000
  H   H167      1.0  0.9765900000000001  0.36952  0.44139  1.0000
  H   H168      1.0  0.03172  0.34993  0.39343  1.0000
  H   H169      1.0  0.06832  0.8613  0.12729  1.0000
  H   H170      1.0  0.10293000000000002  0.84766  0.25303  1.0000
  H   H171      1.0  0.17512  0.8403799999999998  0.23172  1.0000
  H   H172      1.0  0.19355  0.84416  0.15824  1.0000
  H   H173      1.0  0.00583  0.04369  0.17777  1.0000
  H   H174      1.0  0.9353  0.06956  0.06995999999999997  1.0000
  H   H175      1.0  0.9763599999999999  0.1311  0.05858999999999999  1.0000
  H   H176      1.0  0.03168  0.15004  0.10619999999999997  1.0000
  H   H177      1.0  0.4317700000000001  0.63874  0.12738  1.0000
  H   H178      1.0  0.39669  0.6525  0.25299  1.0000
  H   H179      1.0  0.3245600000000001  0.65967  0.23126  1.0000
  H   H180      1.0  0.3064  0.6554199999999999  0.15765  1.0000
  H   H181      1.0  0.49381  0.45586  0.17803  1.0000
  H   H182      1.0  0.56475  0.43131  0.07029  1.0000
  H   H183      1.0  0.52412  0.36946  0.05793  1.0000
  H   H184      1.0  0.46867  0.34989  0.10572  1.0000
  H   H185      1.0  0.4315  0.86102  0.37225999999999987  1.0000
  H   H186      1.0  0.397  0.84744  0.2464  1.0000
  H   H187      1.0  0.32483  0.84037  0.26764  1.0000
  H   H188      1.0  0.30631  0.84418  0.3411999999999999  1.0000
  H   H189      1.0  0.49416  0.04397  0.32214  1.0000
  H   H190      1.0  0.56457  0.06948  0.43019  1.0000
  H   H191      1.0  0.52367  0.13107  0.44183  1.0000
  H   H192      1.0  0.4683700000000001  0.15014  0.39378999999999986  1.0000
  H   H193      1.0  0.87231  0.36126  0.93136  1.0000
  H   H194      1.0  0.74677  0.34743  0.8962099999999998  1.0000
  H   H195      1.0  0.7684500000000001  0.34021  0.82404  1.0000
  H   H196      1.0  0.84199  0.34448  0.80591  1.0000
  H   H197      1.0  0.8220000000000002  0.5441  0.9941699999999999  1.0000
  H   H198      1.0  0.92995  0.56897  0.06494  1.0000
  H   H199      1.0  0.9420700000000001  0.63058  0.024229999999999995  1.0000
  H   H200      1.0  0.8943500000000001  0.65002  0.96885  1.0000
  H   H201      1.0  0.62749  0.13908  0.93179  1.0000
  H   H202      1.0  0.75329  0.15271999999999994  0.8972399999999998  1.0000
  H   H203      1.0  0.73194  0.15954  0.8250099999999998  1.0000
  H   H204      1.0  0.6583900000000003  0.15575  0.80656  1.0000
  H   H205      1.0  0.67822  0.9563  0.994  1.0000
  H   H206      1.0  0.5702800000000001  0.93059  0.06442999999999997  1.0000
  H   H207      1.0  0.55857  0.86895  0.023379999999999995  1.0000
  H   H208      1.0  0.6065500000000003  0.84995  0.96815  1.0000
  H   H209      1.0  0.62784  0.36117  0.5684799999999998  1.0000
  H   H210      1.0  0.75363  0.3473099999999999  0.60307  1.0000
  H   H211      1.0  0.73222  0.34027  0.67517  1.0000
  H   H212      1.0  0.6587400000000002  0.34455  0.69372  1.0000
  H   H213      1.0  0.6781400000000002  0.54413  0.50605  1.0000
  H   H214      1.0  0.57018  0.56909  0.4356299999999999  1.0000
  H   H215      1.0  0.55822  0.63084  0.47656  1.0000
  H   H216      1.0  0.6065700000000003  0.6502299999999998  0.53183  1.0000
  H   H217      1.0  0.87274  0.13873  0.56825  1.0000
  H   H218      1.0  0.74704  0.15226  0.60313  1.0000
  H   H219      1.0  0.76857  0.15968  0.67523  1.0000
  H   H220      1.0  0.84225  0.1558  0.6935  1.0000
  H   H221      1.0  0.8224  0.9559  0.50589  1.0000
  H   H222      1.0  0.93013  0.93049  0.4353199999999999  1.0000
  H   H223      1.0  0.94186  0.86886  0.47621  1.0000
  H   H224      1.0  0.89412  0.8497  0.53152  1.0000
  H   H225      1.0  0.93147  0.87241  0.3610799999999999  1.0000
  H   H226      1.0  0.8964300000000001  0.74682  0.34724  1.0000
  H   H227      1.0  0.82417  0.76842  0.34028  1.0000
  H   H228      1.0  0.80601  0.84194  0.3446  1.0000
  H   H229      1.0  0.9942200000000001  0.822  0.5439699999999997  1.0000
  H   H230      1.0  0.06498  0.92993  0.5689799999999999  1.0000
  H   H231      1.0  0.02421  0.94204  0.63057  1.0000
  H   H232      1.0  0.96887  0.89427  0.6499299999999998  1.0000
  H   H233      1.0  0.9318800000000003  0.62742  0.13911  1.0000
  H   H234      1.0  0.89728  0.75321  0.15275  1.0000
  H   H235      1.0  0.825  0.73181  0.15953  1.0000
  H   H236      1.0  0.80663  0.65821  0.15572  1.0000
  H   H237      1.0  0.9941500000000001  0.67818  0.9562899999999998  1.0000
  H   H238      1.0  0.06444  0.57017  0.93052  1.0000
  H   H239      1.0  0.02337  0.55855  0.8689099999999997  1.0000
  H   H240      1.0  0.96813  0.60658  0.85001  1.0000
  H   H241      1.0  0.5685  0.62785  0.3611899999999999  1.0000
  H   H242      1.0  0.6031300000000002  0.75364  0.34731  1.0000
  H   H243      1.0  0.67518  0.73224  0.34025  1.0000
  H   H244      1.0  0.69376  0.6588  0.34454  1.0000
  H   H245      1.0  0.50608  0.67814  0.5441499999999998  1.0000
  H   H246      1.0  0.43567  0.57021  0.56914  1.0000
  H   H247      1.0  0.47657  0.55829  0.63085  1.0000
  H   H248      1.0  0.53188  0.60657  0.65023  1.0000
  H   H249      1.0  0.56824  0.87271  0.13873999999999995  1.0000
  H   H250      1.0  0.6031500000000001  0.74706  0.15224  1.0000
  H   H251      1.0  0.67528  0.7686  0.15965999999999994  1.0000
  H   H252      1.0  0.69352  0.84226  0.15585  1.0000
  H   H253      1.0  0.50593  0.82257  0.95588  1.0000
  H   H254      1.0  0.43528  0.93029  0.9305499999999998  1.0000
  H   H255      1.0  0.47606  0.94198  0.8689299999999998  1.0000
  H   H256      1.0  0.53141  0.89437  0.84967  1.0000
  H   H257      1.0  0.36128  0.93138  0.87234  1.0000
  H   H258      1.0  0.34742  0.89628  0.74676  1.0000
  H   H259      1.0  0.34023  0.82407  0.76846  1.0000
  H   H260      1.0  0.34451  0.80593  0.84193  1.0000
  H   H261      1.0  0.54409  0.9942399999999999  0.82206  1.0000
  H   H262      1.0  0.56906  0.06494  0.93  1.0000
  H   H263      1.0  0.63067  0.02415  0.94209  1.0000
  H   H264      1.0  0.65004  0.96877  0.89426  1.0000
  H   H265      1.0  0.13911000000000004  0.9318599999999998  0.6274699999999998  1.0000
  H   H266      1.0  0.15275000000000005  0.89723  0.7532599999999998  1.0000
  H   H267      1.0  0.15952000000000002  0.82499  0.73186  1.0000
  H   H268      1.0  0.15569000000000005  0.80661  0.6582899999999998  1.0000
  H   H269      1.0  0.95632  0.9940700000000001  0.6781999999999998  1.0000
  H   H270      1.0  0.9305800000000002  0.06438  0.57028  1.0000
  H   H271      1.0  0.8689800000000002  0.02328  0.5586  1.0000
  H   H272      1.0  0.84996  0.96818  0.60657  1.0000
  H   H273      1.0  0.3612200000000001  0.56849  0.6278699999999998  1.0000
  H   H274      1.0  0.34732  0.60311  0.75365  1.0000
  H   H275      1.0  0.34025  0.67517  0.73225  1.0000
  H   H276      1.0  0.34453  0.69373  0.6588099999999998  1.0000
  H   H277      1.0  0.54421  0.50601  0.67807  1.0000
  H   H278      1.0  0.5691700000000002  0.43554  0.57012  1.0000
  H   H279      1.0  0.63086  0.47646  0.55815  1.0000
  H   H280      1.0  0.65023  0.53178  0.60634  1.0000
  H   H281      1.0  0.13876000000000005  0.56822  0.87272  1.0000
  H   H282      1.0  0.15226  0.6031399999999998  0.74706  1.0000
  H   H283      1.0  0.15966  0.67527  0.76862  1.0000
  H   H284      1.0  0.15584  0.69351  0.84226  1.0000
  H   H285      1.0  0.95584  0.50593  0.82261  1.0000
  H   H286      1.0  0.9305800000000002  0.4352  0.9302699999999998  1.0000
  H   H287      1.0  0.86895  0.47597  0.9419999999999997  1.0000
  H   H288      1.0  0.84965  0.53133  0.89453  1.0000
  H   H289      1.0  0.36124  0.87263  0.56823  1.0000
  H   H290      1.0  0.34751  0.747  0.6032999999999997  1.0000
  H   H291      1.0  0.34034  0.76873  0.6754099999999997  1.0000
  H   H292      1.0  0.34457  0.84234  0.6935899999999998  1.0000
  H   H293      1.0  0.54408  0.82196  0.50615  1.0000
  H   H294      1.0  0.56873  0.92971  0.43530999999999986  1.0000
  H   H295      1.0  0.63058  0.94201  0.47592  1.0000
  H   H296      1.0  0.6501  0.89419  0.53134  1.0000
  H   H297      1.0  0.13892000000000004  0.62769  0.5685399999999998  1.0000
  H   H298      1.0  0.15253  0.75356  0.60303  1.0000
  H   H299      1.0  0.15962  0.73236  0.67516  1.0000
  H   H300      1.0  0.15587000000000006  0.65876  0.6937099999999998  1.0000
  H   H301      1.0  0.95594  0.67781  0.50591  1.0000
  H   H302      1.0  0.9305000000000002  0.56976  0.43547999999999987  1.0000
  H   H303      1.0  0.86884  0.55814  0.47633  1.0000
  H   H304      1.0  0.84971  0.60611  0.5315899999999999  1.0000
  H   H305      1.0  0.36076  0.62772  0.93186  1.0000
  H   H306      1.0  0.34689  0.75341  0.8970799999999998  1.0000
  H   H307      1.0  0.34042  0.7319  0.8248699999999998  1.0000
  H   H308      1.0  0.34472  0.65839  0.80649  1.0000
  H   H309      1.0  0.54391  0.6784899999999999  0.99409  1.0000
  H   H310      1.0  0.56891  0.57054  0.06447999999999997  1.0000
  H   H311      1.0  0.63045  0.55844  0.023509999999999993  1.0000
  H   H312      1.0  0.64992  0.60656  0.9684199999999997  1.0000
  H   H313      1.0  0.13877  0.87268  0.93178  1.0000
  H   H314      1.0  0.15234  0.74692  0.8971799999999998  1.0000
  H   H315      1.0  0.15962  0.76821  0.8250299999999998  1.0000
  H   H316      1.0  0.15579  0.84166  0.80651  1.0000
  H   H317      1.0  0.95629  0.82246  0.9945599999999999  1.0000
  H   H318      1.0  0.93014  0.93036  0.0648  1.0000
  H   H319      1.0  0.86858  0.9415999999999998  0.02363  1.0000
  H   H320      1.0  0.84994  0.8938099999999999  0.96823  1.0000
  H   H321      1.0  0.87264  0.93174  0.13874999999999996  1.0000
  H   H322      1.0  0.7468900000000003  0.89708  0.15237  1.0000
  H   H323      1.0  0.76822  0.8248999999999999  0.15963999999999995  1.0000
  H   H324      1.0  0.8417300000000002  0.80648  0.15584  1.0000
  H   H325      1.0  0.8222900000000002  0.9942  0.9562899999999998  1.0000
  H   H326      1.0  0.93018  0.06463  0.9304299999999998  1.0000
  H   H327      1.0  0.94152  0.02368  0.8688899999999998  1.0000
  H   H328      1.0  0.89384  0.96835  0.84993  1.0000
  H   H329      1.0  0.62777  0.93187  0.36073  1.0000
  H   H330      1.0  0.75347  0.89704  0.3469  1.0000
  H   H331      1.0  0.73191  0.82484  0.34043  1.0000
  H   H332      1.0  0.6584  0.80649  0.34468  1.0000
  H   H333      1.0  0.67862  0.9938700000000001  0.54394  1.0000
  H   H334      1.0  0.57068  0.06436  0.5688399999999999  1.0000
  H   H335      1.0  0.55851  0.0235  0.63045  1.0000
  H   H336      1.0  0.6065799999999999  0.96834  0.6499699999999998  1.0000
  H   H337      1.0  0.62785  0.56853  0.13902  1.0000
  H   H338      1.0  0.75368  0.6030899999999998  0.15267  1.0000
  H   H339      1.0  0.7324  0.67531  0.15957999999999994  1.0000
  H   H340      1.0  0.65885  0.6937699999999999  0.15574  1.0000
  H   H341      1.0  0.6777300000000003  0.50584  0.95606  1.0000
  H   H342      1.0  0.56971  0.4355  0.9304299999999998  1.0000
  H   H343      1.0  0.55816  0.47641  0.86876  1.0000
  H   H344      1.0  0.6061800000000003  0.53169  0.8497599999999997  1.0000
  H   H345      1.0  0.87264  0.56826  0.3612499999999999  1.0000
  H   H346      1.0  0.74698  0.60328  0.34751  1.0000
  H   H347      1.0  0.76871  0.67542  0.34032  1.0000
  H   H348      1.0  0.84229  0.6936  0.34457  1.0000
  H   H349      1.0  0.82199  0.5062  0.54412  1.0000
  H   H350      1.0  0.9297  0.43529  0.5687199999999998  1.0000
  H   H351      1.0  0.94206  0.47589  0.63054  1.0000
  H   H352      1.0  0.89428  0.5313  0.6501  1.0000
  H   H353      1.0  0.93187  0.36079  0.6278099999999998  1.0000
  H   H354      1.0  0.89706  0.34688  0.7534799999999999  1.0000
  H   H355      1.0  0.82483  0.3404  0.73192  1.0000
  H   H356      1.0  0.8064900000000002  0.34473  0.65844  1.0000
  H   H357      1.0  0.9938100000000001  0.54404  0.6786599999999998  1.0000
  H   H358      1.0  0.06438  0.56909  0.5707699999999998  1.0000
  H   H359      1.0  0.02335  0.6305  0.55856  1.0000
  H   H360      1.0  0.9683  0.65007  0.60652  1.0000
  H   H361      1.0  0.93186  0.13866999999999996  0.87269  1.0000
  H   H362      1.0  0.89735  0.1523  0.74696  1.0000
  H   H363      1.0  0.8251500000000003  0.15962  0.7681899999999998  1.0000
  H   H364      1.0  0.80665  0.15579  0.84168  1.0000
  H   H365      1.0  0.9942100000000001  0.95632  0.82228  1.0000
  H   H366      1.0  0.06473  0.93044  0.93014  1.0000
  H   H367      1.0  0.02369  0.86896  0.94161  1.0000
  H   H368      1.0  0.96846  0.84993  0.8938599999999998  1.0000
  H   H369      1.0  0.56825  0.36126  0.87264  1.0000
  H   H370      1.0  0.60328  0.3475  0.74702  1.0000
  H   H371      1.0  0.67543  0.34032  0.76872  1.0000
  H   H372      1.0  0.69358  0.34458  0.84232  1.0000
  H   H373      1.0  0.50609  0.54405  0.82204  1.0000
  H   H374      1.0  0.43527  0.56873  0.92979  1.0000
  H   H375      1.0  0.47589  0.63058  0.9420199999999997  1.0000
  H   H376      1.0  0.53129  0.65011  0.89429  1.0000
  H   H377      1.0  0.5684900000000003  0.13911  0.6277499999999998  1.0000
  H   H378      1.0  0.60302  0.15269  0.7536  1.0000
  H   H379      1.0  0.67521  0.15954  0.73236  1.0000
  H   H380      1.0  0.6937  0.15577  0.6588  1.0000
  H   H381      1.0  0.50582  0.95597  0.67789  1.0000
  H   H382      1.0  0.4355500000000001  0.93038  0.56978  1.0000
  H   H383      1.0  0.47648  0.86874  0.55817  1.0000
  H   H384      1.0  0.53179  0.84978  0.6063099999999999  1.0000
  C   C1        1.0  0.09417  0.64461  0.14122  1.0000
  C   C2        1.0  0.13848  0.64735  0.13214999999999993  1.0000
  C   C3        1.0  0.15074  0.64363  0.09179  1.0000
  C   C4        1.0  0.19203  0.64545  0.08138  1.0000
  C   C5        1.0  0.22128  0.65139  0.1118  1.0000
  C   C6        1.0  0.20899  0.6552699999999999  0.15224  1.0000
  C   C7        1.0  0.16783  0.65299  0.16259  1.0000
  C   C8        1.0  0.17278  0.39064  0.05629  1.0000
  C   C9        1.0  0.14475  0.40206  0.022279999999999994  1.0000
  C   C10       1.0  0.15195  0.43681  0.99885  1.0000
  C   C11       1.0  0.12541  0.44755  0.96689  1.0000
  C   C12       1.0  0.09153  0.42288  0.95881  1.0000
  C   C13       1.0  0.08466  0.38792  0.9817999999999999  1.0000
  C   C14       1.0  0.11116  0.37717  0.013259999999999996  1.0000
  C   C15       1.0  0.4057  0.85449  0.14121  1.0000
  C   C16       1.0  0.36149  0.85205  0.13167  1.0000
  C   C17       1.0  0.34943000000000013  0.85599  0.09126  1.0000
  C   C18       1.0  0.30818  0.8543099999999999  0.08067  1.0000
  C   C19       1.0  0.27872  0.8484699999999997  0.11092  1.0000
  C   C20       1.0  0.29085  0.84467  0.15144  1.0000
  C   C21       1.0  0.33195  0.84668  0.16193999999999995  1.0000
  C   C22       1.0  0.32581  0.1102  0.05589  1.0000
  C   C23       1.0  0.3546300000000001  0.09785  0.02288  1.0000
  C   C24       1.0  0.3478  0.06297  0.99953  1.0000
  C   C25       1.0  0.37454  0.05235  0.96773  1.0000
  C   C26       1.0  0.40828  0.07723999999999998  0.95957  1.0000
  C   C27       1.0  0.41486  0.11224  0.9826199999999999  1.0000
  C   C28       1.0  0.3881700000000001  0.12286000000000001  0.01392  1.0000
  C   C29       1.0  0.4055  0.64459  0.3588899999999999  1.0000
  C   C30       1.0  0.3611800000000001  0.64729  0.36804  1.0000
  C   C31       1.0  0.34903  0.64354  0.40846  1.0000
  C   C32       1.0  0.30782  0.64527  0.41909  1.0000
  C   C33       1.0  0.27839  0.65134  0.38881  1.0000
  C   C34       1.0  0.29057  0.65524  0.34833  1.0000
  C   C35       1.0  0.33169  0.65295  0.33779  1.0000
  C   C36       1.0  0.3255900000000001  0.39025  0.4443699999999999  1.0000
  C   C37       1.0  0.35459  0.40182  0.4775599999999999  1.0000
  C   C38       1.0  0.34783  0.43677  0.50088  1.0000
  C   C39       1.0  0.37451  0.44755  0.5327  1.0000
  C   C40       1.0  0.40835  0.42282  0.54057  1.0000
  C   C41       1.0  0.41508  0.38782  0.51748  1.0000
  C   C42       1.0  0.38825  0.37699  0.48621999999999993  1.0000
  C   C43       1.0  0.09405  0.8546  0.3590299999999999  1.0000
  C   C44       1.0  0.1383  0.85242  0.36831  1.0000
  C   C45       1.0  0.15045  0.85665  0.40871  1.0000
  C   C46       1.0  0.19172  0.85529  0.41926  1.0000
  C   C47       1.0  0.22098  0.84914  0.38883  1.0000
  C   C48       1.0  0.20877000000000007  0.84495  0.34836  1.0000
  C   C49       1.0  0.16764000000000007  0.84688  0.33792  1.0000
  C   C50       1.0  0.1736  0.10977  0.4443499999999999  1.0000
  C   C51       1.0  0.14457  0.09805  0.47743999999999986  1.0000
  C   C52       1.0  0.15147  0.06328  0.5008299999999999  1.0000
  C   C53       1.0  0.125  0.05252  0.53277  1.0000
  C   C54       1.0  0.09116000000000003  0.07723  0.54083  1.0000
  C   C55       1.0  0.08445  0.11224  0.5178  1.0000
  C   C56       1.0  0.11103  0.12303999999999998  0.4864  1.0000
  C   C57       1.0  0.1412  0.09417  0.64459  1.0000
  C   C58       1.0  0.13206  0.13847  0.64723  1.0000
  C   C59       1.0  0.09169000000000002  0.15070999999999996  0.64345  1.0000
  C   C60       1.0  0.08124  0.192  0.64524  1.0000
  C   C61       1.0  0.11168  0.22127  0.65124  1.0000
  C   C62       1.0  0.15211  0.20896  0.65518  1.0000
  C   C63       1.0  0.16249  0.16782  0.65294  1.0000
  C   C64       1.0  0.05594  0.17287  0.39053  1.0000
  C   C65       1.0  0.02213  0.14474  0.4022  1.0000
  C   C66       1.0  0.9987400000000001  0.15196  0.43694  1.0000
  C   C67       1.0  0.96682  0.1254  0.44766  1.0000
  C   C68       1.0  0.95876  0.0915  0.42298  1.0000
  C   C69       1.0  0.9817600000000001  0.0846  0.38801  1.0000
  C   C70       1.0  0.01316  0.11114  0.3773  1.0000
  C   C71       1.0  0.14113  0.40577  0.85454  1.0000
  C   C72       1.0  0.13164  0.36154  0.8520699999999998  1.0000
  C   C73       1.0  0.09124  0.34942  0.85598  1.0000
  C   C74       1.0  0.08069  0.30816  0.8543199999999997  1.0000
  C   C75       1.0  0.11095  0.27871  0.84848  1.0000
  C   C76       1.0  0.15146  0.2909  0.8446799999999998  1.0000
  C   C77       1.0  0.16193000000000005  0.33201  0.8467099999999997  1.0000
  C   C78       1.0  0.05577  0.32584  0.11013  1.0000
  C   C79       1.0  0.022770000000000006  0.35464  0.09788999999999998  1.0000
  C   C80       1.0  0.99944  0.3478  0.06296  1.0000
  C   C81       1.0  0.9676300000000002  0.37453  0.052309999999999995  1.0000
  C   C82       1.0  0.9595  0.40826  0.07721  1.0000
  C   C83       1.0  0.98262  0.4149  0.11219999999999997  1.0000
  C   C84       1.0  0.013880000000000003  0.3882  0.12284999999999999  1.0000
  C   C85       1.0  0.35888  0.40549  0.6446  1.0000
  C   C86       1.0  0.36803  0.36118  0.64729  1.0000
  C   C87       1.0  0.40847  0.34907  0.64353  1.0000
  C   C88       1.0  0.41912  0.30786  0.6452699999999998  1.0000
  C   C89       1.0  0.3888300000000001  0.27843  0.65136  1.0000
  C   C90       1.0  0.34834  0.29059  0.65524  1.0000
  C   C91       1.0  0.33777  0.33169  0.65292  1.0000
  C   C92       1.0  0.44434  0.3259  0.39024  1.0000
  C   C93       1.0  0.47767  0.35463  0.40183  1.0000
  C   C94       1.0  0.50098  0.34779  0.43677  1.0000
  C   C95       1.0  0.53287  0.37437  0.44753  1.0000
  C   C96       1.0  0.54063  0.40828  0.42282999999999993  1.0000
  C   C97       1.0  0.5175  0.41508  0.38784  1.0000
  C   C98       1.0  0.48628000000000005  0.38828  0.37701  1.0000
  C   C99       1.0  0.35904  0.09408  0.85465  1.0000
  C   C100      1.0  0.36832  0.13832  0.85241  1.0000
  C   C101      1.0  0.40872  0.15048  0.8566299999999998  1.0000
  C   C102      1.0  0.41922  0.19177  0.85524  1.0000
  C   C103      1.0  0.38877  0.22099  0.8491199999999998  1.0000
  C   C104      1.0  0.34833  0.20876  0.8449399999999998  1.0000
  C   C105      1.0  0.33789  0.16763  0.8468699999999998  1.0000
  C   C106      1.0  0.4443  0.17366  0.10965  1.0000
  C   C107      1.0  0.4774200000000001  0.1447  0.09795999999999998  1.0000
  C   C108      1.0  0.50085  0.1516  0.06321  1.0000
  C   C109      1.0  0.53277  0.1251  0.05248  1.0000
  C   C110      1.0  0.54084  0.09126  0.0772  1.0000
  C   C111      1.0  0.51778  0.08459  0.11219999999999997  1.0000
  C   C112      1.0  0.48638000000000003  0.11118  0.12295  1.0000
  C   C113      1.0  0.6446  0.14119  0.09419  1.0000
  C   C114      1.0  0.64724  0.1321  0.13849  1.0000
  C   C115      1.0  0.64349  0.09175  0.15073  1.0000
  C   C116      1.0  0.6453  0.08129  0.19202  1.0000
  C   C117      1.0  0.65126  0.11175  0.22122999999999995  1.0000
  C   C118      1.0  0.65517  0.15218  0.20896999999999993  1.0000
  C   C119      1.0  0.65292  0.16256999999999994  0.16781  1.0000
  C   C120      1.0  0.3906200000000001  0.0561  0.17277999999999993  1.0000
  C   C121      1.0  0.40218  0.02218  0.14468  1.0000
  C   C122      1.0  0.4369400000000001  0.9987399999999999  0.15181  1.0000
  C   C123      1.0  0.4476500000000001  0.9668  0.12523  1.0000
  C   C124      1.0  0.4229  0.95877  0.09138999999999997  1.0000
  C   C125      1.0  0.38792  0.9817599999999999  0.0846  1.0000
  C   C126      1.0  0.37722  0.0132  0.11111999999999997  1.0000
  C   C127      1.0  0.85455  0.14107  0.40581  1.0000
  C   C128      1.0  0.85206  0.1316  0.36157  1.0000
  C   C129      1.0  0.85597  0.09122  0.34945  1.0000
  C   C130      1.0  0.85428  0.08066  0.3081799999999999  1.0000
  C   C131      1.0  0.84845  0.11093  0.27875  1.0000
  C   C132      1.0  0.84468  0.15144  0.29088999999999987  1.0000
  C   C133      1.0  0.84672  0.1619  0.33204  1.0000
  C   C134      1.0  0.10997  0.05590999999999999  0.3258999999999999  1.0000
  C   C135      1.0  0.09774000000000002  0.02282  0.3546799999999999  1.0000
  C   C136      1.0  0.06290000000000001  0.99939  0.3477899999999999  1.0000
  C   C137      1.0  0.05231  0.96756  0.37449999999999994  1.0000
  C   C138      1.0  0.07725000000000003  0.95949  0.40823  1.0000
  C   C139      1.0  0.11224  0.98259  0.41487  1.0000
  C   C140      1.0  0.12280000000000002  0.01392  0.38821  1.0000
  C   C141      1.0  0.6446  0.35879  0.40539  1.0000
  C   C142      1.0  0.6473300000000002  0.368  0.3611099999999999  1.0000
  C   C143      1.0  0.6435600000000002  0.40842999999999996  0.34901  1.0000
  C   C144      1.0  0.6452900000000003  0.4191  0.3078  1.0000
  C   C145      1.0  0.65135  0.38881  0.27838  1.0000
  C   C146      1.0  0.65525  0.34834  0.29053  1.0000
  C   C147      1.0  0.65297  0.33775  0.33163  1.0000
  C   C148      1.0  0.3902500000000001  0.44438  0.3257299999999999  1.0000
  C   C149      1.0  0.40184  0.47761  0.3546399999999999  1.0000
  C   C150      1.0  0.43679  0.50092  0.3478199999999999  1.0000
  C   C151      1.0  0.44756  0.53275  0.3744799999999999  1.0000
  C   C152      1.0  0.42282  0.5406  0.40832  1.0000
  C   C153      1.0  0.3878100000000001  0.51751  0.4151  1.0000
  C   C154      1.0  0.377  0.48625  0.3883  1.0000
  C   C155      1.0  0.8546  0.35906  0.09404999999999997  1.0000
  C   C156      1.0  0.85245  0.36837  0.13828  1.0000
  C   C157      1.0  0.85673  0.40874  0.15044  1.0000
  C   C158      1.0  0.85537  0.41926  0.19173  1.0000
  C   C159      1.0  0.84921  0.3888  0.22095  1.0000
  C   C160      1.0  0.84496  0.34838  0.20873  1.0000
  C   C161      1.0  0.8468800000000002  0.33794  0.16758  1.0000
  C   C162      1.0  0.1098  0.4445  0.17416  1.0000
  C   C163      1.0  0.09812  0.47743  0.14487  1.0000
  C   C164      1.0  0.06331  0.50088  0.15164  1.0000
  C   C165      1.0  0.0526  0.53271  0.12502  1.0000
  C   C166      1.0  0.0774  0.54064  0.09121  1.0000
  C   C167      1.0  0.11242  0.51757  0.08462  1.0000
  C   C168      1.0  0.12316000000000002  0.48627  0.11133  1.0000
  C   C169      1.0  0.6445900000000002  0.09402  0.3588899999999999  1.0000
  C   C170      1.0  0.64729  0.13823  0.36818  1.0000
  C   C171      1.0  0.6435600000000002  0.15043  0.40859  1.0000
  C   C172      1.0  0.64534  0.1917  0.41908  1.0000
  C   C173      1.0  0.65124  0.22099  0.38866  1.0000
  C   C174      1.0  0.65515  0.20869  0.34820999999999996  1.0000
  C   C175      1.0  0.6529300000000001  0.16756  0.3378  1.0000
  C   C176      1.0  0.3902400000000001  0.17284  0.44369  1.0000
  C   C177      1.0  0.40197  0.14481  0.4775599999999999  1.0000
  C   C178      1.0  0.43676  0.15205  0.50094  1.0000
  C   C179      1.0  0.44759  0.12567  0.53297  1.0000
  C   C180      1.0  0.42303  0.09163  0.5409  1.0000
  C   C181      1.0  0.38798  0.08463  0.5179499999999998  1.0000
  C   C182      1.0  0.3771100000000001  0.11121  0.48657999999999996  1.0000
  C   C183      1.0  0.85463  0.40532  0.3588699999999999  1.0000
  C   C184      1.0  0.85225  0.36107  0.36807  1.0000
  C   C185      1.0  0.8562100000000002  0.34906  0.40848  1.0000
  C   C186      1.0  0.85449  0.30787  0.4191  1.0000
  C   C187      1.0  0.84864  0.27839  0.38881  1.0000
  C   C188      1.0  0.8447800000000002  0.29047  0.34829  1.0000
  C   C189      1.0  0.84677  0.33157  0.33777  1.0000
  C   C190      1.0  0.11011  0.32571  0.44481999999999994  1.0000
  C   C191      1.0  0.0982  0.35497  0.47760999999999987  1.0000
  C   C192      1.0  0.06323  0.34829  0.5008699999999999  1.0000
  C   C193      1.0  0.05248  0.3750999999999999  0.53256  1.0000
  C   C194      1.0  0.0774  0.40884  0.54061  1.0000
  C   C195      1.0  0.11243000000000003  0.41541  0.51754  1.0000
  C   C196      1.0  0.12312000000000001  0.3886  0.48631  1.0000
  C   C197      1.0  0.64474  0.40568  0.14104999999999995  1.0000
  C   C198      1.0  0.64763  0.36141  0.13167  1.0000
  C   C199      1.0  0.64411  0.34919  0.09124  1.0000
  C   C200      1.0  0.6461  0.30794  0.08071  1.0000
  C   C201      1.0  0.6518600000000002  0.2785499999999999  0.11101999999999997  1.0000
  C   C202      1.0  0.65539  0.29081  0.15154  1.0000
  C   C203      1.0  0.65305  0.33192  0.16196999999999995  1.0000
  C   C204      1.0  0.38984  0.32557  0.05565  1.0000
  C   C205      1.0  0.40193  0.35423  0.02251  1.0000
  C   C206      1.0  0.4369000000000001  0.34737  0.9993199999999999  1.0000
  C   C207      1.0  0.44768000000000013  0.37404999999999994  0.96753  1.0000
  C   C208      1.0  0.42294  0.40787  0.95947  1.0000
  C   C209      1.0  0.388  0.41469  0.9825399999999999  1.0000
  C   C210      1.0  0.37716  0.38797  0.01373  1.0000
  C   C211      1.0  0.85461  0.09436  0.14107999999999996  1.0000
  C   C212      1.0  0.8523600000000002  0.13854  0.13162  1.0000
  C   C213      1.0  0.85644  0.1505  0.09115  1.0000
  C   C214      1.0  0.85497  0.19173  0.08056  1.0000
  C   C215      1.0  0.84888  0.22105  0.11092  1.0000
  C   C216      1.0  0.84481  0.20899  0.15141  1.0000
  C   C217      1.0  0.8468800000000002  0.16794999999999996  0.16195999999999994  1.0000
  C   C218      1.0  0.10845000000000003  0.17365  0.05601  1.0000
  C   C219      1.0  0.09738  0.14474  0.02265  1.0000
  C   C220      1.0  0.06275  0.15153  0.9988999999999999  1.0000
  C   C221      1.0  0.05229  0.12498  0.96684  1.0000
  C   C222      1.0  0.07721  0.09125  0.9589999999999997  1.0000
  C   C223      1.0  0.11216  0.08482  0.9822499999999998  1.0000
  C   C224      1.0  0.12262  0.11144  0.01378  1.0000
  C   C225      1.0  0.09438  0.14109  0.85459  1.0000
  C   C226      1.0  0.13858000000000006  0.13164  0.8523  1.0000
  C   C227      1.0  0.15056  0.09121  0.85642  1.0000
  C   C228      1.0  0.19181  0.0806  0.85493  1.0000
  C   C229      1.0  0.22112  0.11098  0.8488799999999997  1.0000
  C   C230      1.0  0.20907  0.15144  0.8448199999999998  1.0000
  C   C231      1.0  0.168  0.16201  0.8468  1.0000
  C   C232      1.0  0.17337  0.05631  0.10934  1.0000
  C   C233      1.0  0.14474  0.02285  0.09765  1.0000
  C   C234      1.0  0.15159  0.9992600000000001  0.0629  1.0000
  C   C235      1.0  0.12503  0.96721  0.05236  1.0000
  C   C236      1.0  0.09133  0.95919  0.0773  1.0000
  C   C237      1.0  0.08482  0.9823300000000001  0.11226999999999997  1.0000
  C   C238      1.0  0.11138  0.01382  0.12280000000000002  1.0000
  C   C239      1.0  0.4057  0.14113  0.64473  1.0000
  C   C240      1.0  0.36141  0.13172  0.6476599999999998  1.0000
  C   C241      1.0  0.34921  0.0913  0.64409  1.0000
  C   C242      1.0  0.3079500000000001  0.08069  0.64602  1.0000
  C   C243      1.0  0.2785600000000001  0.11103  0.6518199999999997  1.0000
  C   C244      1.0  0.2908  0.15154  0.65541  1.0000
  C   C245      1.0  0.33192  0.16204  0.65311  1.0000
  C   C246      1.0  0.32578  0.05585999999999999  0.3897699999999999  1.0000
  C   C247      1.0  0.35434  0.0226  0.40198  1.0000
  C   C248      1.0  0.34734  0.9993799999999999  0.43691  1.0000
  C   C249      1.0  0.37396  0.96753  0.4477  1.0000
  C   C250      1.0  0.40782  0.95945  0.42297  1.0000
  C   C251      1.0  0.4147  0.98246  0.38802  1.0000
  C   C252      1.0  0.38804  0.0137  0.3772  1.0000
  C   C253      1.0  0.40532  0.35889  0.85464  1.0000
  C   C254      1.0  0.36104  0.36807  0.85228  1.0000
  C   C255      1.0  0.349  0.40846  0.85624  1.0000
  C   C256      1.0  0.30778  0.41906  0.85457  1.0000
  C   C257      1.0  0.27834  0.38877  0.84867  1.0000
  C   C258      1.0  0.29042  0.34827  0.8447799999999998  1.0000
  C   C259      1.0  0.33155  0.33773  0.84682  1.0000
  C   C260      1.0  0.32601  0.44463  0.11008999999999997  1.0000
  C   C261      1.0  0.35498000000000013  0.47763  0.09806  1.0000
  C   C262      1.0  0.34818  0.50095  0.06314  1.0000
  C   C263      1.0  0.37487  0.5327299999999999  0.0524  1.0000
  C   C264      1.0  0.40871  0.5407  0.07727  1.0000
  C   C265      1.0  0.41534  0.51762  0.11228999999999997  1.0000
  C   C266      1.0  0.3886  0.48638999999999993  0.123  1.0000
  C   C267      1.0  0.094  0.35895  0.6446  1.0000
  C   C268      1.0  0.13824000000000006  0.36825  0.6472799999999997  1.0000
  C   C269      1.0  0.15046  0.40864  0.64351  1.0000
  C   C270      1.0  0.19177  0.41914  0.64526  1.0000
  C   C271      1.0  0.22101  0.3887  0.6512  1.0000
  C   C272      1.0  0.20874  0.34828  0.65511  1.0000
  C   C273      1.0  0.16755  0.33785  0.65292  1.0000
  C   C274      1.0  0.17278  0.44359  0.39037  1.0000
  C   C275      1.0  0.14480000000000007  0.47751  0.40203  1.0000
  C   C276      1.0  0.15207000000000007  0.50093  0.43681  1.0000
  C   C277      1.0  0.12569  0.5329799999999999  0.44761  1.0000
  C   C278      1.0  0.09168000000000003  0.54096  0.42306  1.0000
  C   C279      1.0  0.08468000000000003  0.51797  0.38803  1.0000
  C   C280      1.0  0.11122000000000003  0.48659  0.37718  1.0000
  C   C281      1.0  0.14113  0.64472  0.40563  1.0000
  C   C282      1.0  0.13173  0.64764  0.36136999999999997  1.0000
  C   C283      1.0  0.09129  0.64413  0.34921  1.0000
  C   C284      1.0  0.08072  0.6461  0.30794  1.0000
  C   C285      1.0  0.11105000000000002  0.65186  0.27858  1.0000
  C   C286      1.0  0.15156000000000006  0.65541  0.29077999999999987  1.0000
  C   C287      1.0  0.16204  0.65309  0.3319  1.0000
  C   C288      1.0  0.05579  0.38975  0.32568  1.0000
  C   C289      1.0  0.02265  0.40194  0.3542999999999999  1.0000
  C   C290      1.0  0.9995  0.43688  0.34733  1.0000
  C   C291      1.0  0.96764  0.4476799999999999  0.3739299999999999  1.0000
  C   C292      1.0  0.9595600000000002  0.42297  0.40778  1.0000
  C   C293      1.0  0.9825500000000001  0.38801  0.41466  1.0000
  C   C294      1.0  0.01379  0.37714  0.38799  1.0000
  C   C295      1.0  0.14113  0.8546  0.09433  1.0000
  C   C296      1.0  0.13171  0.8523  0.13853  1.0000
  C   C297      1.0  0.09128  0.8564099999999998  0.15053  1.0000
  C   C298      1.0  0.08069  0.8548099999999998  0.19179  1.0000
  C   C299      1.0  0.11109  0.84886  0.22107999999999994  1.0000
  C   C300      1.0  0.15156000000000006  0.84482  0.20900999999999995  1.0000
  C   C301      1.0  0.16209000000000007  0.84679  0.16793  1.0000
  C   C302      1.0  0.05636  0.10875  0.17349  1.0000
  C   C303      1.0  0.02287  0.0974  0.14482  1.0000
  C   C304      1.0  0.9991300000000001  0.06281  0.15175  1.0000
  C   C305      1.0  0.9669500000000002  0.05235  0.12532  1.0000
  C   C306      1.0  0.95915  0.0772  0.09152  1.0000
  C   C307      1.0  0.9823800000000001  0.11213  0.08497  1.0000
  C   C308      1.0  0.0139  0.12266999999999999  0.11152  1.0000
  C   C309      1.0  0.35891  0.64461  0.09401  1.0000
  C   C310      1.0  0.36821  0.64728  0.13822  1.0000
  C   C311      1.0  0.40860000000000013  0.64352  0.15042  1.0000
  C   C312      1.0  0.41909  0.6453  0.19172  1.0000
  C   C313      1.0  0.38865  0.65123  0.22095999999999993  1.0000
  C   C314      1.0  0.34823  0.65514  0.20868  1.0000
  C   C315      1.0  0.3378  0.65293  0.16753  1.0000
  C   C316      1.0  0.4436  0.39027  0.17277999999999993  1.0000
  C   C317      1.0  0.47752  0.40199  0.14478  1.0000
  C   C318      1.0  0.50091  0.43676  0.15205999999999995  1.0000
  C   C319      1.0  0.53297  0.44761  0.12570999999999993  1.0000
  C   C320      1.0  0.54096  0.42308  0.09168  1.0000
  C   C321      1.0  0.5180100000000002  0.38805  0.08464  1.0000
  C   C322      1.0  0.48658000000000007  0.37715  0.11115999999999997  1.0000
  C   C323      1.0  0.35892  0.85462  0.40531999999999996  1.0000
  C   C324      1.0  0.3681000000000001  0.85229  0.36104999999999987  1.0000
  C   C325      1.0  0.4085  0.85633  0.34903  1.0000
  C   C326      1.0  0.41915  0.85475  0.30782  1.0000
  C   C327      1.0  0.3888500000000001  0.8487699999999998  0.27839  1.0000
  C   C328      1.0  0.34834  0.8448  0.29044  1.0000
  C   C329      1.0  0.33778  0.84679  0.33156  1.0000
  C   C330      1.0  0.44461  0.11018  0.32625  1.0000
  C   C331      1.0  0.4777500000000001  0.09804  0.35499  1.0000
  C   C332      1.0  0.5010400000000003  0.06314  0.34812999999999994  1.0000
  C   C333      1.0  0.53285  0.05238  0.37479  1.0000
  C   C334      1.0  0.54077  0.07723  0.40865  1.0000
  C   C335      1.0  0.5177000000000002  0.11223  0.41532  1.0000
  C   C336      1.0  0.48644999999999994  0.12298  0.3886  1.0000
  C   C337      1.0  0.90582  0.35539  0.8586999999999998  1.0000
  C   C338      1.0  0.86153  0.3527  0.86779  1.0000
  C   C339      1.0  0.84928  0.35642  0.90816  1.0000
  C   C340      1.0  0.80801  0.35456  0.9186  1.0000
  C   C341      1.0  0.7787500000000003  0.34866  0.8881599999999997  1.0000
  C   C342      1.0  0.79106  0.34478  0.8477099999999997  1.0000
  C   C343      1.0  0.83219  0.34703  0.83735  1.0000
  C   C344      1.0  0.82729  0.60944  0.9436899999999998  1.0000
  C   C345      1.0  0.85528  0.59787  0.9777099999999999  1.0000
  C   C346      1.0  0.84808  0.56312  0.00113  1.0000
  C   C347      1.0  0.8746000000000003  0.5524  0.0331  1.0000
  C   C348      1.0  0.9084800000000002  0.57709  0.0412  1.0000
  C   C349      1.0  0.91535  0.61206  0.01821  1.0000
  C   C350      1.0  0.88887  0.62279  0.98675  1.0000
  C   C351      1.0  0.59432  0.14551  0.8588399999999998  1.0000
  C   C352      1.0  0.63854  0.14795  0.86832  1.0000
  C   C353      1.0  0.65061  0.14402  0.90874  1.0000
  C   C354      1.0  0.69186  0.14569  0.91931  1.0000
  C   C355      1.0  0.72132  0.15153  0.88907  1.0000
  C   C356      1.0  0.70917  0.15534  0.84855  1.0000
  C   C357      1.0  0.66808  0.15332  0.83806  1.0000
  C   C358      1.0  0.6740000000000003  0.88989  0.94404  1.0000
  C   C359      1.0  0.64528  0.90222  0.97716  1.0000
  C   C360      1.0  0.6521900000000003  0.93707  0.00057  1.0000
  C   C361      1.0  0.62545  0.9476899999999998  0.0324  1.0000
  C   C362      1.0  0.5917000000000002  0.92279  0.040499999999999994  1.0000
  C   C363      1.0  0.5850900000000002  0.8877699999999997  0.01745  1.0000
  C   C364      1.0  0.6117800000000001  0.87718  0.9861299999999998  1.0000
  C   C365      1.0  0.59454  0.35541  0.64116  1.0000
  C   C366      1.0  0.63884  0.35269  0.6319899999999998  1.0000
  C   C367      1.0  0.65098  0.35645  0.59156  1.0000
  C   C368      1.0  0.69218  0.35473  0.58091  1.0000
  C   C369      1.0  0.72163  0.34865  0.61118  1.0000
  C   C370      1.0  0.70945  0.34476  0.65167  1.0000
  C   C371      1.0  0.66835  0.34707  0.66223  1.0000
  C   C372      1.0  0.67424  0.6098  0.5556399999999998  1.0000
  C   C373      1.0  0.64537  0.59817  0.5223699999999998  1.0000
  C   C374      1.0  0.65216  0.56323  0.49907  1.0000
  C   C375      1.0  0.62551  0.55248  0.46722  1.0000
  C   C376      1.0  0.59165  0.5772  0.45939  1.0000
  C   C377      1.0  0.5849  0.6122  0.4825  1.0000
  C   C378      1.0  0.6117000000000002  0.62302  0.5137499999999998  1.0000
  C   C379      1.0  0.90592  0.14538  0.6409499999999998  1.0000
  C   C380      1.0  0.86167  0.14757  0.63168  1.0000
  C   C381      1.0  0.84954  0.14334  0.59128  1.0000
  C   C382      1.0  0.80828  0.14469  0.58073  1.0000
  C   C383      1.0  0.77904  0.15087  0.61117  1.0000
  C   C384      1.0  0.7912300000000002  0.15506  0.6516399999999998  1.0000
  C   C385      1.0  0.83235  0.1531  0.66209  1.0000
  C   C386      1.0  0.82624  0.89027  0.55567  1.0000
  C   C387      1.0  0.8552000000000002  0.90199  0.52252  1.0000
  C   C388      1.0  0.84835  0.93675  0.49910999999999994  1.0000
  C   C389      1.0  0.8749100000000002  0.9475  0.46725  1.0000
  C   C390      1.0  0.90874  0.92273  0.45926  1.0000
  C   C391      1.0  0.91539  0.8877  0.48226  1.0000
  C   C392      1.0  0.8887300000000002  0.87695  0.5136099999999998  1.0000
  C   C393      1.0  0.85876  0.90586  0.35537  1.0000
  C   C394      1.0  0.8679  0.86157  0.35257999999999995  1.0000
  C   C395      1.0  0.90829  0.8493699999999997  0.35625  1.0000
  C   C396      1.0  0.91871  0.80807  0.35443999999999987  1.0000
  C   C397      1.0  0.8883  0.7788  0.34848  1.0000
  C   C398      1.0  0.84785  0.79105  0.34471  1.0000
  C   C399      1.0  0.83747  0.8322  0.347  1.0000
  C   C400      1.0  0.94383  0.82716  0.60944  1.0000
  C   C401      1.0  0.9777300000000001  0.8552599999999999  0.59777  1.0000
  C   C402      1.0  0.00117  0.84804  0.56303  1.0000
  C   C403      1.0  0.03313  0.87458  0.55235  1.0000
  C   C404      1.0  0.04125  0.90846  0.57705  1.0000
  C   C405      1.0  0.018230000000000007  0.91534  0.61201  1.0000
  C   C406      1.0  0.98679  0.88885  0.62267  1.0000
  C   C407      1.0  0.85891  0.59417  0.14547999999999994  1.0000
  C   C408      1.0  0.86841  0.63841  0.14794  1.0000
  C   C409      1.0  0.9088  0.65053  0.14401  1.0000
  C   C410      1.0  0.91937  0.6918  0.1457  1.0000
  C   C411      1.0  0.88909  0.72123  0.15154  1.0000
  C   C412      1.0  0.84858  0.70907  0.15532999999999994  1.0000
  C   C413      1.0  0.8381  0.66794  0.15329  1.0000
  C   C414      1.0  0.94417  0.67384  0.88991  1.0000
  C   C415      1.0  0.97735  0.64524  0.9022399999999998  1.0000
  C   C416      1.0  0.0007299999999999999  0.65212  0.9370999999999998  1.0000
  C   C417      1.0  0.03253000000000001  0.62537  0.94768  1.0000
  C   C418      1.0  0.0406  0.59164  0.92275  1.0000
  C   C419      1.0  0.01748  0.58504  0.88776  1.0000
  C   C420      1.0  0.9862  0.61173  0.87722  1.0000
  C   C421      1.0  0.64119  0.59459  0.3554  1.0000
  C   C422      1.0  0.63204  0.63889  0.3527  1.0000
  C   C423      1.0  0.59158  0.65099  0.3564599999999999  1.0000
  C   C424      1.0  0.58092  0.69219  0.35472999999999993  1.0000
  C   C425      1.0  0.61119  0.72164  0.34867  1.0000
  C   C426      1.0  0.65168  0.70947  0.34477  1.0000
  C   C427      1.0  0.66225  0.66839  0.34706  1.0000
  C   C428      1.0  0.55561  0.67451  0.6097299999999998  1.0000
  C   C429      1.0  0.52246  0.64545  0.59822  1.0000
  C   C430      1.0  0.4991300000000001  0.65219  0.56327  1.0000
  C   C431      1.0  0.46729  0.62553  0.55252  1.0000
  C   C432      1.0  0.4594200000000001  0.59168  0.57723  1.0000
  C   C433      1.0  0.4825700000000001  0.58495  0.61221  1.0000
  C   C434      1.0  0.51381  0.61178  0.6230299999999998  1.0000
  C   C435      1.0  0.64099  0.90588  0.14537999999999995  1.0000
  C   C436      1.0  0.63169  0.86166  0.14759999999999995  1.0000
  C   C437      1.0  0.5912900000000002  0.84952  0.14337  1.0000
  C   C438      1.0  0.58078  0.80825  0.14476  1.0000
  C   C439      1.0  0.61123  0.77902  0.15086999999999995  1.0000
  C   C440      1.0  0.65168  0.79125  0.15508  1.0000
  C   C441      1.0  0.66211  0.83236  0.15314999999999995  1.0000
  C   C442      1.0  0.55564  0.82642  0.8903  1.0000
  C   C443      1.0  0.5225600000000001  0.85542  0.9019599999999998  1.0000
  C   C444      1.0  0.49912000000000006  0.8485  0.9366999999999998  1.0000
  C   C445      1.0  0.46721  0.87499  0.94744  1.0000
  C   C446      1.0  0.45916  0.90886  0.92276  1.0000
  C   C447      1.0  0.48221000000000014  0.91554  0.88776  1.0000
  C   C448      1.0  0.51358  0.88894  0.87697  1.0000
  C   C449      1.0  0.35539  0.85875  0.9058399999999998  1.0000
  C   C450      1.0  0.35272  0.86783  0.86154  1.0000
  C   C451      1.0  0.35646  0.90818  0.8492999999999998  1.0000
  C   C452      1.0  0.3546200000000001  0.91864  0.808  1.0000
  C   C453      1.0  0.34871  0.88818  0.77877  1.0000
  C   C454      1.0  0.34481  0.8477699999999998  0.79104  1.0000
  C   C455      1.0  0.34706  0.83736  0.83221  1.0000
  C   C456      1.0  0.60946  0.94379  0.82719  1.0000
  C   C457      1.0  0.59789  0.97779  0.8552499999999997  1.0000
  C   C458      1.0  0.56314  0.00125  0.84811  1.0000
  C   C459      1.0  0.5524  0.03319  0.87467  1.0000
  C   C460      1.0  0.5771400000000002  0.04119  0.9085499999999997  1.0000
  C   C461      1.0  0.6121100000000003  0.01818  0.91537  1.0000
  C   C462      1.0  0.62283  0.9867399999999998  0.88885  1.0000
  C   C463      1.0  0.14546  0.85895  0.5942  1.0000
  C   C464      1.0  0.14793000000000003  0.8684  0.6384599999999998  1.0000
  C   C465      1.0  0.14403  0.90878  0.65056  1.0000
  C   C466      1.0  0.14572  0.91936  0.6918399999999998  1.0000
  C   C467      1.0  0.15156000000000006  0.88907  0.72125  1.0000
  C   C468      1.0  0.15532  0.84858  0.7091199999999998  1.0000
  C   C469      1.0  0.15327000000000005  0.83808  0.66797  1.0000
  C   C470      1.0  0.8898200000000003  0.94416  0.67415  1.0000
  C   C471      1.0  0.90221  0.97723  0.6453499999999998  1.0000
  C   C472      1.0  0.9371  0.00061  0.65217  1.0000
  C   C473      1.0  0.9477  0.03243  0.6254599999999998  1.0000
  C   C474      1.0  0.92278  0.04051  0.59172  1.0000
  C   C475      1.0  0.8878  0.01739  0.58512  1.0000
  C   C476      1.0  0.87719  0.9861399999999999  0.61182  1.0000
  C   C477      1.0  0.35539  0.6411899999999998  0.59463  1.0000
  C   C478      1.0  0.3527  0.632  0.6389199999999998  1.0000
  C   C479      1.0  0.35648  0.59157  0.651  1.0000
  C   C480      1.0  0.35476  0.5809  0.69221  1.0000
  C   C481      1.0  0.34869  0.61119  0.72163  1.0000
  C   C482      1.0  0.34476  0.65166  0.7094999999999999  1.0000
  C   C483      1.0  0.34705  0.66225  0.6684  1.0000
  C   C484      1.0  0.60985  0.5557  0.67407  1.0000
  C   C485      1.0  0.59824  0.52235  0.64528  1.0000
  C   C486      1.0  0.5633000000000002  0.49903999999999993  0.6520799999999998  1.0000
  C   C487      1.0  0.55255  0.46717  0.6254799999999998  1.0000
  C   C488      1.0  0.57723  0.45932  0.59159  1.0000
  C   C489      1.0  0.61222  0.48243  0.58481  1.0000
  C   C490      1.0  0.62305  0.51369  0.61158  1.0000
  C   C491      1.0  0.1454  0.64095  0.90595  1.0000
  C   C492      1.0  0.14759  0.63166  0.86171  1.0000
  C   C493      1.0  0.1434  0.59128  0.84955  1.0000
  C   C494      1.0  0.14475  0.58072  0.80826  1.0000
  C   C495      1.0  0.15091  0.6112  0.77907  1.0000
  C   C496      1.0  0.15509  0.65164  0.79125  1.0000
  C   C497      1.0  0.15313  0.66211  0.83241  1.0000
  C   C498      1.0  0.8901900000000001  0.55558  0.82632  1.0000
  C   C499      1.0  0.9019100000000002  0.52253  0.85542  1.0000
  C   C500      1.0  0.9367  0.49913  0.84857  1.0000
  C   C501      1.0  0.94748  0.46724  0.8750599999999997  1.0000
  C   C502      1.0  0.92278  0.45912  0.9089  1.0000
  C   C503      1.0  0.88778  0.48218  0.91557  1.0000
  C   C504      1.0  0.8769700000000002  0.51357  0.88901  1.0000
  C   C505      1.0  0.35541  0.90598  0.64108  1.0000
  C   C506      1.0  0.35274  0.86176  0.6317899999999997  1.0000
  C   C507      1.0  0.35648  0.84956  0.59137  1.0000
  C   C508      1.0  0.35471  0.80828  0.58088  1.0000
  C   C509      1.0  0.3488  0.7790099999999999  0.61132  1.0000
  C   C510      1.0  0.34488  0.79132  0.6517599999999998  1.0000
  C   C511      1.0  0.34709  0.83245  0.66217  1.0000
  C   C512      1.0  0.60971  0.82723  0.55638  1.0000
  C   C513      1.0  0.59799  0.8552  0.52248  1.0000
  C   C514      1.0  0.56322  0.8479  0.49908  1.0000
  C   C515      1.0  0.55238  0.87427  0.46703  1.0000
  C   C516      1.0  0.57694  0.9082899999999999  0.45905  1.0000
  C   C517      1.0  0.61198  0.91531  0.4819999999999999  1.0000
  C   C518      1.0  0.6228400000000002  0.88879  0.51342  1.0000
  C   C519      1.0  0.14538  0.59466  0.6410899999999998  1.0000
  C   C520      1.0  0.14773  0.63892  0.63194  1.0000
  C   C521      1.0  0.14368  0.65093  0.59152  1.0000
  C   C522      1.0  0.14531  0.69213  0.58093  1.0000
  C   C523      1.0  0.15125  0.72159  0.61119  1.0000
  C   C524      1.0  0.15523  0.70952  0.65169  1.0000
  C   C525      1.0  0.15323  0.66842  0.66222  1.0000
  C   C526      1.0  0.8898000000000003  0.67385  0.5554399999999998  1.0000
  C   C527      1.0  0.9018700000000002  0.64498  0.5223499999999998  1.0000
  C   C528      1.0  0.93679  0.65181  0.49908  1.0000
  C   C529      1.0  0.9475700000000002  0.62509  0.46731  1.0000
  C   C530      1.0  0.92271  0.59127  0.45932  1.0000
  C   C531      1.0  0.88767  0.58463  0.48234  1.0000
  C   C532      1.0  0.87694  0.61136  0.5136  1.0000
  C   C533      1.0  0.35529  0.59432  0.8588999999999999  1.0000
  C   C534      1.0  0.35238  0.63858  0.86831  1.0000
  C   C535      1.0  0.35589  0.65078  0.90874  1.0000
  C   C536      1.0  0.35393000000000013  0.69202  0.9192999999999998  1.0000
  C   C537      1.0  0.34815  0.72142  0.8889799999999998  1.0000
  C   C538      1.0  0.3445900000000001  0.70917  0.84846  1.0000
  C   C539      1.0  0.34694  0.66806  0.838  1.0000
  C   C540      1.0  0.6100100000000003  0.67433  0.9444099999999997  1.0000
  C   C541      1.0  0.59801  0.64561  0.97763  1.0000
  C   C542      1.0  0.56303  0.65248  0.00087  1.0000
  C   C543      1.0  0.55223  0.62579  0.03267  1.0000
  C   C544      1.0  0.57697  0.59198  0.0407  1.0000
  C   C545      1.0  0.61193  0.58518  0.01765  1.0000
  C   C546      1.0  0.62275  0.61191  0.9864299999999999  1.0000
  C   C547      1.0  0.14542  0.90564  0.85893  1.0000
  C   C548      1.0  0.14769  0.86143  0.86834  1.0000
  C   C549      1.0  0.14357  0.84943  0.9088  1.0000
  C   C550      1.0  0.14503  0.8082  0.9193999999999998  1.0000
  C   C551      1.0  0.1511  0.7788599999999999  0.8890399999999998  1.0000
  C   C552      1.0  0.15517000000000006  0.79095  0.84856  1.0000
  C   C553      1.0  0.15316  0.832  0.838  1.0000
  C   C554      1.0  0.8914900000000002  0.82656  0.9436699999999998  1.0000
  C   C555      1.0  0.90258  0.85525  0.9772799999999999  1.0000
  C   C556      1.0  0.93716  0.8485  0.0011  1.0000
  C   C557      1.0  0.9475700000000002  0.87521  0.03307999999999999  1.0000
  C   C558      1.0  0.9225  0.9088  0.04095  1.0000
  C   C559      1.0  0.88756  0.9152  0.01768  1.0000
  C   C560      1.0  0.87725  0.88856  0.9861299999999998  1.0000
  C   C561      1.0  0.90569  0.85893  0.14543999999999996  1.0000
  C   C562      1.0  0.86145  0.86829  0.14773999999999998  1.0000
  C   C563      1.0  0.84944  0.90873  0.14361  1.0000
  C   C564      1.0  0.8081600000000002  0.9192799999999998  0.14517  1.0000
  C   C565      1.0  0.77886  0.88891  0.15117  1.0000
  C   C566      1.0  0.7909400000000001  0.84846  0.15520999999999993  1.0000
  C   C567      1.0  0.8320300000000003  0.83793  0.15322  1.0000
  C   C568      1.0  0.8264900000000002  0.94374  0.8911  1.0000
  C   C569      1.0  0.8552000000000002  0.9772099999999999  0.90253  1.0000
  C   C570      1.0  0.84833  0.0008699999999999998  0.9371999999999998  1.0000
  C   C571      1.0  0.8748700000000003  0.0329  0.94772  1.0000
  C   C572      1.0  0.90862  0.04081  0.9228  1.0000
  C   C573      1.0  0.91511  0.01765  0.88781  1.0000
  C   C574      1.0  0.88853  0.9861899999999999  0.87728  1.0000
  C   C575      1.0  0.59439  0.85888  0.35528  1.0000
  C   C576      1.0  0.63863  0.86831  0.3523499999999999  1.0000
  C   C577      1.0  0.65082  0.90872  0.3559  1.0000
  C   C578      1.0  0.69206  0.91931  0.35398  1.0000
  C   C579      1.0  0.72145  0.88896  0.34817  1.0000
  C   C580      1.0  0.70921  0.84846  0.34458  1.0000
  C   C581      1.0  0.6680900000000002  0.83797  0.3469  1.0000
  C   C582      1.0  0.6743300000000002  0.94418  0.61026  1.0000
  C   C583      1.0  0.6456800000000001  0.9774400000000001  0.598  1.0000
  C   C584      1.0  0.6525800000000002  0.0006699999999999999  0.56307  1.0000
  C   C585      1.0  0.6259300000000002  0.03246  0.55225  1.0000
  C   C586      1.0  0.59206  0.04057  0.5769599999999998  1.0000
  C   C587      1.0  0.58527  0.01756  0.6119399999999998  1.0000
  C   C588      1.0  0.61193  0.9863300000000002  0.62277  1.0000
  C   C589      1.0  0.59474  0.64112  0.14536999999999994  1.0000
  C   C590      1.0  0.63902  0.63197  0.14773999999999998  1.0000
  C   C591      1.0  0.65105  0.59156  0.1438  1.0000
  C   C592      1.0  0.69226  0.58094  0.14550999999999997  1.0000
  C   C593      1.0  0.7217000000000002  0.61125  0.1514  1.0000
  C   C594      1.0  0.70962  0.65176  0.15523999999999993  1.0000
  C   C595      1.0  0.66851  0.66229  0.15319999999999998  1.0000
  C   C596      1.0  0.67413  0.55539  0.88989  1.0000
  C   C597      1.0  0.64502  0.52243  0.90193  1.0000
  C   C598      1.0  0.65171  0.49913  0.93687  1.0000
  C   C599      1.0  0.6249000000000002  0.46745  0.9476099999999997  1.0000
  C   C600      1.0  0.59115  0.45937  0.92268  1.0000
  C   C601      1.0  0.58463  0.48243  0.88764  1.0000
  C   C602      1.0  0.6114  0.51366  0.87697  1.0000
  C   C603      1.0  0.9059900000000002  0.64111  0.35538  1.0000
  C   C604      1.0  0.8617700000000003  0.63181  0.35273  1.0000
  C   C605      1.0  0.84958  0.59142  0.3564999999999999  1.0000
  C   C606      1.0  0.80829  0.5809  0.35474999999999995  1.0000
  C   C607      1.0  0.77902  0.61132  0.3488  1.0000
  C   C608      1.0  0.79129  0.65175  0.34486  1.0000
  C   C609      1.0  0.8324400000000001  0.66219  0.34709  1.0000
  C   C610      1.0  0.8272100000000002  0.55637  0.6098  1.0000
  C   C611      1.0  0.85523  0.52247  0.598  1.0000
  C   C612      1.0  0.84792  0.49903999999999993  0.56324  1.0000
  C   C613      1.0  0.8742  0.46696  0.55242  1.0000
  C   C614      1.0  0.9083  0.45903  0.57691  1.0000
  C   C615      1.0  0.9153400000000003  0.482  0.61195  1.0000
  C   C616      1.0  0.88883  0.51337  0.6228499999999998  1.0000
  C   C617      1.0  0.8589500000000002  0.35529  0.59435  1.0000
  C   C618      1.0  0.8683200000000002  0.35238  0.63863  1.0000
  C   C619      1.0  0.90872  0.35592  0.65084  1.0000
  C   C620      1.0  0.91931  0.35398  0.6921  1.0000
  C   C621      1.0  0.88895  0.34816  0.72146  1.0000
  C   C622      1.0  0.84847  0.34459  0.70923  1.0000
  C   C623      1.0  0.8379800000000001  0.34693  0.6681  1.0000
  C   C624      1.0  0.94426  0.6101799999999998  0.67439  1.0000
  C   C625      1.0  0.97741  0.59806  0.6457  1.0000
  C   C626      1.0  0.0006400000000000002  0.56316  0.65264  1.0000
  C   C627      1.0  0.0325  0.55244  0.62603  1.0000
  C   C628      1.0  0.04056  0.57717  0.59218  1.0000
  C   C629      1.0  0.01748  0.61206  0.58533  1.0000
  C   C630      1.0  0.9862300000000002  0.62287  0.61199  1.0000
  C   C631      1.0  0.85896  0.14537  0.90562  1.0000
  C   C632      1.0  0.86844  0.14761  0.86143  1.0000
  C   C633      1.0  0.9088700000000001  0.14347  0.8494599999999998  1.0000
  C   C634      1.0  0.91949  0.14499  0.8082299999999998  1.0000
  C   C635      1.0  0.88915  0.15104  0.7788999999999998  1.0000
  C   C636      1.0  0.84868  0.15512  0.79092  1.0000
  C   C637      1.0  0.8381  0.15312  0.83199  1.0000
  C   C638      1.0  0.94398  0.89057  0.82645  1.0000
  C   C639      1.0  0.97727  0.9024499999999998  0.85521  1.0000
  C   C640      1.0  0.00086  0.93716  0.84832  1.0000
  C   C641      1.0  0.03297  0.9476899999999998  0.87481  1.0000
  C   C642      1.0  0.04086  0.92282  0.9086299999999998  1.0000
  C   C643      1.0  0.01768  0.88788  0.9151999999999998  1.0000
  C   C644      1.0  0.98627  0.87727  0.8885799999999998  1.0000
  C   C645      1.0  0.6411100000000002  0.35537  0.90599  1.0000
  C   C646      1.0  0.6318000000000003  0.35272  0.86178  1.0000
  C   C647      1.0  0.59141  0.3565  0.8495799999999998  1.0000
  C   C648      1.0  0.58089  0.35474  0.8083099999999999  1.0000
  C   C649      1.0  0.61133  0.3488  0.7790399999999997  1.0000
  C   C650      1.0  0.65175  0.34486  0.7913  1.0000
  C   C651      1.0  0.6621800000000002  0.34707  0.8324399999999998  1.0000
  C   C652      1.0  0.5564600000000001  0.60961  0.82725  1.0000
  C   C653      1.0  0.5225600000000001  0.59793  0.85532  1.0000
  C   C654      1.0  0.49909000000000003  0.56319  0.848  1.0000
  C   C655      1.0  0.46697  0.55243  0.8743  1.0000
  C   C656      1.0  0.45899  0.57696  0.9083299999999997  1.0000
  C   C657      1.0  0.48198  0.61196  0.9153399999999998  1.0000
  C   C658      1.0  0.51344  0.62282  0.8888599999999998  1.0000
  C   C659      1.0  0.6411100000000002  0.14537  0.59471  1.0000
  C   C660      1.0  0.6319  0.14774  0.63897  1.0000
  C   C661      1.0  0.59149  0.14382  0.65098  1.0000
  C   C662      1.0  0.58083  0.14552  0.69217  1.0000
  C   C663      1.0  0.61115  0.15138  0.72161  1.0000
  C   C664      1.0  0.65167  0.15523  0.70956  1.0000
  C   C665      1.0  0.66223  0.15319  0.66845  1.0000
  C   C666      1.0  0.55552  0.88965  0.6737799999999998  1.0000
  C   C667      1.0  0.52235  0.90188  0.64506  1.0000
  C   C668      1.0  0.49912000000000006  0.9368  0.6518199999999997  1.0000
  C   C669      1.0  0.46744  0.94755  0.62501  1.0000
  C   C670      1.0  0.4594200000000001  0.92263  0.59125  1.0000
  C   C671      1.0  0.48245  0.88761  0.58467  1.0000
  C   C672      1.0  0.51368  0.87691  0.61144  1.0000
  O   O1        1.0  0.08313000000000002  0.64433  0.17838999999999994  1.0000
  O   O2        1.0  0.07057  0.64228  0.11075  1.0000
  O   O3        1.0  0.24926  0.63765  0.02239  1.0000
  O   O4        1.0  0.18419  0.67467  0.005979999999999998  1.0000
  O   O5        1.0  0.18381  0.5974  0.0177  1.0000
  O   O6        1.0  0.19857000000000005  0.42101  0.06584  1.0000
  O   O7        1.0  0.17225  0.35758  0.07344  1.0000
  O   O8        1.0  0.14076  0.5255  0.97509  1.0000
  O   O9        1.0  0.1739  0.49084  0.91533  1.0000
  O   O10       1.0  0.09729  0.50545  0.9137499999999998  1.0000
  O   O11       1.0  0.41612  0.8546099999999999  0.17856  1.0000
  O   O12       1.0  0.4299  0.85675  0.11112999999999998  1.0000
  O   O13       1.0  0.25067  0.86229  0.02223  1.0000
  O   O14       1.0  0.3155400000000001  0.82617  0.00418  1.0000
  O   O15       1.0  0.31537  0.90339  0.01773  1.0000
  O   O16       1.0  0.30132  0.07937  0.06763  1.0000
  O   O17       1.0  0.32458  0.14462  0.07017  1.0000
  O   O18       1.0  0.35977  0.97411  0.97584  1.0000
  O   O19       1.0  0.32537  0.00958  0.9168899999999998  1.0000
  O   O20       1.0  0.40207  0.9941399999999999  0.91432  1.0000
  O   O21       1.0  0.4165000000000001  0.64435  0.3216499999999999  1.0000
  O   O22       1.0  0.4289600000000001  0.64223  0.3894899999999999  1.0000
  O   O23       1.0  0.25039  0.63831  0.4770699999999999  1.0000
  O   O24       1.0  0.31519000000000014  0.67497  0.49486  1.0000
  O   O25       1.0  0.3152000000000001  0.5977  0.4842899999999999  1.0000
  O   O26       1.0  0.29951  0.4206399999999999  0.4361  1.0000
  O   O27       1.0  0.3252400000000001  0.35735  0.4269699999999999  1.0000
  O   O28       1.0  0.35973  0.52551  0.52437  1.0000
  O   O29       1.0  0.32547  0.49100999999999995  0.58358  1.0000
  O   O30       1.0  0.40226  0.5054  0.5861599999999998  1.0000
  O   O31       1.0  0.08312000000000003  0.8546099999999999  0.32177999999999995  1.0000
  O   O32       1.0  0.07046  0.85674  0.3895899999999999  1.0000
  O   O33       1.0  0.24990000000000004  0.86117  0.47684  1.0000
  O   O34       1.0  0.18428  0.82596  0.49478999999999995  1.0000
  O   O35       1.0  0.18592  0.9032999999999998  0.4843099999999999  1.0000
  O   O36       1.0  0.19841000000000006  0.07884  0.43398  1.0000
  O   O37       1.0  0.17481  0.14357  0.4289499999999999  1.0000
  O   O38       1.0  0.14096  0.97482  0.52353  1.0000
  O   O39       1.0  0.17568  0.00991  0.58229  1.0000
  O   O40       1.0  0.0991  0.99385  0.5862599999999998  1.0000
  O   O41       1.0  0.17838  0.08321  0.64439  1.0000
  O   O42       1.0  0.11075  0.07051  0.64226  1.0000
  O   O43       1.0  0.02241  0.24933  0.63796  1.0000
  O   O44       1.0  0.00598  0.18418  0.67479  1.0000
  O   O45       1.0  0.01695  0.18401  0.59748  1.0000
  O   O46       1.0  0.06601000000000003  0.19844  0.42089  1.0000
  O   O47       1.0  0.07252  0.17242  0.35724  1.0000
  O   O48       1.0  0.97517  0.14075  0.5255  1.0000
  O   O49       1.0  0.91533  0.1739  0.49085  1.0000
  O   O50       1.0  0.9136900000000002  0.09735  0.50557  1.0000
  O   O51       1.0  0.17852000000000007  0.41615  0.85464  1.0000
  O   O52       1.0  0.11111  0.42999  0.85682  1.0000
  O   O53       1.0  0.02221  0.25069  0.86223  1.0000
  O   O54       1.0  0.0042  0.31557  0.82618  1.0000
  O   O55       1.0  0.01765  0.31542  0.90335  1.0000
  O   O56       1.0  0.06755  0.30151  0.07928999999999997  1.0000
  O   O57       1.0  0.07007000000000002  0.3245  0.14461  1.0000
  O   O58       1.0  0.97577  0.35981  0.9741299999999999  1.0000
  O   O59       1.0  0.91673  0.32542  0.009569999999999997  1.0000
  O   O60       1.0  0.91405  0.40199  0.9940999999999999  1.0000
  O   O61       1.0  0.32164  0.4165  0.64437  1.0000
  O   O62       1.0  0.38949  0.4289  0.64222  1.0000
  O   O63       1.0  0.4770100000000001  0.25038  0.6382799999999997  1.0000
  O   O64       1.0  0.49486  0.31519  0.67498  1.0000
  O   O65       1.0  0.48435000000000006  0.31517  0.59768  1.0000
  O   O66       1.0  0.4361  0.29952  0.4204299999999999  1.0000
  O   O67       1.0  0.42673  0.32618  0.35743  1.0000
  O   O68       1.0  0.52399  0.3599  0.52538  1.0000
  O   O69       1.0  0.5837100000000002  0.32544  0.49235  1.0000
  O   O70       1.0  0.5861200000000002  0.40231  0.50539  1.0000
  O   O71       1.0  0.3217600000000001  0.08315  0.85463  1.0000
  O   O72       1.0  0.3895500000000001  0.07052  0.85681  1.0000
  O   O73       1.0  0.47681  0.25002  0.86088  1.0000
  O   O74       1.0  0.49478999999999995  0.18426  0.826  1.0000
  O   O75       1.0  0.4839  0.18617  0.90333  1.0000
  O   O76       1.0  0.43372  0.19834  0.07873999999999998  1.0000
  O   O77       1.0  0.42893  0.17486  0.14357  1.0000
  O   O78       1.0  0.5236  0.14099  0.9748199999999999  1.0000
  O   O79       1.0  0.58238  0.17568999999999996  0.009909999999999997  1.0000
  O   O80       1.0  0.58636  0.09914  0.9938799999999999  1.0000
  O   O81       1.0  0.64441  0.17839  0.08317999999999998  1.0000
  O   O82       1.0  0.64225  0.11073999999999998  0.07057  1.0000
  O   O83       1.0  0.63799  0.02241  0.24926999999999996  1.0000
  O   O84       1.0  0.67477  0.005959999999999999  0.18412  1.0000
  O   O85       1.0  0.59745  0.01714  0.18393999999999996  1.0000
  O   O86       1.0  0.42096  0.0655  0.19866  1.0000
  O   O87       1.0  0.3576  0.07312  0.1722  1.0000
  O   O88       1.0  0.52568  0.9744299999999999  0.14035  1.0000
  O   O89       1.0  0.49079000000000006  0.91528  0.17388999999999993  1.0000
  O   O90       1.0  0.50525  0.91311  0.09719  1.0000
  O   O91       1.0  0.85466  0.17847  0.4161699999999999  1.0000
  O   O92       1.0  0.85682  0.11108  0.43003  1.0000
  O   O93       1.0  0.86194  0.02224  0.25071  1.0000
  O   O94       1.0  0.82617  0.00419  0.31568  1.0000
  O   O95       1.0  0.90338  0.01771  0.31537  1.0000
  O   O96       1.0  0.07917  0.06734  0.30129  1.0000
  O   O97       1.0  0.14428000000000005  0.0704  0.32473  1.0000
  O   O98       1.0  0.97415  0.9758000000000001  0.35979  1.0000
  O   O99       1.0  0.00955  0.91664  0.32542  1.0000
  O   O100      1.0  0.99405  0.91409  0.40202  1.0000
  O   O101      1.0  0.64431  0.32161  0.41652  1.0000
  O   O102      1.0  0.64224  0.38952  0.42875  1.0000
  O   O103      1.0  0.63834  0.47703999999999996  0.25037  1.0000
  O   O104      1.0  0.67497  0.4948600000000001  0.3151899999999999  1.0000
  O   O105      1.0  0.59768  0.48424  0.3151699999999999  1.0000
  O   O106      1.0  0.42055  0.43619  0.2994799999999999  1.0000
  O   O107      1.0  0.35743  0.42684  0.32559  1.0000
  O   O108      1.0  0.52547  0.52425  0.35978  1.0000
  O   O109      1.0  0.49113  0.58355  0.32546  1.0000
  O   O110      1.0  0.50541  0.58613  0.40228  1.0000
  O   O111      1.0  0.85459  0.32179  0.08313999999999998  1.0000
  O   O112      1.0  0.85677  0.3895799999999999  0.07045999999999997  1.0000
  O   O113      1.0  0.86116  0.47685  0.24991  1.0000
  O   O114      1.0  0.82595  0.49476  0.18427  1.0000
  O   O115      1.0  0.9033100000000002  0.48433  0.18596999999999994  1.0000
  O   O116      1.0  0.07869  0.43411  0.1987  1.0000
  O   O117      1.0  0.14362  0.42922  0.17597  1.0000
  O   O118      1.0  0.97469  0.52346  0.13937  1.0000
  O   O119      1.0  0.00979  0.58199  0.17552  1.0000
  O   O120      1.0  0.9940200000000001  0.58654  0.09896999999999997  1.0000
  O   O121      1.0  0.64432  0.08305  0.32163999999999987  1.0000
  O   O122      1.0  0.64224  0.07056  0.3894999999999999  1.0000
  O   O123      1.0  0.6380600000000002  0.24955  0.47688  1.0000
  O   O124      1.0  0.67484  0.18516  0.49491999999999997  1.0000
  O   O125      1.0  0.59756  0.18392  0.48309  1.0000
  O   O126      1.0  0.42062  0.19838  0.43397  1.0000
  O   O127      1.0  0.35704000000000014  0.17233  0.4268999999999999  1.0000
  O   O128      1.0  0.52543  0.1409  0.5243799999999997  1.0000
  O   O129      1.0  0.49107000000000006  0.17536  0.58358  1.0000
  O   O130      1.0  0.50581  0.09854999999999997  0.58627  1.0000
  O   O131      1.0  0.85466  0.41618  0.3216199999999999  1.0000
  O   O132      1.0  0.8568500000000002  0.42895  0.3893999999999999  1.0000
  O   O133      1.0  0.8610100000000003  0.25043  0.4770599999999999  1.0000
  O   O134      1.0  0.8251  0.31525  0.49500999999999995  1.0000
  O   O135      1.0  0.90268  0.31505  0.48305  1.0000
  O   O136      1.0  0.07964  0.29993  0.4355099999999999  1.0000
  O   O137      1.0  0.14371  0.32492  0.42875999999999986  1.0000
  O   O138      1.0  0.9744199999999998  0.35986  0.52354  1.0000
  O   O139      1.0  0.00935  0.32536  0.58265  1.0000
  O   O140      1.0  0.99397  0.40198  0.58591  1.0000
  O   O141      1.0  0.64439  0.41623  0.17837999999999996  1.0000
  O   O142      1.0  0.64231  0.42974  0.11093  1.0000
  O   O143      1.0  0.6383  0.25054  0.022159999999999992  1.0000
  O   O144      1.0  0.6746600000000003  0.31524  0.00423  1.0000
  O   O145      1.0  0.59745  0.31545  0.017499999999999995  1.0000
  O   O146      1.0  0.42058  0.30111999999999994  0.0671  1.0000
  O   O147      1.0  0.35559  0.3245899999999999  0.07044999999999997  1.0000
  O   O148      1.0  0.52568  0.35969  0.9757300000000001  1.0000
  O   O149      1.0  0.49103  0.32557  0.91593  1.0000
  O   O150      1.0  0.50534  0.40219  0.91398  1.0000
  O   O151      1.0  0.85463  0.08362  0.17837999999999996  1.0000
  O   O152      1.0  0.85679  0.07052999999999998  0.11081  1.0000
  O   O153      1.0  0.86184  0.24974  0.02252  1.0000
  O   O154      1.0  0.8264700000000003  0.18428  0.00445  1.0000
  O   O155      1.0  0.9038  0.18579  0.01645  1.0000
  O   O156      1.0  0.07777000000000002  0.19915  0.06521  1.0000
  O   O157      1.0  0.14179  0.17427  0.07282  1.0000
  O   O158      1.0  0.9743100000000001  0.14076  0.97481  1.0000
  O   O159      1.0  0.00994  0.17517  0.91634  1.0000
  O   O160      1.0  0.9941300000000001  0.09864  0.91278  1.0000
  O   O161      1.0  0.08366  0.1784  0.85461  1.0000
  O   O162      1.0  0.07058  0.11083999999999997  0.85681  1.0000
  O   O163      1.0  0.24985  0.02259  0.86149  1.0000
  O   O164      1.0  0.18417  0.004410000000000001  0.82672  1.0000
  O   O165      1.0  0.18598  0.01683  0.90406  1.0000
  O   O166      1.0  0.19799  0.06722  0.07844  1.0000
  O   O167      1.0  0.17432  0.07183  0.14332999999999999  1.0000
  O   O168      1.0  0.14087  0.9748  0.97426  1.0000
  O   O169      1.0  0.17452  0.91595  0.00999  1.0000
  O   O170      1.0  0.09829  0.91307  0.9942  1.0000
  O   O171      1.0  0.41637  0.17842  0.64437  1.0000
  O   O172      1.0  0.4296800000000001  0.11093999999999997  0.64226  1.0000
  O   O173      1.0  0.25051  0.02214  0.6383599999999998  1.0000
  O   O174      1.0  0.31527  0.00425  0.67473  1.0000
  O   O175      1.0  0.31534  0.01681  0.59757  1.0000
  O   O176      1.0  0.30131  0.06726  0.4205899999999999  1.0000
  O   O177      1.0  0.32477  0.07054  0.35558  1.0000
  O   O178      1.0  0.35972  0.9756599999999999  0.52582  1.0000
  O   O179      1.0  0.3255600000000001  0.91594  0.49104000000000003  1.0000
  O   O180      1.0  0.40225  0.91404  0.50534  1.0000
  O   O181      1.0  0.4162100000000001  0.32164  0.85466  1.0000
  O   O182      1.0  0.42893  0.38942  0.85688  1.0000
  O   O183      1.0  0.25051  0.47733  0.8610299999999999  1.0000
  O   O184      1.0  0.31584  0.49509  0.8259499999999999  1.0000
  O   O185      1.0  0.31502  0.48274  0.90315  1.0000
  O   O186      1.0  0.30019  0.43487  0.07983999999999997  1.0000
  O   O187      1.0  0.32543  0.4286299999999999  0.14374  1.0000
  O   O188      1.0  0.35995  0.52352  0.9743599999999999  1.0000
  O   O189      1.0  0.32546  0.58319  0.00808  1.0000
  O   O190      1.0  0.40215  0.58589  0.9939899999999999  1.0000
  O   O191      1.0  0.08304000000000003  0.32171  0.64437  1.0000
  O   O192      1.0  0.07053  0.38956  0.64226  1.0000
  O   O193      1.0  0.24961000000000003  0.47693  0.63803  1.0000
  O   O194      1.0  0.18513  0.49487999999999993  0.67491  1.0000
  O   O195      1.0  0.18399  0.48344  0.59765  1.0000
  O   O196      1.0  0.19822000000000006  0.43381  0.42082  1.0000
  O   O197      1.0  0.17245  0.42679  0.35712  1.0000
  O   O198      1.0  0.14102  0.52433  0.52529  1.0000
  O   O199      1.0  0.17552  0.58343  0.49083  1.0000
  O   O200      1.0  0.09874  0.58636  0.50599  1.0000
  O   O201      1.0  0.17844  0.64439  0.41624999999999995  1.0000
  O   O202      1.0  0.11093  0.64226  0.42961  1.0000
  O   O203      1.0  0.02214  0.63833  0.25049  1.0000
  O   O204      1.0  0.00428  0.6747  0.31520999999999993  1.0000
  O   O205      1.0  0.01734  0.59749  0.31539  1.0000
  O   O206      1.0  0.06746  0.42065  0.30144  1.0000
  O   O207      1.0  0.07025  0.35546  0.32444  1.0000
  O   O208      1.0  0.9757599999999998  0.5257399999999999  0.35968  1.0000
  O   O209      1.0  0.91596  0.49104  0.32555  1.0000
  O   O210      1.0  0.91414  0.50529  0.40221  1.0000
  O   O211      1.0  0.17842  0.8546599999999999  0.08358  1.0000
  O   O212      1.0  0.11083  0.8567599999999997  0.07053999999999998  1.0000
  O   O213      1.0  0.02256  0.86123  0.24981  1.0000
  O   O214      1.0  0.00434  0.8266499999999998  0.18401  1.0000
  O   O215      1.0  0.01736  0.90392  0.18587999999999993  1.0000
  O   O216      1.0  0.06688  0.07801  0.19835  1.0000
  O   O217      1.0  0.07234  0.14258  0.1743  1.0000
  O   O218      1.0  0.9746600000000001  0.97431  0.14090999999999995  1.0000
  O   O219      1.0  0.91653  0.00999  0.17559  1.0000
  O   O220      1.0  0.91265  0.99428  0.09895  1.0000
  O   O221      1.0  0.32163  0.64436  0.08306999999999998  1.0000
  O   O222      1.0  0.38947  0.64226  0.07052999999999997  1.0000
  O   O223      1.0  0.47689  0.63799  0.24959999999999996  1.0000
  O   O224      1.0  0.49495  0.67486  0.18528  1.0000
  O   O225      1.0  0.48321  0.59761  0.18394999999999995  1.0000
  O   O226      1.0  0.4339  0.4206899999999999  0.1983  1.0000
  O   O227      1.0  0.42676  0.35711  0.17233  1.0000
  O   O228      1.0  0.52429  0.5253  0.14097999999999994  1.0000
  O   O229      1.0  0.58343  0.49082000000000003  0.17551  1.0000
  O   O230      1.0  0.58631  0.50602  0.09872  1.0000
  O   O231      1.0  0.32164  0.85465  0.4162099999999999  1.0000
  O   O232      1.0  0.38942  0.85683  0.4289199999999999  1.0000
  O   O233      1.0  0.47721  0.86097  0.25047  1.0000
  O   O234      1.0  0.49507  0.82573  0.31569  1.0000
  O   O235      1.0  0.48341  0.9030499999999998  0.3148199999999999  1.0000
  O   O236      1.0  0.4354  0.08015  0.29996  1.0000
  O   O237      1.0  0.4282900000000001  0.14354  0.32645  1.0000
  O   O238      1.0  0.52347  0.97436  0.36008  1.0000
  O   O239      1.0  0.58335  0.0079  0.32551  1.0000
  O   O240      1.0  0.58589  0.9939799999999999  0.40217  1.0000
  O   O241      1.0  0.91683  0.35561  0.8215299999999999  1.0000
  O   O242      1.0  0.92944  0.35777  0.88919  1.0000
  O   O243      1.0  0.7507800000000002  0.36211  0.9776  1.0000
  O   O244      1.0  0.81588  0.32533  0.99405  1.0000
  O   O245      1.0  0.8162  0.40262  0.9822699999999999  1.0000
  O   O246      1.0  0.8016100000000003  0.5790699999999999  0.9337  1.0000
  O   O247      1.0  0.82782  0.64257  0.9269499999999998  1.0000
  O   O248      1.0  0.85927  0.47441  0.02508  1.0000
  O   O249      1.0  0.82606  0.50917  0.08468  1.0000
  O   O250      1.0  0.90268  0.49451  0.08634999999999997  1.0000
  O   O251      1.0  0.58389  0.14537  0.8214499999999998  1.0000
  O   O252      1.0  0.57017  0.14327  0.8888599999999998  1.0000
  O   O253      1.0  0.7493400000000002  0.13762  0.9777600000000001  1.0000
  O   O254      1.0  0.68446  0.17381  0.9957999999999999  1.0000
  O   O255      1.0  0.68459  0.09664  0.9822899999999999  1.0000
  O   O256      1.0  0.69864  0.92061  0.93247  1.0000
  O   O257      1.0  0.67516  0.85552  0.92961  1.0000
  O   O258      1.0  0.6401400000000002  0.02588  0.02421999999999999  1.0000
  O   O259      1.0  0.6746400000000002  0.9903899999999999  0.08315999999999997  1.0000
  O   O260      1.0  0.59804  0.00595  0.08601  1.0000
  O   O261      1.0  0.58347  0.35568  0.67835  1.0000
  O   O262      1.0  0.57112  0.35778  0.6104899999999998  1.0000
  O   O263      1.0  0.74962  0.36173  0.52298  1.0000
  O   O264      1.0  0.68481  0.32503  0.50514  1.0000
  O   O265      1.0  0.6848  0.40229  0.5156199999999997  1.0000
  O   O266      1.0  0.7005  0.57948  0.56385  1.0000
  O   O267      1.0  0.67425  0.64254  0.5731599999999998  1.0000
  O   O268      1.0  0.64023  0.47455  0.47567  1.0000
  O   O269      1.0  0.67453  0.50879  0.41638  1.0000
  O   O270      1.0  0.59771  0.49461  0.41382999999999986  1.0000
  O   O271      1.0  0.91686  0.14539  0.6782399999999997  1.0000
  O   O272      1.0  0.9294700000000002  0.14323  0.61044  1.0000
  O   O273      1.0  0.7500800000000002  0.13889  0.52319  1.0000
  O   O274      1.0  0.81573  0.17405  0.50522  1.0000
  O   O275      1.0  0.81406  0.0967  0.51563  1.0000
  O   O276      1.0  0.80143  0.92115  0.5661099999999998  1.0000
  O   O277      1.0  0.82512  0.85647  0.57112  1.0000
  O   O278      1.0  0.85891  0.02515  0.4765  1.0000
  O   O279      1.0  0.82427  0.9900399999999999  0.4177799999999999  1.0000
  O   O280      1.0  0.90091  0.00614  0.4138199999999999  1.0000
  O   O281      1.0  0.82155  0.91681  0.35562  1.0000
  O   O282      1.0  0.88919  0.92949  0.35776  1.0000
  O   O283      1.0  0.9775600000000001  0.75069  0.36267  1.0000
  O   O284      1.0  0.99403  0.81562  0.32526  1.0000
  O   O285      1.0  0.98226  0.8162099999999999  0.40261999999999987  1.0000
  O   O286      1.0  0.9330500000000003  0.80205  0.57889  1.0000
  O   O287      1.0  0.92766  0.82707  0.6429799999999998  1.0000
  O   O288      1.0  0.0249  0.85923  0.47447  1.0000
  O   O289      1.0  0.0847  0.82612  0.5091499999999998  1.0000
  O   O290      1.0  0.0863  0.90272  0.49446999999999997  1.0000
  O   O291      1.0  0.8215  0.58382  0.14535999999999993  1.0000
  O   O292      1.0  0.88888  0.56994  0.14320999999999995  1.0000
  O   O293      1.0  0.9777500000000001  0.7493499999999997  0.138  1.0000
  O   O294      1.0  0.9958800000000001  0.6843  0.17379  1.0000
  O   O295      1.0  0.9823099999999999  0.68475  0.09656  1.0000
  O   O296      1.0  0.93302  0.69897  0.92025  1.0000
  O   O297      1.0  0.9292400000000002  0.67447  0.85578  1.0000
  O   O298      1.0  0.02428  0.64021  0.02579  1.0000
  O   O299      1.0  0.0834  0.67455  0.99043  1.0000
  O   O300      1.0  0.08602  0.59798  0.00591  1.0000
  O   O301      1.0  0.67841  0.58351  0.35565  1.0000
  O   O302      1.0  0.6105  0.57126  0.35776  1.0000
  O   O303      1.0  0.52297  0.74962  0.36165  1.0000
  O   O304      1.0  0.50517  0.68481  0.32502  1.0000
  O   O305      1.0  0.51566  0.68486  0.40233  1.0000
  O   O306      1.0  0.56397  0.70047  0.5792699999999997  1.0000
  O   O307      1.0  0.57295  0.67495  0.64269  1.0000
  O   O308      1.0  0.47581  0.64023  0.47465  1.0000
  O   O309      1.0  0.41641  0.67452  0.5088299999999998  1.0000
  O   O310      1.0  0.41389  0.59774  0.4946  1.0000
  O   O311      1.0  0.67825  0.9168299999999998  0.14536999999999994  1.0000
  O   O312      1.0  0.61045  0.92945  0.14319999999999994  1.0000
  O   O313      1.0  0.52321  0.74998  0.13915  1.0000
  O   O314      1.0  0.50521  0.8157  0.17400999999999994  1.0000
  O   O315      1.0  0.51611  0.81383  0.09667  1.0000
  O   O316      1.0  0.5661200000000002  0.8017  0.92118  1.0000
  O   O317      1.0  0.57103  0.82523  0.85638  1.0000
  O   O318      1.0  0.47645  0.85899  0.02506  1.0000
  O   O319      1.0  0.4175800000000001  0.82438  0.9900899999999999  1.0000
  O   O320      1.0  0.4137600000000001  0.9009499999999999  0.0061  1.0000
  O   O321      1.0  0.3556  0.82154  0.9168299999999998  1.0000
  O   O322      1.0  0.3577500000000001  0.88919  0.92946  1.0000
  O   O323      1.0  0.36218  0.97763  0.7508  1.0000
  O   O324      1.0  0.32537  0.99405  0.81592  1.0000
  O   O325      1.0  0.40274  0.9822800000000002  0.8162  1.0000
  O   O326      1.0  0.5791  0.93455  0.80125  1.0000
  O   O327      1.0  0.6423  0.9265699999999998  0.8278999999999997  1.0000
  O   O328      1.0  0.4742800000000001  0.02556  0.85958  1.0000
  O   O329      1.0  0.50923  0.08466  0.82596  1.0000
  O   O330      1.0  0.49475  0.08692  0.90261  1.0000
  O   O331      1.0  0.14534000000000002  0.8215  0.58384  1.0000
  O   O332      1.0  0.14323  0.88889  0.57001  1.0000
  O   O333      1.0  0.13781  0.97778  0.74931  1.0000
  O   O334      1.0  0.17383  0.99585  0.68442  1.0000
  O   O335      1.0  0.09658  0.98226  0.68464  1.0000
  O   O336      1.0  0.92064  0.93255  0.69874  1.0000
  O   O337      1.0  0.8555100000000002  0.92979  0.67534  1.0000
  O   O338      1.0  0.025880000000000007  0.02422  0.64016  1.0000
  O   O339      1.0  0.99049  0.08326  0.67462  1.0000
  O   O340      1.0  0.005930000000000002  0.08598  0.59801  1.0000
  O   O341      1.0  0.35565000000000013  0.6783899999999999  0.5835299999999998  1.0000
  O   O342      1.0  0.3577500000000001  0.61049  0.57129  1.0000
  O   O343      1.0  0.36168  0.52296  0.74961  1.0000
  O   O344      1.0  0.32501  0.50517  0.6848299999999998  1.0000
  O   O345      1.0  0.40233000000000013  0.51568  0.6848099999999998  1.0000
  O   O346      1.0  0.57962  0.56398  0.7004599999999997  1.0000
  O   O347      1.0  0.64262  0.57324  0.6737799999999998  1.0000
  O   O348      1.0  0.47473  0.4759  0.64019  1.0000
  O   O349      1.0  0.50862  0.4164  0.6745  1.0000
  O   O350      1.0  0.49455  0.41388  0.59769  1.0000
  O   O351      1.0  0.14543  0.67823  0.9168699999999997  1.0000
  O   O352      1.0  0.14322  0.61042  0.92952  1.0000
  O   O353      1.0  0.13887  0.5232  0.7501  1.0000
  O   O354      1.0  0.17405  0.50521  0.81576  1.0000
  O   O355      1.0  0.09671  0.51562  0.8140999999999998  1.0000
  O   O356      1.0  0.92102  0.56582  0.80129  1.0000
  O   O357      1.0  0.85645  0.57115  0.82532  1.0000
  O   O358      1.0  0.025190000000000008  0.47649  0.85912  1.0000
  O   O359      1.0  0.99008  0.41772  0.8244  1.0000
  O   O360      1.0  0.00618  0.41369  0.90089  1.0000
  O   O361      1.0  0.35561  0.9169  0.6783599999999997  1.0000
  O   O362      1.0  0.35778  0.92945  0.61054  1.0000
  O   O363      1.0  0.36198  0.75039  0.52313  1.0000
  O   O364      1.0  0.3251  0.81471  0.5050699999999998  1.0000
  O   O365      1.0  0.40238000000000007  0.816  0.51665  1.0000
  O   O366      1.0  0.57929  0.80179  0.5662  1.0000
  O   O367      1.0  0.64297  0.82765  0.57313  1.0000
  O   O368      1.0  0.47468  0.85897  0.47575  1.0000
  O   O369      1.0  0.50914  0.82449  0.41657  1.0000
  O   O370      1.0  0.49395000000000006  0.9012499999999999  0.4136899999999999  1.0000
  O   O371      1.0  0.14534000000000002  0.5838  0.67839  1.0000
  O   O372      1.0  0.14316  0.57106  0.6106299999999999  1.0000
  O   O373      1.0  0.13897  0.74953  0.52292  1.0000
  O   O374      1.0  0.17415  0.68438  0.5048899999999997  1.0000
  O   O375      1.0  0.09689  0.68503  0.51712  1.0000
  O   O376      1.0  0.91975  0.70024  0.56469  1.0000
  O   O377      1.0  0.85635  0.6737  0.57177  1.0000
  O   O378      1.0  0.02561  0.64006  0.47647  1.0000
  O   O379      1.0  0.99163  0.67455  0.41692  1.0000
  O   O380      1.0  0.00602  0.59791  0.41407999999999995  1.0000
  O   O381      1.0  0.35563  0.58376  0.82161  1.0000
  O   O382      1.0  0.3577400000000001  0.57024  0.88907  1.0000
  O   O383      1.0  0.36168  0.74947  0.9778400000000002  1.0000
  O   O384      1.0  0.32527  0.68479  0.9957499999999999  1.0000
  O   O385      1.0  0.40248  0.68464  0.9829499999999999  1.0000
  O   O386      1.0  0.5792800000000001  0.6993  0.93412  1.0000
  O   O387      1.0  0.64379  0.67512  0.92867  1.0000
  O   O388      1.0  0.4742800000000001  0.64026  0.024359999999999993  1.0000
  O   O389      1.0  0.50896  0.6744  0.08413  1.0000
  O   O390      1.0  0.49455  0.5978  0.08623  1.0000
  O   O391      1.0  0.14537  0.9164299999999999  0.82166  1.0000
  O   O392      1.0  0.14323  0.92943  0.8892199999999998  1.0000
  O   O393      1.0  0.13840000000000005  0.75018  0.9775099999999999  1.0000
  O   O394      1.0  0.17333000000000007  0.81582  0.9955800000000001  1.0000
  O   O395      1.0  0.09601000000000003  0.81407  0.9833499999999998  1.0000
  O   O396      1.0  0.92231  0.80172  0.93319  1.0000
  O   O397      1.0  0.85779  0.82577  0.92753  1.0000
  O   O398      1.0  0.02578  0.86076  0.02514  1.0000
  O   O399      1.0  0.99024  0.82566  0.08334  1.0000
  O   O400      1.0  0.00567  0.90222  0.08734  1.0000
  O   O401      1.0  0.91655  0.82163  0.14530999999999994  1.0000
  O   O402      1.0  0.9294  0.88922  0.14327999999999994  1.0000
  O   O403      1.0  0.75018  0.9774900000000001  0.13836  1.0000
  O   O404      1.0  0.81579  0.9955  0.17338  1.0000
  O   O405      1.0  0.81419  0.98262  0.09609  1.0000
  O   O406      1.0  0.80162  0.93318  0.92184  1.0000
  O   O407      1.0  0.8257  0.92782  0.85733  1.0000
  O   O408      1.0  0.8593000000000002  0.02501  0.025739999999999996  1.0000
  O   O409      1.0  0.8252  0.08389  0.9900699999999999  1.0000
  O   O410      1.0  0.90149  0.08698  0.005879999999999998  1.0000
  O   O411      1.0  0.58376  0.8216  0.35561  1.0000
  O   O412      1.0  0.57039  0.8891  0.35781  1.0000
  O   O413      1.0  0.74952  0.97775  0.36166  1.0000
  O   O414      1.0  0.6848  0.9957299999999999  0.32527  1.0000
  O   O415      1.0  0.6847100000000003  0.98322  0.4024299999999999  1.0000
  O   O416      1.0  0.6988800000000002  0.93294  0.5794699999999998  1.0000
  O   O417      1.0  0.6752  0.92929  0.64423  1.0000
  O   O418      1.0  0.64031  0.02424  0.47427  1.0000
  O   O419      1.0  0.67442  0.08401  0.50894  1.0000
  O   O420      1.0  0.5978  0.08599  0.49459  1.0000
  O   O421      1.0  0.58381  0.67838  0.14533999999999994  1.0000
  O   O422      1.0  0.57119  0.61056  0.14315999999999995  1.0000
  O   O423      1.0  0.74953  0.5226  0.13889999999999994  1.0000
  O   O424      1.0  0.68442  0.50486  0.17424  1.0000
  O   O425      1.0  0.68497  0.51719  0.09699  1.0000
  O   O426      1.0  0.69992  0.56501  0.9202599999999997  1.0000
  O   O427      1.0  0.67476  0.57135  0.8563499999999997  1.0000
  O   O428      1.0  0.6401400000000002  0.47632  0.02568  1.0000
  O   O429      1.0  0.67453  0.41718  0.9904799999999999  1.0000
  O   O430      1.0  0.598  0.41402  0.006049999999999998  1.0000
  O   O431      1.0  0.91696  0.67836  0.35565  1.0000
  O   O432      1.0  0.9294700000000002  0.61051  0.3577  1.0000
  O   O433      1.0  0.75044  0.52311  0.36198  1.0000
  O   O434      1.0  0.8148  0.50508  0.32509  1.0000
  O   O435      1.0  0.81603  0.51661  0.40239999999999987  1.0000
  O   O436      1.0  0.80167  0.56608  0.5793699999999998  1.0000
  O   O437      1.0  0.8277  0.57314  0.64287  1.0000
  O   O438      1.0  0.85926  0.47578  0.47468  1.0000
  O   O439      1.0  0.8245200000000001  0.41648  0.50866  1.0000
  O   O440      1.0  0.9014  0.41372  0.49413999999999997  1.0000
  O   O441      1.0  0.82164  0.35564  0.5836699999999998  1.0000
  O   O442      1.0  0.8891400000000002  0.35773  0.5703899999999997  1.0000
  O   O443      1.0  0.97778  0.36166  0.74949  1.0000
  O   O444      1.0  0.9957300000000001  0.3253  0.6847299999999997  1.0000
  O   O445      1.0  0.9831000000000001  0.40247  0.68464  1.0000
  O   O446      1.0  0.93271  0.5792199999999998  0.69862  1.0000
  O   O447      1.0  0.92975  0.64442  0.6758299999999998  1.0000
  O   O448      1.0  0.024220000000000002  0.47443  0.64029  1.0000
  O   O449      1.0  0.08401  0.50897  0.67447  1.0000
  O   O450      1.0  0.08592  0.49466  0.59777  1.0000
  O   O451      1.0  0.82166  0.14536  0.91635  1.0000
  O   O452      1.0  0.88922  0.1432  0.92945  1.0000
  O   O453      1.0  0.97748  0.13861  0.7501899999999998  1.0000
  O   O454      1.0  0.99564  0.17354  0.81574  1.0000
  O   O455      1.0  0.98356  0.09623  0.8140399999999998  1.0000
  O   O456      1.0  0.9323100000000002  0.92152  0.80218  1.0000
  O   O457      1.0  0.92942  0.85629  0.8249099999999998  1.0000
  O   O458      1.0  0.02526  0.02575  0.85916  1.0000
  O   O459      1.0  0.0834  0.9900099999999998  0.82458  1.0000
  O   O460      1.0  0.08722  0.00572  0.90122  1.0000
  O   O461      1.0  0.67837  0.3556  0.9169299999999998  1.0000
  O   O462      1.0  0.6105  0.35772  0.92948  1.0000
  O   O463      1.0  0.52314  0.36201  0.7503899999999998  1.0000
  O   O464      1.0  0.50506  0.3250899999999999  0.81465  1.0000
  O   O465      1.0  0.51658  0.4024  0.816  1.0000
  O   O466      1.0  0.56623  0.579  0.80188  1.0000
  O   O467      1.0  0.57316  0.64281  0.82723  1.0000
  O   O468      1.0  0.47576  0.47473  0.85916  1.0000
  O   O469      1.0  0.41659  0.50912  0.82449  1.0000
  O   O470      1.0  0.41368  0.4939299999999999  0.90128  1.0000
  O   O471      1.0  0.67836  0.14533  0.5838  1.0000
  O   O472      1.0  0.61057  0.14314  0.5710899999999999  1.0000
  O   O473      1.0  0.5229  0.13908  0.74958  1.0000
  O   O474      1.0  0.50511  0.17533  0.6848299999999998  1.0000
  O   O475      1.0  0.5162600000000003  0.09766  0.68502  1.0000
  O   O476      1.0  0.56456  0.91974  0.7001199999999997  1.0000
  O   O477      1.0  0.57185  0.85652  0.6734799999999997  1.0000
  O   O478      1.0  0.47649  0.02555  0.64023  1.0000
  O   O479      1.0  0.41734  0.9904700000000001  0.67477  1.0000
  O   O480      1.0  0.41404  0.0062  0.59824  1.0000
