data_image0
_chemical_formula_structural       Zn16H256C280N24O52
_chemical_formula_sum              "Zn16 H256 C280 N24 O52"
_cell_length_a       14.06393
_cell_length_b       22.48308
_cell_length_c       31.35586
_cell_angle_alpha    91.74342
_cell_angle_beta     90.0
_cell_angle_gamma    90.0

_space_group_name_H-M_alt    "P 1"
_space_group_IT_number       1

loop_
  _space_group_symop_operation_xyz
  'x, y, z'

loop_
  _atom_site_type_symbol
  _atom_site_label
  _atom_site_symmetry_multiplicity
  _atom_site_fract_x
  _atom_site_fract_y
  _atom_site_fract_z
  _atom_site_occupancy
  Zn  Zn1       1.0  0.2907  0.27092  0.33902  1.0000
  Zn  Zn2       1.0  0.49255  0.23020999999999994  0.35146  1.0000
  Zn  Zn3       1.0  0.3343200000000001  0.01346  0.6005400000000002  1.0000
  Zn  Zn4       1.0  0.21210000000000004  0.98662  0.11644  1.0000
  Zn  Zn5       1.0  0.2093  0.7709299999999999  0.83902  1.0000
  Zn  Zn6       1.0  0.007450000000000001  0.7302099999999999  0.85145  1.0000
  Zn  Zn7       1.0  0.16568000000000002  0.51345  0.10054000000000003  1.0000
  Zn  Zn8       1.0  0.2879000000000001  0.4866199999999999  0.61644  1.0000
  Zn  Zn9       1.0  0.7907000000000002  0.22907  0.16098  1.0000
  Zn  Zn10      1.0  0.99255  0.2697899999999999  0.14854  1.0000
  Zn  Zn11      1.0  0.83432  0.48654999999999987  0.89946  1.0000
  Zn  Zn12      1.0  0.7121  0.5133799999999998  0.38356  1.0000
  Zn  Zn13      1.0  0.7093  0.7290799999999998  0.66098  1.0000
  Zn  Zn14      1.0  0.50745  0.76979  0.64854  1.0000
  Zn  Zn15      1.0  0.66568  0.9865499999999999  0.39946  1.0000
  Zn  Zn16      1.0  0.7879000000000003  0.013380000000000001  0.88356  1.0000
  H   H1        1.0  0.21334  0.17076999999999998  0.44463  1.0000
  H   H2        1.0  0.49833  0.11586999999999997  0.46569  1.0000
  H   H3        1.0  0.14875  0.12187  0.5827700000000002  1.0000
  H   H4        1.0  0.03715  0.15155  0.56733  1.0000
  H   H5        1.0  0.14249  0.19375  0.56059  1.0000
  H   H6        1.0  0.9912000000000001  0.16022  0.49386  1.0000
  H   H7        1.0  0.06691  0.14195999999999998  0.4501700000000001  1.0000
  H   H8        1.0  0.09139  0.20556999999999997  0.4838  1.0000
  H   H9        1.0  0.11729  0.028059999999999998  0.5332  1.0000
  H   H10       1.0  0.08657  0.03822  0.47872  1.0000
  H   H11       1.0  0.00543  0.059119999999999985  0.51968  1.0000
  H   H12       1.0  0.54141  0.06137  0.52085  1.0000
  H   H13       1.0  0.65401  0.028809999999999995  0.55152  1.0000
  H   H14       1.0  0.77907  0.98279  0.59426  1.0000
  H   H15       1.0  0.73631  0.9298599999999999  0.66077  1.0000
  H   H16       1.0  0.5702  0.9244599999999998  0.6835800000000002  1.0000
  H   H17       1.0  0.43438  0.90738  0.68892  1.0000
  H   H18       1.0  0.03115  0.89109  0.7200200000000002  1.0000
  H   H19       1.0  0.33004  0.8688099999999997  0.73298  1.0000
  H   H20       1.0  0.9656000000000002  0.056929999999999994  0.64274  1.0000
  H   H21       1.0  0.09214000000000003  0.0566  0.64336  1.0000
  H   H22       1.0  0.0271  0.05342999999999999  0.69204  1.0000
  H   H23       1.0  0.9625600000000002  0.9677099999999998  0.5908600000000003  1.0000
  H   H24       1.0  0.01932  0.9003300000000001  0.60425  1.0000
  H   H25       1.0  0.08864  0.9634  0.59025  1.0000
  H   H26       1.0  0.87323  0.97139  0.6583200000000001  1.0000
  H   H27       1.0  0.92719  0.96242  0.70857  1.0000
  H   H28       1.0  0.9212  0.9010899999999998  0.67106  1.0000
  H   H29       1.0  0.21866  0.13174  0.25506  1.0000
  H   H30       1.0  0.51746  0.12114999999999997  0.23277  1.0000
  H   H31       1.0  0.5887900000000003  0.9609599999999998  0.14529  1.0000
  H   H32       1.0  0.46303  0.9546499999999998  0.14958  1.0000
  H   H33       1.0  0.53463  0.96179  0.19636000000000006  1.0000
  H   H34       1.0  0.57115  0.050959999999999984  0.09718000000000003  1.0000
  H   H35       1.0  0.50995  0.11539999999999997  0.11635  1.0000
  H   H36       1.0  0.44498  0.050009999999999985  0.10103  1.0000
  H   H37       1.0  0.67114  0.054200000000000005  0.15946  1.0000
  H   H38       1.0  0.62885  0.05477  0.21261000000000005  1.0000
  H   H39       1.0  0.6167900000000001  0.11873999999999998  0.18091  1.0000
  H   H40       1.0  0.11184000000000002  0.09154999999999998  0.21064000000000005  1.0000
  H   H41       1.0  0.97343  0.07754999999999998  0.20331  1.0000
  H   H42       1.0  0.80779  0.06585  0.18151  1.0000
  H   H43       1.0  0.76661  0.012629999999999999  0.11291  1.0000
  H   H44       1.0  0.8930500000000002  0.97003  0.06714  1.0000
  H   H45       1.0  0.007260000000000002  0.94834  0.03177  1.0000
  H   H46       1.0  0.33514  0.83761  0.9510400000000002  1.0000
  H   H47       1.0  0.05098  0.89846  0.9727700000000002  1.0000
  H   H48       1.0  0.49342  0.82682  0.07816  1.0000
  H   H49       1.0  0.38619  0.7910999999999998  0.062070000000000014  1.0000
  H   H50       1.0  0.38227  0.8573799999999999  0.09462  1.0000
  H   H51       1.0  0.53962  0.9269399999999999  0.04683  1.0000
  H   H52       1.0  0.42832000000000003  0.95885  0.06134  1.0000
  H   H53       1.0  0.46706  0.9588099999999998  0.0071800000000000015  1.0000
  H   H54       1.0  0.55179  0.83397  0.005510000000000001  1.0000
  H   H55       1.0  0.48357  0.8634899999999998  0.96359  1.0000
  H   H56       1.0  0.45185000000000003  0.7940899999999999  0.9858  1.0000
  H   H57       1.0  0.6437  0.28290999999999994  0.2962  1.0000
  H   H58       1.0  0.8199600000000002  0.28318  0.29166  1.0000
  H   H59       1.0  0.8252100000000002  0.17498  0.40319  1.0000
  H   H60       1.0  0.64725  0.17982999999999996  0.4033000000000001  1.0000
  H   H61       1.0  0.9565900000000002  0.2344  0.27743  1.0000
  H   H62       1.0  0.13067  0.25120999999999993  0.27919  1.0000
  H   H63       1.0  0.14038  0.24489999999999998  0.41056  1.0000
  H   H64       1.0  0.96436  0.23287  0.4157500000000001  1.0000
  H   H65       1.0  0.28666  0.6707699999999999  0.9446300000000002  1.0000
  H   H66       1.0  0.00167  0.61587  0.96569  1.0000
  H   H67       1.0  0.35125  0.62187  0.08277  1.0000
  H   H68       1.0  0.4628500000000001  0.6515499999999999  0.06733  1.0000
  H   H69       1.0  0.35751000000000005  0.6937399999999999  0.06059  1.0000
  H   H70       1.0  0.5088  0.6602199999999999  0.99386  1.0000
  H   H71       1.0  0.43308  0.64196  0.95017  1.0000
  H   H72       1.0  0.4086100000000001  0.7055699999999998  0.9838000000000002  1.0000
  H   H73       1.0  0.38271  0.5280599999999999  0.03321  1.0000
  H   H74       1.0  0.41343  0.5382199999999999  0.97872  1.0000
  H   H75       1.0  0.49457000000000007  0.55912  0.01969  1.0000
  H   H76       1.0  0.9585900000000003  0.56136  0.02085  1.0000
  H   H77       1.0  0.8459900000000002  0.5287999999999999  0.05152  1.0000
  H   H78       1.0  0.72093  0.48277999999999993  0.09426  1.0000
  H   H79       1.0  0.7636900000000002  0.42986  0.16077  1.0000
  H   H80       1.0  0.9298  0.4244599999999999  0.18358  1.0000
  H   H81       1.0  0.06561  0.4073799999999999  0.18892  1.0000
  H   H82       1.0  0.46884  0.3910899999999999  0.22002000000000005  1.0000
  H   H83       1.0  0.16996  0.36881  0.23299  1.0000
  H   H84       1.0  0.5344  0.55693  0.14274000000000006  1.0000
  H   H85       1.0  0.40786  0.5566  0.14336  1.0000
  H   H86       1.0  0.4729000000000001  0.5534299999999999  0.19204  1.0000
  H   H87       1.0  0.53744  0.46770999999999996  0.09086  1.0000
  H   H88       1.0  0.48068  0.40032  0.10425  1.0000
  H   H89       1.0  0.41136000000000006  0.4633999999999999  0.09025000000000002  1.0000
  H   H90       1.0  0.62677  0.47139  0.15832  1.0000
  H   H91       1.0  0.5728100000000003  0.46241999999999994  0.20857  1.0000
  H   H92       1.0  0.57881  0.40109  0.17106000000000005  1.0000
  H   H93       1.0  0.28134  0.6317399999999999  0.75506  1.0000
  H   H94       1.0  0.98254  0.6211499999999999  0.73277  1.0000
  H   H95       1.0  0.91121  0.4609599999999999  0.64529  1.0000
  H   H96       1.0  0.03696  0.45466  0.64958  1.0000
  H   H97       1.0  0.9653700000000001  0.46179  0.69635  1.0000
  H   H98       1.0  0.9288500000000001  0.55097  0.59718  1.0000
  H   H99       1.0  0.99005  0.6154  0.61635  1.0000
  H   H100      1.0  0.05502  0.5500099999999999  0.6010200000000002  1.0000
  H   H101      1.0  0.82886  0.5542  0.65946  1.0000
  H   H102      1.0  0.87116  0.55477  0.71261  1.0000
  H   H103      1.0  0.88321  0.61875  0.68091  1.0000
  H   H104      1.0  0.38816  0.59155  0.71063  1.0000
  H   H105      1.0  0.52657  0.57755  0.70331  1.0000
  H   H106      1.0  0.69221  0.56585  0.68151  1.0000
  H   H107      1.0  0.73339  0.51263  0.61291  1.0000
  H   H108      1.0  0.60695  0.47004  0.56714  1.0000
  H   H109      1.0  0.49274  0.44833999999999996  0.53177  1.0000
  H   H110      1.0  0.16486  0.33761  0.45104  1.0000
  H   H111      1.0  0.44902  0.3984599999999999  0.47277  1.0000
  H   H112      1.0  0.00658  0.32682  0.57816  1.0000
  H   H113      1.0  0.11381  0.2911099999999999  0.56207  1.0000
  H   H114      1.0  0.11773  0.35738  0.59462  1.0000
  H   H115      1.0  0.96038  0.42694  0.54682  1.0000
  H   H116      1.0  0.07168  0.45885999999999993  0.56134  1.0000
  H   H117      1.0  0.03294  0.4588099999999999  0.50718  1.0000
  H   H118      1.0  0.9482100000000001  0.33397  0.50551  1.0000
  H   H119      1.0  0.01643  0.3634899999999999  0.46359  1.0000
  H   H120      1.0  0.04815  0.29408999999999996  0.4858000000000001  1.0000
  H   H121      1.0  0.8563000000000001  0.7829099999999999  0.7962000000000002  1.0000
  H   H122      1.0  0.68005  0.78318  0.79166  1.0000
  H   H123      1.0  0.67479  0.6749800000000001  0.90319  1.0000
  H   H124      1.0  0.85275  0.67983  0.9033  1.0000
  H   H125      1.0  0.54341  0.7344099999999999  0.77743  1.0000
  H   H126      1.0  0.36933  0.75121  0.77919  1.0000
  H   H127      1.0  0.35962000000000005  0.7449  0.9105600000000001  1.0000
  H   H128      1.0  0.53565  0.7328699999999999  0.91575  1.0000
  H   H129      1.0  0.71334  0.32924  0.055370000000000016  1.0000
  H   H130      1.0  0.99833  0.38413  0.03431  1.0000
  H   H131      1.0  0.64875  0.37813  0.91723  1.0000
  H   H132      1.0  0.53715  0.3484499999999999  0.9326700000000002  1.0000
  H   H133      1.0  0.64249  0.3062599999999999  0.93941  1.0000
  H   H134      1.0  0.4912  0.33978  0.006140000000000001  1.0000
  H   H135      1.0  0.56692  0.35803999999999997  0.04983000000000001  1.0000
  H   H136      1.0  0.5913900000000002  0.29442999999999997  0.016200000000000003  1.0000
  H   H137      1.0  0.61729  0.47194  0.96679  1.0000
  H   H138      1.0  0.58657  0.46177999999999997  0.02128  1.0000
  H   H139      1.0  0.50543  0.44088999999999995  0.98031  1.0000
  H   H140      1.0  0.041410000000000016  0.43864  0.9791500000000002  1.0000
  H   H141      1.0  0.15401000000000006  0.47119999999999995  0.94848  1.0000
  H   H142      1.0  0.27907  0.51722  0.90574  1.0000
  H   H143      1.0  0.23631  0.5701399999999999  0.83922  1.0000
  H   H144      1.0  0.0702  0.57554  0.81642  1.0000
  H   H145      1.0  0.93439  0.59262  0.81108  1.0000
  H   H146      1.0  0.53116  0.60892  0.77998  1.0000
  H   H147      1.0  0.83004  0.63119  0.7670100000000002  1.0000
  H   H148      1.0  0.4656  0.4430699999999999  0.85725  1.0000
  H   H149      1.0  0.59214  0.4434099999999999  0.85663  1.0000
  H   H150      1.0  0.5271  0.44657  0.8079500000000002  1.0000
  H   H151      1.0  0.46256  0.5322899999999999  0.90914  1.0000
  H   H152      1.0  0.51932  0.5996799999999999  0.8957500000000003  1.0000
  H   H153      1.0  0.5886400000000003  0.5366  0.90974  1.0000
  H   H154      1.0  0.37323  0.5286199999999999  0.84168  1.0000
  H   H155      1.0  0.42719000000000007  0.53758  0.79143  1.0000
  H   H156      1.0  0.42119  0.59891  0.82893  1.0000
  H   H157      1.0  0.71866  0.36826  0.24494  1.0000
  H   H158      1.0  0.01746  0.3788500000000001  0.26723000000000013  1.0000
  H   H159      1.0  0.08879000000000001  0.53904  0.3547  1.0000
  H   H160      1.0  0.96304  0.54535  0.3504200000000001  1.0000
  H   H161      1.0  0.03463  0.53821  0.30364  1.0000
  H   H162      1.0  0.07115  0.44903999999999994  0.40281  1.0000
  H   H163      1.0  0.00995  0.3846099999999999  0.38365  1.0000
  H   H164      1.0  0.94498  0.44999  0.3989700000000001  1.0000
  H   H165      1.0  0.17114  0.44579999999999986  0.34054  1.0000
  H   H166      1.0  0.12884  0.4452299999999999  0.28738  1.0000
  H   H167      1.0  0.11679000000000003  0.38125999999999993  0.3190900000000001  1.0000
  H   H168      1.0  0.61184  0.40844999999999987  0.28936  1.0000
  H   H169      1.0  0.47343  0.4224499999999999  0.29669  1.0000
  H   H170      1.0  0.30779  0.43415000000000004  0.3184900000000001  1.0000
  H   H171      1.0  0.26661  0.4873699999999999  0.38708  1.0000
  H   H172      1.0  0.39305000000000007  0.52996  0.43286  1.0000
  H   H173      1.0  0.50726  0.5516599999999999  0.46822  1.0000
  H   H174      1.0  0.83514  0.6623899999999999  0.54896  1.0000
  H   H175      1.0  0.55098  0.6015399999999997  0.52723  1.0000
  H   H176      1.0  0.99342  0.67318  0.42184  1.0000
  H   H177      1.0  0.8861900000000003  0.7089  0.43793  1.0000
  H   H178      1.0  0.8822700000000002  0.6426199999999999  0.40538  1.0000
  H   H179      1.0  0.03962  0.5730599999999999  0.45317  1.0000
  H   H180      1.0  0.92833  0.54114  0.43865  1.0000
  H   H181      1.0  0.96706  0.54119  0.49282  1.0000
  H   H182      1.0  0.05179000000000002  0.66603  0.4944900000000001  1.0000
  H   H183      1.0  0.98357  0.6365100000000001  0.5364100000000003  1.0000
  H   H184      1.0  0.95185  0.70591  0.5142  1.0000
  H   H185      1.0  0.1437  0.21709  0.20380000000000006  1.0000
  H   H186      1.0  0.31995  0.21682  0.20834000000000005  1.0000
  H   H187      1.0  0.32521  0.32502  0.09681  1.0000
  H   H188      1.0  0.14725  0.32017  0.0967  1.0000
  H   H189      1.0  0.45659  0.2656  0.22257  1.0000
  H   H190      1.0  0.63067  0.24879  0.22081  1.0000
  H   H191      1.0  0.64038  0.2551  0.08944  1.0000
  H   H192      1.0  0.46435000000000004  0.26713  0.08425  1.0000
  H   H193      1.0  0.78666  0.8292399999999999  0.55537  1.0000
  H   H194      1.0  0.50167  0.8841299999999997  0.5343100000000002  1.0000
  H   H195      1.0  0.8512500000000001  0.8781299999999997  0.41723  1.0000
  H   H196      1.0  0.96285  0.84845  0.43267  1.0000
  H   H197      1.0  0.8575100000000002  0.8062599999999999  0.43941000000000013  1.0000
  H   H198      1.0  0.0088  0.83978  0.50614  1.0000
  H   H199      1.0  0.93309  0.85804  0.54982  1.0000
  H   H200      1.0  0.90861  0.79443  0.5162  1.0000
  H   H201      1.0  0.8827100000000002  0.9719399999999999  0.46679  1.0000
  H   H202      1.0  0.91343  0.96179  0.52128  1.0000
  H   H203      1.0  0.9945700000000002  0.9408799999999998  0.48031  1.0000
  H   H204      1.0  0.45859000000000005  0.9386399999999999  0.47915  1.0000
  H   H205      1.0  0.3459900000000001  0.9711899999999999  0.44848  1.0000
  H   H206      1.0  0.22093  0.01722  0.40574  1.0000
  H   H207      1.0  0.26369  0.07014  0.33922  1.0000
  H   H208      1.0  0.4298  0.07553999999999998  0.31642  1.0000
  H   H209      1.0  0.56562  0.09262  0.31108  1.0000
  H   H210      1.0  0.96885  0.10891999999999998  0.27998  1.0000
  H   H211      1.0  0.66996  0.13119  0.26701  1.0000
  H   H212      1.0  0.0344  0.9430699999999997  0.35725  1.0000
  H   H213      1.0  0.9078600000000002  0.9433999999999998  0.3566400000000001  1.0000
  H   H214      1.0  0.9729000000000002  0.9465700000000001  0.30795  1.0000
  H   H215      1.0  0.03744000000000001  0.03228999999999999  0.40914  1.0000
  H   H216      1.0  0.98068  0.09967999999999999  0.39575  1.0000
  H   H217      1.0  0.91136  0.036599999999999994  0.40974  1.0000
  H   H218      1.0  0.12677  0.028609999999999997  0.34168  1.0000
  H   H219      1.0  0.07281  0.037579999999999995  0.29143000000000013  1.0000
  H   H220      1.0  0.0788  0.09891  0.32893  1.0000
  H   H221      1.0  0.7813400000000003  0.8682599999999999  0.74494  1.0000
  H   H222      1.0  0.48254  0.87885  0.7672200000000002  1.0000
  H   H223      1.0  0.4112100000000001  0.03905  0.8547000000000001  1.0000
  H   H224      1.0  0.53697  0.04534999999999999  0.85042  1.0000
  H   H225      1.0  0.46537  0.03821  0.80364  1.0000
  H   H226      1.0  0.42885  0.94904  0.90281  1.0000
  H   H227      1.0  0.49005  0.88461  0.88365  1.0000
  H   H228      1.0  0.55502  0.9499899999999999  0.89897  1.0000
  H   H229      1.0  0.32886000000000004  0.9457999999999998  0.84054  1.0000
  H   H230      1.0  0.3711600000000001  0.9452299999999999  0.78738  1.0000
  H   H231      1.0  0.38321  0.8812599999999998  0.81909  1.0000
  H   H232      1.0  0.8881600000000001  0.90845  0.78936  1.0000
  H   H233      1.0  0.02657  0.92246  0.79669  1.0000
  H   H234      1.0  0.19221000000000005  0.9341499999999998  0.81849  1.0000
  H   H235      1.0  0.23339  0.9873699999999999  0.88708  1.0000
  H   H236      1.0  0.10695000000000003  0.029969999999999993  0.93286  1.0000
  H   H237      1.0  0.99274  0.051669999999999994  0.96822  1.0000
  H   H238      1.0  0.66486  0.16238999999999998  0.04896  1.0000
  H   H239      1.0  0.94902  0.10154  0.027230000000000008  1.0000
  H   H240      1.0  0.50658  0.17318999999999998  0.92184  1.0000
  H   H241      1.0  0.61381  0.2089  0.93793  1.0000
  H   H242      1.0  0.61773  0.14262  0.90538  1.0000
  H   H243      1.0  0.46038  0.07307000000000001  0.9531700000000002  1.0000
  H   H244      1.0  0.57168  0.04115  0.93865  1.0000
  H   H245      1.0  0.53294  0.04119  0.99281  1.0000
  H   H246      1.0  0.44821  0.16602999999999998  0.99449  1.0000
  H   H247      1.0  0.51643  0.13650999999999996  0.03641000000000001  1.0000
  H   H248      1.0  0.54815  0.20590999999999998  0.0142  1.0000
  H   H249      1.0  0.3563  0.71709  0.7038  1.0000
  H   H250      1.0  0.18004000000000006  0.71683  0.70833  1.0000
  H   H251      1.0  0.17479  0.82502  0.59681  1.0000
  H   H252      1.0  0.35275  0.8201699999999997  0.59669  1.0000
  H   H253      1.0  0.04341  0.7655999999999997  0.7225700000000003  1.0000
  H   H254      1.0  0.8693300000000002  0.7487899999999998  0.72081  1.0000
  H   H255      1.0  0.8596200000000003  0.7550999999999999  0.58944  1.0000
  H   H256      1.0  0.03565  0.76713  0.58425  1.0000
  C   C1        1.0  0.38362  0.17918  0.41261  1.0000
  C   C2        1.0  0.35831  0.14679  0.45166  1.0000
  C   C3        1.0  0.26203  0.14688  0.46475000000000005  1.0000
  C   C4        1.0  0.22925  0.11857999999999999  0.50041  1.0000
  C   C5        1.0  0.29715  0.08644999999999999  0.52537  1.0000
  C   C6        1.0  0.39624  0.0859  0.51243  1.0000
  C   C7        1.0  0.4241000000000001  0.11654999999999997  0.4755200000000001  1.0000
  C   C8        1.0  0.12399000000000003  0.12081999999999997  0.51342  1.0000
  C   C9        1.0  0.11289  0.14851999999999999  0.55896  1.0000
  C   C10       1.0  0.0656  0.15942  0.48325  1.0000
  C   C11       1.0  0.0812  0.05749999999999999  0.51123  1.0000
  C   C12       1.0  0.4705700000000001  0.05691  0.5350300000000002  1.0000
  C   C13       1.0  0.53834  0.002050000000000008  0.5922700000000002  1.0000
  C   C14       1.0  0.6344300000000002  0.006080000000000011  0.5803100000000002  1.0000
  C   C15       1.0  0.7053100000000002  0.9800899999999999  0.60444  1.0000
  C   C16       1.0  0.68165  0.95035  0.64164  1.0000
  C   C17       1.0  0.5874  0.9465299999999999  0.65429  1.0000
  C   C18       1.0  0.51449  0.97085  0.62986  1.0000
  C   C19       1.0  0.3843700000000001  0.9344399999999999  0.67099  1.0000
  C   C20       1.0  0.28704000000000013  0.92817  0.68326  1.0000
  C   C21       1.0  0.20758000000000001  0.95658  0.6626  1.0000
  C   C22       1.0  0.11253  0.9426799999999999  0.6765100000000002  1.0000
  C   C23       1.0  0.10177  0.9036499999999997  0.70954  1.0000
  C   C24       1.0  0.17875  0.8775499999999998  0.73118  1.0000
  C   C25       1.0  0.26998  0.8897899999999999  0.7175  1.0000
  C   C26       1.0  0.02602  0.96973  0.6544800000000002  1.0000
  C   C27       1.0  0.028550000000000002  0.038520000000000006  0.65836  1.0000
  C   C28       1.0  0.02467  0.9490499999999998  0.60699  1.0000
  C   C29       1.0  0.93201  0.9494299999999999  0.6745600000000003  1.0000
  C   C30       1.0  0.16019000000000003  0.8372899999999998  0.7675  1.0000
  C   C31       1.0  0.38428  0.1739  0.28375  1.0000
  C   C32       1.0  0.3696900000000001  0.12952  0.24821  1.0000
  C   C33       1.0  0.27798  0.11295  0.23679  1.0000
  C   C34       1.0  0.25995  0.07422  0.20139  1.0000
  C   C35       1.0  0.33936  0.04965999999999999  0.17718  1.0000
  C   C36       1.0  0.43461  0.06743  0.18906  1.0000
  C   C37       1.0  0.44659  0.10621999999999998  0.22383  1.0000
  C   C38       1.0  0.51965  0.04498  0.16262  1.0000
  C   C39       1.0  0.52609  0.9762599999999999  0.16342  1.0000
  C   C40       1.0  0.51012  0.06652  0.11635  1.0000
  C   C41       1.0  0.61358  0.06999  0.18037  1.0000
  C   C42       1.0  0.16188000000000002  0.06602  0.19043  1.0000
  C   C43       1.0  0.031160000000000007  0.02991  0.14794000000000004  1.0000
  C   C44       1.0  0.95778  0.05336000000000001  0.17362  1.0000
  C   C45       1.0  0.8634500000000002  0.04705  0.16122  1.0000
  C   C46       1.0  0.84054  0.01736  0.12265  1.0000
  C   C47       1.0  0.9121700000000003  0.9936799999999999  0.09665  1.0000
  C   C48       1.0  0.00806  0.9992999999999999  0.10867  1.0000
  C   C49       1.0  0.07668  0.94829  0.04778  1.0000
  C   C50       1.0  0.1504  0.91808  0.02427  1.0000
  C   C51       1.0  0.24726000000000004  0.9110799999999998  0.03955  1.0000
  C   C52       1.0  0.31559  0.8802799999999998  0.01243  1.0000
  C   C53       1.0  0.28529  0.8591799999999999  0.97296  1.0000
  C   C54       1.0  0.1901  0.8641699999999999  0.95829  1.0000
  C   C55       1.0  0.12373  0.8932899999999998  0.98394  1.0000
  C   C56       1.0  0.41859  0.87193  0.02749  1.0000
  C   C57       1.0  0.41972  0.8346499999999998  0.0682  1.0000
  C   C58       1.0  0.46581  0.93314  0.0364  1.0000
  C   C59       1.0  0.47916  0.83896  0.9933000000000002  1.0000
  C   C60       1.0  0.17187  0.8401  0.91506  1.0000
  C   C61       1.0  0.6867300000000002  0.25983999999999996  0.31935  1.0000
  C   C62       1.0  0.78514  0.25955  0.31699  1.0000
  C   C63       1.0  0.83868  0.23042  0.34784  1.0000
  C   C64       1.0  0.7882100000000001  0.20051999999999998  0.37936  1.0000
  C   C65       1.0  0.68935  0.20243999999999995  0.3795800000000001  1.0000
  C   C66       1.0  0.94372  0.23381  0.3469300000000001  1.0000
  C   C67       1.0  0.9926100000000002  0.23863999999999994  0.30814  1.0000
  C   C68       1.0  0.09068  0.24593  0.3085700000000001  1.0000
  C   C69       1.0  0.09611  0.24273999999999998  0.3821  1.0000
  C   C70       1.0  0.9979500000000001  0.23541  0.38459  1.0000
  C   C71       1.0  0.11638000000000003  0.6791799999999999  0.91261  1.0000
  C   C72       1.0  0.14169  0.6467899999999999  0.95165  1.0000
  C   C73       1.0  0.23797000000000004  0.64688  0.96475  1.0000
  C   C74       1.0  0.27075  0.61858  0.0004100000000000001  1.0000
  C   C75       1.0  0.20285  0.58645  0.025370000000000007  1.0000
  C   C76       1.0  0.10376  0.5858899999999999  0.01244  1.0000
  C   C77       1.0  0.07589  0.61655  0.97552  1.0000
  C   C78       1.0  0.3760100000000001  0.62082  0.01342  1.0000
  C   C79       1.0  0.38711  0.6485099999999999  0.05896  1.0000
  C   C80       1.0  0.43439  0.65942  0.98324  1.0000
  C   C81       1.0  0.4188  0.5575  0.011240000000000003  1.0000
  C   C82       1.0  0.02943  0.5569  0.03504  1.0000
  C   C83       1.0  0.96166  0.50205  0.09227  1.0000
  C   C84       1.0  0.86557  0.50608  0.08031  1.0000
  C   C85       1.0  0.79469  0.48009  0.10444000000000003  1.0000
  C   C86       1.0  0.8183500000000002  0.45035  0.14164  1.0000
  C   C87       1.0  0.9126  0.4465299999999999  0.15429  1.0000
  C   C88       1.0  0.9855100000000001  0.47084999999999994  0.12986  1.0000
  C   C89       1.0  0.11563  0.43444  0.17099  1.0000
  C   C90       1.0  0.21296  0.42817  0.18326  1.0000
  C   C91       1.0  0.29242  0.45657999999999993  0.16261  1.0000
  C   C92       1.0  0.38747  0.44268  0.17652  1.0000
  C   C93       1.0  0.39823  0.40365  0.20955  1.0000
  C   C94       1.0  0.32125  0.37754999999999994  0.23118  1.0000
  C   C95       1.0  0.23002  0.38979  0.2175  1.0000
  C   C96       1.0  0.47398000000000007  0.46973  0.15448000000000006  1.0000
  C   C97       1.0  0.47145  0.53851  0.15836  1.0000
  C   C98       1.0  0.47533000000000003  0.44904999999999995  0.10699  1.0000
  C   C99       1.0  0.56799  0.44943  0.17456  1.0000
  C   C100      1.0  0.3398100000000001  0.33729  0.26751  1.0000
  C   C101      1.0  0.11572  0.67391  0.78375  1.0000
  C   C102      1.0  0.13031  0.6295199999999999  0.74821  1.0000
  C   C103      1.0  0.22202  0.61295  0.73679  1.0000
  C   C104      1.0  0.24005  0.57422  0.70139  1.0000
  C   C105      1.0  0.16064000000000006  0.54966  0.67718  1.0000
  C   C106      1.0  0.06539  0.5674299999999999  0.68906  1.0000
  C   C107      1.0  0.05341  0.60622  0.72382  1.0000
  C   C108      1.0  0.9803500000000003  0.5449799999999999  0.66262  1.0000
  C   C109      1.0  0.97391  0.47626  0.6634100000000003  1.0000
  C   C110      1.0  0.98988  0.56652  0.61635  1.0000
  C   C111      1.0  0.88642  0.56999  0.68037  1.0000
  C   C112      1.0  0.3381200000000001  0.56602  0.69043  1.0000
  C   C113      1.0  0.46884  0.52991  0.64794  1.0000
  C   C114      1.0  0.54222  0.5533599999999999  0.67361  1.0000
  C   C115      1.0  0.63655  0.54705  0.66121  1.0000
  C   C116      1.0  0.65946  0.51736  0.62265  1.0000
  C   C117      1.0  0.58783  0.49368  0.59665  1.0000
  C   C118      1.0  0.49194  0.4992999999999999  0.60867  1.0000
  C   C119      1.0  0.42332000000000003  0.44829999999999987  0.54777  1.0000
  C   C120      1.0  0.3496  0.41808  0.5242700000000002  1.0000
  C   C121      1.0  0.25274  0.4110799999999999  0.53955  1.0000
  C   C122      1.0  0.18441  0.38029  0.51242  1.0000
  C   C123      1.0  0.2147  0.3591799999999999  0.4729600000000001  1.0000
  C   C124      1.0  0.3099  0.36416999999999994  0.4582900000000001  1.0000
  C   C125      1.0  0.37627  0.39329  0.48394  1.0000
  C   C126      1.0  0.08141  0.37192999999999987  0.52749  1.0000
  C   C127      1.0  0.08028  0.33466  0.5682  1.0000
  C   C128      1.0  0.03419  0.43315  0.53639  1.0000
  C   C129      1.0  0.020840000000000004  0.33896  0.4933  1.0000
  C   C130      1.0  0.32813  0.3401  0.41506  1.0000
  C   C131      1.0  0.81327  0.7598399999999998  0.81935  1.0000
  C   C132      1.0  0.71486  0.7595499999999997  0.81698  1.0000
  C   C133      1.0  0.66132  0.73042  0.84784  1.0000
  C   C134      1.0  0.71179  0.70052  0.8793600000000003  1.0000
  C   C135      1.0  0.8106500000000002  0.70244  0.87958  1.0000
  C   C136      1.0  0.55628  0.73381  0.84692  1.0000
  C   C137      1.0  0.50739  0.73864  0.80814  1.0000
  C   C138      1.0  0.40932000000000013  0.74593  0.80857  1.0000
  C   C139      1.0  0.40389  0.7427499999999999  0.8821  1.0000
  C   C140      1.0  0.50205  0.7354099999999998  0.88458  1.0000
  C   C141      1.0  0.88362  0.32081999999999994  0.08739  1.0000
  C   C142      1.0  0.85831  0.35320999999999997  0.04834  1.0000
  C   C143      1.0  0.7620300000000001  0.35311999999999993  0.03525  1.0000
  C   C144      1.0  0.72925  0.38142  0.9995900000000001  1.0000
  C   C145      1.0  0.79715  0.41355  0.97462  1.0000
  C   C146      1.0  0.8962400000000003  0.41411  0.98756  1.0000
  C   C147      1.0  0.92411  0.38345  0.02448  1.0000
  C   C148      1.0  0.6239900000000002  0.37918  0.98658  1.0000
  C   C149      1.0  0.61289  0.35149  0.94103  1.0000
  C   C150      1.0  0.56561  0.34058  0.01675  1.0000
  C   C151      1.0  0.5812  0.44250000000000006  0.98876  1.0000
  C   C152      1.0  0.97057  0.4431  0.96496  1.0000
  C   C153      1.0  0.03834  0.49795999999999996  0.90772  1.0000
  C   C154      1.0  0.13443  0.4939299999999999  0.91968  1.0000
  C   C155      1.0  0.20531000000000005  0.51992  0.89555  1.0000
  C   C156      1.0  0.18165  0.5496499999999997  0.85835  1.0000
  C   C157      1.0  0.0874  0.55347  0.8457  1.0000
  C   C158      1.0  0.01449  0.52915  0.87014  1.0000
  C   C159      1.0  0.88437  0.5655599999999998  0.82901  1.0000
  C   C160      1.0  0.78704  0.57184  0.81674  1.0000
  C   C161      1.0  0.70758  0.54342  0.83739  1.0000
  C   C162      1.0  0.61253  0.5573199999999999  0.82348  1.0000
  C   C163      1.0  0.60177  0.59636  0.79045  1.0000
  C   C164      1.0  0.6787500000000001  0.62245  0.76882  1.0000
  C   C165      1.0  0.76998  0.61021  0.7825  1.0000
  C   C166      1.0  0.52602  0.5302699999999999  0.84552  1.0000
  C   C167      1.0  0.52855  0.46149  0.8416300000000002  1.0000
  C   C168      1.0  0.52467  0.5509499999999999  0.89301  1.0000
  C   C169      1.0  0.43201  0.55057  0.82543  1.0000
  C   C170      1.0  0.66019  0.66271  0.7324900000000002  1.0000
  C   C171      1.0  0.8842800000000002  0.3261  0.21625  1.0000
  C   C172      1.0  0.86969  0.37048  0.25179  1.0000
  C   C173      1.0  0.77798  0.3870499999999999  0.2632000000000001  1.0000
  C   C174      1.0  0.75995  0.42577999999999994  0.29861  1.0000
  C   C175      1.0  0.83936  0.45034  0.32281  1.0000
  C   C176      1.0  0.93461  0.43257  0.31094  1.0000
  C   C177      1.0  0.9465900000000002  0.39377999999999996  0.27617  1.0000
  C   C178      1.0  0.01965  0.45502  0.33738  1.0000
  C   C179      1.0  0.02609  0.5237399999999999  0.33658  1.0000
  C   C180      1.0  0.01012  0.43348  0.38365  1.0000
  C   C181      1.0  0.11358000000000003  0.43000999999999995  0.31962  1.0000
  C   C182      1.0  0.6618800000000002  0.43398  0.30957  1.0000
  C   C183      1.0  0.53116  0.47008999999999995  0.35206  1.0000
  C   C184      1.0  0.4577800000000001  0.44664  0.32638  1.0000
  C   C185      1.0  0.36345  0.4529499999999999  0.33878  1.0000
  C   C186      1.0  0.34054  0.4826399999999999  0.37734  1.0000
  C   C187      1.0  0.41217000000000004  0.5063199999999999  0.40335  1.0000
  C   C188      1.0  0.50806  0.5007  0.39132  1.0000
  C   C189      1.0  0.57668  0.5517  0.4522200000000001  1.0000
  C   C190      1.0  0.6504  0.5819199999999999  0.4757300000000001  1.0000
  C   C191      1.0  0.74726  0.58892  0.46045  1.0000
  C   C192      1.0  0.81559  0.61971  0.4875700000000001  1.0000
  C   C193      1.0  0.78529  0.6408199999999998  0.52704  1.0000
  C   C194      1.0  0.6901  0.63583  0.54171  1.0000
  C   C195      1.0  0.62373  0.60671  0.5160600000000002  1.0000
  C   C196      1.0  0.9185900000000002  0.62807  0.4725100000000001  1.0000
  C   C197      1.0  0.9197200000000002  0.66534  0.43180000000000013  1.0000
  C   C198      1.0  0.9658100000000001  0.5668599999999999  0.4636  1.0000
  C   C199      1.0  0.97916  0.66104  0.50669  1.0000
  C   C200      1.0  0.67187  0.6599  0.58493  1.0000
  C   C201      1.0  0.18673  0.24015999999999998  0.18065000000000006  1.0000
  C   C202      1.0  0.28514  0.24044999999999994  0.18301000000000006  1.0000
  C   C203      1.0  0.33868  0.26958  0.15216  1.0000
  C   C204      1.0  0.28821  0.29947999999999997  0.12063000000000003  1.0000
  C   C205      1.0  0.18935  0.29757  0.12042000000000003  1.0000
  C   C206      1.0  0.44372  0.2661899999999999  0.15307  1.0000
  C   C207      1.0  0.49261000000000005  0.26136  0.19186  1.0000
  C   C208      1.0  0.59068  0.25407  0.19142  1.0000
  C   C209      1.0  0.59611  0.25726  0.1179  1.0000
  C   C210      1.0  0.4979500000000001  0.26458999999999994  0.11541  1.0000
  C   C211      1.0  0.61638  0.82082  0.58738  1.0000
  C   C212      1.0  0.6416900000000001  0.85321  0.54834  1.0000
  C   C213      1.0  0.73797  0.8531299999999999  0.53525  1.0000
  C   C214      1.0  0.7707500000000003  0.8814199999999998  0.49959  1.0000
  C   C215      1.0  0.70285  0.91355  0.47462  1.0000
  C   C216      1.0  0.60376  0.91411  0.48756  1.0000
  C   C217      1.0  0.5759000000000002  0.8834499999999997  0.5244800000000002  1.0000
  C   C218      1.0  0.87601  0.8791799999999997  0.4865800000000001  1.0000
  C   C219      1.0  0.88711  0.85148  0.44104  1.0000
  C   C220      1.0  0.9344  0.8405799999999998  0.5167500000000003  1.0000
  C   C221      1.0  0.9188000000000001  0.9425  0.48876  1.0000
  C   C222      1.0  0.52943  0.9430899999999998  0.46496000000000004  1.0000
  C   C223      1.0  0.46166  0.9979499999999998  0.40773  1.0000
  C   C224      1.0  0.3655700000000001  0.99392  0.41969  1.0000
  C   C225      1.0  0.2946900000000001  0.01991  0.39555  1.0000
  C   C226      1.0  0.31835  0.04964999999999999  0.35836  1.0000
  C   C227      1.0  0.4126  0.05347  0.3457000000000001  1.0000
  C   C228      1.0  0.48551  0.02915  0.37014000000000014  1.0000
  C   C229      1.0  0.61563  0.06556  0.32901000000000014  1.0000
  C   C230      1.0  0.7129600000000001  0.07184  0.31674  1.0000
  C   C231      1.0  0.7924200000000001  0.04341999999999999  0.33739  1.0000
  C   C232      1.0  0.8874700000000002  0.05732  0.3234800000000001  1.0000
  C   C233      1.0  0.89823  0.09635  0.29045  1.0000
  C   C234      1.0  0.82125  0.12244999999999999  0.26882  1.0000
  C   C235      1.0  0.7300200000000001  0.11020999999999997  0.2825000000000001  1.0000
  C   C236      1.0  0.9739800000000002  0.03026999999999999  0.34552  1.0000
  C   C237      1.0  0.97145  0.9614799999999999  0.34163  1.0000
  C   C238      1.0  0.97533  0.05094999999999999  0.39301  1.0000
  C   C239      1.0  0.06799  0.05057  0.32543  1.0000
  C   C240      1.0  0.83981  0.16270999999999997  0.23249  1.0000
  C   C241      1.0  0.61572  0.8260999999999997  0.71625  1.0000
  C   C242      1.0  0.6303100000000003  0.87048  0.7517900000000002  1.0000
  C   C243      1.0  0.72202  0.8870499999999998  0.7632  1.0000
  C   C244      1.0  0.74005  0.9257799999999999  0.79861  1.0000
  C   C245      1.0  0.66064  0.9503399999999999  0.8228100000000003  1.0000
  C   C246      1.0  0.56539  0.9325699999999999  0.81094  1.0000
  C   C247      1.0  0.55341  0.8937799999999998  0.77617  1.0000
  C   C248      1.0  0.4803500000000001  0.95502  0.83737  1.0000
  C   C249      1.0  0.47391  0.02374  0.83658  1.0000
  C   C250      1.0  0.48988  0.9334799999999999  0.88365  1.0000
  C   C251      1.0  0.38642  0.93001  0.81962  1.0000
  C   C252      1.0  0.83812  0.93398  0.80957  1.0000
  C   C253      1.0  0.9688400000000003  0.9700899999999998  0.8520600000000003  1.0000
  C   C254      1.0  0.04222  0.94664  0.8263800000000002  1.0000
  C   C255      1.0  0.13655  0.9529499999999999  0.83878  1.0000
  C   C256      1.0  0.15946  0.98264  0.87734  1.0000
  C   C257      1.0  0.08783  0.00632  0.90335  1.0000
  C   C258      1.0  0.99194  0.0007000000000000075  0.8913200000000002  1.0000
  C   C259      1.0  0.92332  0.05171  0.95222  1.0000
  C   C260      1.0  0.8496  0.08193  0.97572  1.0000
  C   C261      1.0  0.75274  0.08892000000000001  0.9604500000000002  1.0000
  C   C262      1.0  0.68441  0.11971999999999998  0.98757  1.0000
  C   C263      1.0  0.71471  0.14082  0.02704  1.0000
  C   C264      1.0  0.8099  0.13583  0.04171  1.0000
  C   C265      1.0  0.87627  0.10670999999999997  0.01606  1.0000
  C   C266      1.0  0.58141  0.12807  0.97251  1.0000
  C   C267      1.0  0.58028  0.16535  0.9318  1.0000
  C   C268      1.0  0.53419  0.06686  0.9636000000000002  1.0000
  C   C269      1.0  0.52084  0.16103999999999996  0.0067  1.0000
  C   C270      1.0  0.82813  0.1599  0.08494  1.0000
  C   C271      1.0  0.31327000000000005  0.74016  0.68064  1.0000
  C   C272      1.0  0.21486  0.74045  0.6830100000000002  1.0000
  C   C273      1.0  0.16132  0.7695799999999999  0.65215  1.0000
  C   C274      1.0  0.21179  0.7994799999999997  0.62063  1.0000
  C   C275      1.0  0.31065000000000004  0.7975699999999998  0.62042  1.0000
  C   C276      1.0  0.05628  0.7661899999999999  0.65307  1.0000
  C   C277      1.0  0.00739  0.7613599999999999  0.69186  1.0000
  C   C278      1.0  0.90932  0.7540699999999999  0.69142  1.0000
  C   C279      1.0  0.9038900000000002  0.75726  0.6179  1.0000
  C   C280      1.0  0.00205  0.76459  0.61541  1.0000
  N   N1        1.0  0.6388  0.23221999999999998  0.3504  1.0000
  N   N2        1.0  0.46164  0.027010000000000003  0.5702700000000003  1.0000
  N   N3        1.0  0.14223  0.24844  0.34479  1.0000
  N   N4        1.0  0.41754  0.9674799999999999  0.64031  1.0000
  N   N5        1.0  0.12837  0.03345  0.15829  1.0000
  N   N6        1.0  0.08494  0.97463  0.08556000000000002  1.0000
  N   N7        1.0  0.8612000000000001  0.73222  0.8504  1.0000
  N   N8        1.0  0.03836  0.5270099999999999  0.07027  1.0000
  N   N9        1.0  0.35777  0.7484399999999999  0.84479  1.0000
  N   N10       1.0  0.08246  0.46748  0.14031  1.0000
  N   N11       1.0  0.37163  0.53345  0.6582900000000002  1.0000
  N   N12       1.0  0.41506000000000004  0.4746299999999999  0.58556  1.0000
  N   N13       1.0  0.1388  0.26777999999999996  0.1496  1.0000
  N   N14       1.0  0.96164  0.47299  0.92973  1.0000
  N   N15       1.0  0.6422300000000001  0.25156  0.15521  1.0000
  N   N16       1.0  0.91754  0.5325199999999999  0.85968  1.0000
  N   N17       1.0  0.62837  0.4665499999999999  0.34171  1.0000
  N   N18       1.0  0.58494  0.52537  0.41444  1.0000
  N   N19       1.0  0.3612  0.7677799999999999  0.64959  1.0000
  N   N20       1.0  0.53836  0.9729899999999999  0.4297300000000001  1.0000
  N   N21       1.0  0.85777  0.75156  0.65521  1.0000
  N   N22       1.0  0.58246  0.03251999999999999  0.3596800000000001  1.0000
  N   N23       1.0  0.8716300000000002  0.9665599999999998  0.8417  1.0000
  N   N24       1.0  0.9150600000000002  0.02538  0.91444  1.0000
  O   O1        1.0  0.47211  0.17860999999999996  0.40073  1.0000
  O   O2        1.0  0.31807000000000013  0.20564999999999994  0.3932000000000001  1.0000
  O   O3        1.0  0.26643  0.059019999999999996  0.55872  1.0000
  O   O4        1.0  0.21882  0.9934599999999998  0.63159  1.0000
  O   O5        1.0  0.07689000000000001  0.8193299999999998  0.7746  1.0000
  O   O6        1.0  0.2342  0.82416  0.78986  1.0000
  O   O7        1.0  0.47026  0.18424999999999997  0.29660000000000003  1.0000
  O   O8        1.0  0.31015  0.19873  0.2988  1.0000
  O   O9        1.0  0.32835  0.012479999999999998  0.14482  1.0000
  O   O10       1.0  0.27559  0.9317099999999999  0.07661  1.0000
  O   O11       1.0  0.23807  0.83343  0.88914  1.0000
  O   O12       1.0  0.08118  0.8246199999999999  0.90638  1.0000
  O   O13       1.0  0.42865  0.30905  0.36008  1.0000
  O   O14       1.0  0.02789  0.6786099999999999  0.9007300000000003  1.0000
  O   O15       1.0  0.18193  0.70565  0.8932  1.0000
  O   O16       1.0  0.23357000000000006  0.55901  0.05872  1.0000
  O   O17       1.0  0.28118  0.49346  0.13159  1.0000
  O   O18       1.0  0.42311  0.31933  0.27461  1.0000
  O   O19       1.0  0.2658  0.32415999999999995  0.28986  1.0000
  O   O20       1.0  0.029740000000000006  0.6842500000000001  0.7965900000000002  1.0000
  O   O21       1.0  0.18985  0.69874  0.7988  1.0000
  O   O22       1.0  0.17165  0.51248  0.64482  1.0000
  O   O23       1.0  0.22441  0.4317199999999999  0.57661  1.0000
  O   O24       1.0  0.26193  0.33342999999999995  0.3891400000000001  1.0000
  O   O25       1.0  0.41881000000000007  0.32462  0.40639  1.0000
  O   O26       1.0  0.07134  0.80905  0.86008  1.0000
  O   O27       1.0  0.97211  0.32139999999999996  0.09926  1.0000
  O   O28       1.0  0.81807  0.29435  0.10680000000000002  1.0000
  O   O29       1.0  0.76643  0.44099  0.94128  1.0000
  O   O30       1.0  0.71882  0.50654  0.86841  1.0000
  O   O31       1.0  0.57689  0.68067  0.72539  1.0000
  O   O32       1.0  0.7342  0.6758399999999999  0.71014  1.0000
  O   O33       1.0  0.9702600000000002  0.31575  0.2034  1.0000
  O   O34       1.0  0.81015  0.30126  0.20120000000000005  1.0000
  O   O35       1.0  0.8283500000000003  0.4875199999999999  0.35518  1.0000
  O   O36       1.0  0.77559  0.56829  0.42339  1.0000
  O   O37       1.0  0.73807  0.66658  0.6108500000000002  1.0000
  O   O38       1.0  0.58118  0.67538  0.59361  1.0000
  O   O39       1.0  0.9286500000000001  0.19096  0.13992  1.0000
  O   O40       1.0  0.52789  0.8214  0.59926  1.0000
  O   O41       1.0  0.6819300000000001  0.7943499999999999  0.60679  1.0000
  O   O42       1.0  0.73357  0.9409899999999998  0.44128  1.0000
  O   O43       1.0  0.78118  0.00654  0.36841  1.0000
  O   O44       1.0  0.9231100000000001  0.18066999999999994  0.22539  1.0000
  O   O45       1.0  0.7658000000000003  0.17585  0.21014  1.0000
  O   O46       1.0  0.52974  0.81575  0.7034  1.0000
  O   O47       1.0  0.68985  0.8012699999999999  0.7012000000000003  1.0000
  O   O48       1.0  0.67165  0.98752  0.85518  1.0000
  O   O49       1.0  0.72441  0.06829  0.92339  1.0000
  O   O50       1.0  0.7619300000000002  0.16657  0.11086000000000003  1.0000
  O   O51       1.0  0.91882  0.17538  0.09361000000000003  1.0000
  O   O52       1.0  0.57135  0.6909599999999999  0.6399200000000002  1.0000
