data_image0
_chemical_formula_structural       Zn32H112C288N48O128
_chemical_formula_sum              "Zn32 H112 C288 N48 O128"
_cell_length_a       26.91586
_cell_length_b       27.62067
_cell_length_c       27.07949
_cell_angle_alpha    90.02284
_cell_angle_beta     89.97582
_cell_angle_gamma    90.00184

_symmetry_space_group_name_H-M    'P 1'
_symmetry_Int_Tables_number       1

loop_
  _symmetry_equiv_pos_as_xyz
  'x,y,z'

loop_
  _atom_site_type_symbol
  _atom_site_label
  _atom_site_symmetry_multiplicity
  _atom_site_fract_x
  _atom_site_fract_y
  _atom_site_fract_z
  _atom_site_occupancy
  Zn  Zn1       1.0  0.77415  0.27496  0.46375  1.0000
  Zn  Zn2       1.0  0.70606  0.18922  0.43422999999999995  1.0000
  Zn  Zn3       1.0  0.05636  0.79382  0.27788  1.0000
  Zn  Zn4       1.0  0.04884999999999999  0.2063  0.29375  1.0000
  Zn  Zn5       1.0  0.72614  0.27479  0.03609  1.0000
  Zn  Zn6       1.0  0.7939499999999998  0.18899  0.06613  1.0000
  Zn  Zn7       1.0  0.4438599999999999  0.79388  0.22369  1.0000
  Zn  Zn8       1.0  0.45121  0.20636  0.20590999999999995  1.0000
  Zn  Zn9       1.0  0.27381  0.22676  0.5363  1.0000
  Zn  Zn10      1.0  0.20591  0.3116  0.5660599999999999  1.0000
  Zn  Zn11      1.0  0.55636  0.70593  0.72165  1.0000
  Zn  Zn12      1.0  0.5489  0.29383  0.70631  1.0000
  Zn  Zn13      1.0  0.22577999999999995  0.22674  0.96376  1.0000
  Zn  Zn14      1.0  0.29391  0.31200000000000006  0.9337199999999999  1.0000
  Zn  Zn15      1.0  0.9436499999999998  0.70664  0.7766699999999999  1.0000
  Zn  Zn16      1.0  0.9508999999999999  0.29396  0.79376  1.0000
  Zn  Zn17      1.0  0.22573999999999994  0.7268200000000001  0.53625  1.0000
  Zn  Zn18      1.0  0.29392999999999997  0.81232  0.56648  1.0000
  Zn  Zn19      1.0  0.9436899999999998  0.20799  0.72322  1.0000
  Zn  Zn20      1.0  0.9505699999999998  0.79389  0.70614  1.0000
  Zn  Zn21      1.0  0.27373  0.7251  0.96365  1.0000
  Zn  Zn22      1.0  0.20616999999999994  0.81065  0.9340599999999998  1.0000
  Zn  Zn23      1.0  0.55631  0.206  0.77859  1.0000
  Zn  Zn24      1.0  0.5488499999999998  0.79382  0.79376  1.0000
  Zn  Zn25      1.0  0.72582  0.77363  0.4637  1.0000
  Zn  Zn26      1.0  0.79343  0.68906  0.4335799999999999  1.0000
  Zn  Zn27      1.0  0.44403  0.29434  0.27649  1.0000
  Zn  Zn28      1.0  0.44843  0.70598  0.29583  1.0000
  Zn  Zn29      1.0  0.77417  0.77489  0.03624  1.0000
  Zn  Zn30      1.0  0.70628  0.6894000000000001  0.06587  1.0000
  Zn  Zn31      1.0  0.05634  0.29407000000000005  0.22156  1.0000
  Zn  Zn32      1.0  0.048929999999999994  0.70634  0.20599999999999996  1.0000
  H   H1        1.0  0.8993199999999998  0.21698  0.3688  1.0000
  H   H2        1.0  0.96496  0.07539  0.35693  1.0000
  H   H3        1.0  0.81998  0.09205  0.42320999999999986  1.0000
  H   H4        1.0  0.9298099999999998  0.9938  0.3420299999999999  1.0000
  H   H5        1.0  0.9613599999999998  0.90489  0.34646  1.0000
  H   H6        1.0  0.9022099999999998  0.7605700000000001  0.34752  1.0000
  H   H7        1.0  0.8215199999999998  0.87619  0.4189  1.0000
  H   H8        1.0  0.8424999999999998  0.26589  0.61663  1.0000
  H   H9        1.0  0.9097999999999998  0.38964  0.6873099999999999  1.0000
  H   H10       1.0  0.8359  0.40538  0.5468  1.0000
  H   H11       1.0  0.8359599999999998  0.50016  0.57111  1.0000
  H   H12       1.0  0.8541299999999997  0.57602  0.5331  1.0000
  H   H13       1.0  0.8671999999999999  0.72278  0.5848  1.0000
  H   H14       1.0  0.9198299999999998  0.60481  0.67547  1.0000
  H   H15       1.0  0.6014399999999998  0.21681  0.13101  1.0000
  H   H16       1.0  0.53457  0.07578  0.14299  1.0000
  H   H17       1.0  0.67986  0.09097  0.07721  1.0000
  H   H18       1.0  0.56953  0.99377  0.15809  1.0000
  H   H19       1.0  0.5379799999999999  0.9049000000000001  0.15373  1.0000
  H   H20       1.0  0.59756  0.76075  0.15243  1.0000
  H   H21       1.0  0.6781299999999998  0.87677  0.08168999999999998  1.0000
  H   H22       1.0  0.6566599999999998  0.26551  0.88351  1.0000
  H   H23       1.0  0.58941  0.38936  0.81316  1.0000
  H   H24       1.0  0.66439  0.40511  0.95311  1.0000
  H   H25       1.0  0.6639599999999998  0.50008  0.9287499999999999  1.0000
  H   H26       1.0  0.6458599999999998  0.57608  0.96642  1.0000
  H   H27       1.0  0.63206  0.7225400000000001  0.9142799999999999  1.0000
  H   H28       1.0  0.57992  0.60407  0.82394  1.0000
  H   H29       1.0  0.39820999999999995  0.28365  0.63217  1.0000
  H   H30       1.0  0.4656399999999999  0.42462  0.64299  1.0000
  H   H31       1.0  0.32013  0.40929  0.57774  1.0000
  H   H32       1.0  0.4300199999999999  0.50713  0.65783  1.0000
  H   H33       1.0  0.46131  0.59522  0.6523499999999998  1.0000
  H   H34       1.0  0.4023899999999999  0.73964  0.65216  1.0000
  H   H35       1.0  0.321  0.62422  0.58121  1.0000
  H   H36       1.0  0.3446499999999999  0.23595  0.38321  1.0000
  H   H37       1.0  0.41049  0.11112  0.31326  1.0000
  H   H38       1.0  0.3361  0.09684  0.45375  1.0000
  H   H39       1.0  0.3360499999999999  0.0010299999999999999  0.4293499999999999  1.0000
  H   H40       1.0  0.35444999999999993  0.92527  0.46707  1.0000
  H   H41       1.0  0.3683399999999999  0.7786  0.41562  1.0000
  H   H42       1.0  0.42019  0.89664  0.32453  1.0000
  H   H43       1.0  0.10059999999999997  0.28317  0.86863  1.0000
  H   H44       1.0  0.03452  0.42455  0.85656  1.0000
  H   H45       1.0  0.17951999999999996  0.40852  0.92276  1.0000
  H   H46       1.0  0.06918  0.50595  0.8418199999999998  1.0000
  H   H47       1.0  0.03786999999999999  0.59511  0.84568  1.0000
  H   H48       1.0  0.09719999999999995  0.7393400000000001  0.84787  1.0000
  H   H49       1.0  0.17720999999999995  0.62313  0.9190099999999998  1.0000
  H   H50       1.0  0.15624999999999994  0.23531  0.11682  1.0000
  H   H51       1.0  0.08983999999999998  0.11075  0.18663999999999994  1.0000
  H   H52       1.0  0.16388  0.09632000000000002  0.04594  1.0000
  H   H53       1.0  0.16408  0.0003  0.07072  1.0000
  H   H54       1.0  0.14604  0.92431  0.03341  1.0000
  H   H55       1.0  0.13215  0.77791  0.08556  1.0000
  H   H56       1.0  0.07981999999999997  0.89638  0.17586  1.0000
  H   H57       1.0  0.10059  0.78341  0.6317399999999997  1.0000
  H   H58       1.0  0.0343  0.92477  0.6435  1.0000
  H   H59       1.0  0.17974999999999994  0.90873  0.57807  1.0000
  H   H60       1.0  0.06918  0.00665  0.65833  1.0000
  H   H61       1.0  0.03725  0.09584  0.6529299999999998  1.0000
  H   H62       1.0  0.09661  0.24008  0.65133  1.0000
  H   H63       1.0  0.17752  0.12386  0.58114  1.0000
  H   H64       1.0  0.15671  0.73532  0.38279  1.0000
  H   H65       1.0  0.09053  0.61073  0.31274  1.0000
  H   H66       1.0  0.16329999999999997  0.5964800000000001  0.45403  1.0000
  H   H67       1.0  0.16403999999999994  0.50034  0.42894  1.0000
  H   H68       1.0  0.14574  0.42416  0.46632  1.0000
  H   H69       1.0  0.13179  0.27779  0.41396999999999995  1.0000
  H   H70       1.0  0.07965999999999998  0.39638  0.3238599999999999  1.0000
  H   H71       1.0  0.3996899999999999  0.7829000000000002  0.86897  1.0000
  H   H72       1.0  0.46464  0.92476  0.85657  1.0000
  H   H73       1.0  0.31974999999999987  0.9077  0.9229  1.0000
  H   H74       1.0  0.42956  0.006440000000000001  0.84223  1.0000
  H   H75       1.0  0.46080999999999994  0.09458  0.84735  1.0000
  H   H76       1.0  0.4024899999999999  0.23921  0.84776  1.0000
  H   H77       1.0  0.32055999999999996  0.12408  0.91858  1.0000
  H   H78       1.0  0.34238  0.73547  0.11698  1.0000
  H   H79       1.0  0.40883999999999987  0.61164  0.18807  1.0000
  H   H80       1.0  0.33617  0.59603  0.04688  1.0000
  H   H81       1.0  0.3358299999999999  0.50124  0.07114  1.0000
  H   H82       1.0  0.35448  0.42501  0.03277  1.0000
  H   H83       1.0  0.36915999999999993  0.27849  0.08444999999999997  1.0000
  H   H84       1.0  0.41983999999999994  0.39714  0.17546  1.0000
  H   H85       1.0  0.5995299999999998  0.71708  0.36855  1.0000
  H   H86       1.0  0.5334999999999998  0.57548  0.35762  1.0000
  H   H87       1.0  0.67968  0.59185  0.42104  1.0000
  H   H88       1.0  0.5695699999999999  0.49361  0.34166  1.0000
  H   H89       1.0  0.53835  0.40531  0.34658  1.0000
  H   H90       1.0  0.59775  0.26106  0.34702  1.0000
  H   H91       1.0  0.67841  0.37675  0.41835  1.0000
  H   H92       1.0  0.6560799999999999  0.76486  0.61665  1.0000
  H   H93       1.0  0.58988  0.88931  0.6869  1.0000
  H   H94       1.0  0.6638799999999999  0.90406  0.54624  1.0000
  H   H95       1.0  0.6640099999999998  5e-05  0.57111  1.0000
  H   H96       1.0  0.6447199999999997  0.07615  0.53344  1.0000
  H   H97       1.0  0.63257  0.22251  0.58633  1.0000
  H   H98       1.0  0.58091  0.10403  0.67692  1.0000
  H   H99       1.0  0.8994599999999998  0.71721  0.13119  1.0000
  H   H100      1.0  0.9648199999999998  0.5755  0.14326  1.0000
  H   H101      1.0  0.8199499999999998  0.59231  0.07692999999999998  1.0000
  H   H102      1.0  0.9296899999999998  0.49387  0.15781  1.0000
  H   H103      1.0  0.9612499999999999  0.40549  0.15304999999999996  1.0000
  H   H104      1.0  0.9028599999999999  0.26087  0.1517  1.0000
  H   H105      1.0  0.82172  0.37618  0.08045999999999999  1.0000
  H   H106      1.0  0.8424899999999997  0.76563  0.88354  1.0000
  H   H107      1.0  0.90971  0.8892600000000002  0.8126299999999997  1.0000
  H   H108      1.0  0.83577  0.90521  0.9531799999999999  1.0000
  H   H109      1.0  0.8359699999999998  1.9999999999999876e-05  0.9288499999999997  1.0000
  H   H110      1.0  0.85422  0.07614  0.9666899999999998  1.0000
  H   H111      1.0  0.86803  0.22263  0.9147299999999998  1.0000
  H   H112      1.0  0.91991  0.10422  0.82406  1.0000
  C   C1        1.0  0.8130499999999998  0.18811  0.4165699999999999  1.0000
  C   C2        1.0  0.8557099999999997  0.15803  0.39912  1.0000
  C   C3        1.0  0.89702  0.17823000000000003  0.37541999999999986  1.0000
  C   C4        1.0  0.93552  0.14783  0.35936  1.0000
  C   C5        1.0  0.9788699999999998  0.16927  0.33294  1.0000
  C   C6        1.0  0.9336599999999998  0.09776  0.36815  1.0000
  C   C7        1.0  0.8916899999999998  0.07811  0.39108  1.0000
  C   C8        1.0  0.85259  0.10791  0.40608  1.0000
  C   C9        1.0  0.9057099999999999  0.98926  0.37365  1.0000
  C   C10       1.0  0.8847799999999998  0.9487000000000001  0.39553  1.0000
  C   C11       1.0  0.8898899999999997  0.89742  0.3829499999999999  1.0000
  C   C12       1.0  0.9312899999999997  0.88056  0.3567  1.0000
  C   C13       1.0  0.9355799999999997  0.8316  0.3438799999999999  1.0000
  C   C14       1.0  0.98102  0.81534  0.31773999999999997  1.0000
  C   C15       1.0  0.8986  0.79858  0.35731999999999997  1.0000
  C   C16       1.0  0.85772  0.81502  0.38472  1.0000
  C   C17       1.0  0.8198099999999999  0.78001  0.40255999999999986  1.0000
  C   C18       1.0  0.8533199999999997  0.8640600000000002  0.39743  1.0000
  C   C19       1.0  0.8097499999999997  0.31235  0.53504  1.0000
  C   C20       1.0  0.83557  0.33409  0.57835  1.0000
  C   C21       1.0  0.8507899999999998  0.3044  0.61744  1.0000
  C   C22       1.0  0.8779599999999997  0.3247  0.65651  1.0000
  C   C23       1.0  0.89858  0.29349  0.69627  1.0000
  C   C24       1.0  0.8886099999999998  0.37428  0.65696  1.0000
  C   C25       1.0  0.8731699999999998  0.40436  0.6181099999999999  1.0000
  C   C26       1.0  0.84702  0.3837  0.57848  1.0000
  C   C27       1.0  0.88619  0.45582  0.62038  1.0000
  C   C28       1.0  0.8663799999999998  0.49591  0.5967999999999999  1.0000
  C   C29       1.0  0.88667  0.58467  0.606  1.0000
  C   C30       1.0  0.86519  0.6009400000000001  0.56217  1.0000
  C   C31       1.0  0.85768  0.65071  0.55517  1.0000
  C   C32       1.0  0.83322  0.6671300000000001  0.50899  1.0000
  C   C33       1.0  0.87315  0.68428  0.59074  1.0000
  C   C34       1.0  0.8964699999999998  0.66755  0.63368  1.0000
  C   C35       1.0  0.91484  0.70158  0.67252  1.0000
  C   C36       1.0  0.9026099999999998  0.61772  0.6417099999999999  1.0000
  C   C37       1.0  0.6880199999999997  0.18665  0.08349  1.0000
  C   C38       1.0  0.6447799999999999  0.15739000000000003  0.10097  1.0000
  C   C39       1.0  0.6035399999999997  0.17802  0.12449999999999999  1.0000
  C   C40       1.0  0.5646199999999999  0.14798  0.14029  1.0000
  C   C41       1.0  0.5209399999999998  0.16955  0.16597999999999993  1.0000
  C   C42       1.0  0.5661  0.09785  0.1318  1.0000
  C   C43       1.0  0.6079599999999997  0.07789  0.10905  1.0000
  C   C44       1.0  0.64739  0.10725  0.09417  1.0000
  C   C45       1.0  0.5936599999999999  0.98925  0.12648  1.0000
  C   C46       1.0  0.6146499999999998  0.94869  0.1047  1.0000
  C   C47       1.0  0.6095699999999997  0.89753  0.11737  1.0000
  C   C48       1.0  0.5681299999999999  0.88064  0.14349  1.0000
  C   C49       1.0  0.56403  0.83164  0.15616  1.0000
  C   C50       1.0  0.51869  0.81524  0.18244  1.0000
  C   C51       1.0  0.6011599999999998  0.79876  0.14269999999999997  1.0000
  C   C52       1.0  0.64212  0.8153  0.11548  1.0000
  C   C53       1.0  0.6801899999999997  0.78054  0.09742999999999997  1.0000
  C   C54       1.0  0.6463399999999998  0.86438  0.10296999999999998  1.0000
  C   C55       1.0  0.69015  0.31208  0.9649  1.0000
  C   C56       1.0  0.6641299999999998  0.33377  0.9217  1.0000
  C   C57       1.0  0.6485  0.30404  0.88276  1.0000
  C   C58       1.0  0.62116  0.32435  0.84381  1.0000
  C   C59       1.0  0.6001999999999997  0.29319  0.80413  1.0000
  C   C60       1.0  0.6107299999999999  0.37396  0.84337  1.0000
  C   C61       1.0  0.6265799999999998  0.4040500000000001  0.88206  1.0000
  C   C62       1.0  0.6528999999999999  0.38342  0.9215499999999998  1.0000
  C   C63       1.0  0.6137099999999998  0.45551  0.8796699999999998  1.0000
  C   C64       1.0  0.63355  0.49571  0.9030599999999999  1.0000
  C   C65       1.0  0.61314  0.58438  0.89349  1.0000
  C   C66       1.0  0.63463  0.60081  0.93726  1.0000
  C   C67       1.0  0.64194  0.6506  0.9441  1.0000
  C   C68       1.0  0.6666699999999998  0.66728  0.9900999999999999  1.0000
  C   C69       1.0  0.62624  0.684  0.90846  1.0000
  C   C70       1.0  0.6028999999999998  0.66711  0.8655499999999998  1.0000
  C   C71       1.0  0.5842599999999998  0.70105  0.82672  1.0000
  C   C72       1.0  0.5970199999999998  0.6172200000000001  0.8576699999999998  1.0000
  C   C73       1.0  0.31184  0.31366  0.58464  1.0000
  C   C74       1.0  0.35502  0.34301  0.6020099999999998  1.0000
  C   C75       1.0  0.3962799999999999  0.32243  0.6254899999999998  1.0000
  C   C76       1.0  0.4353399999999999  0.35242  0.64106  1.0000
  C   C77       1.0  0.47878999999999994  0.33075  0.6671599999999998  1.0000
  C   C78       1.0  0.43402  0.40252  0.63207  1.0000
  C   C79       1.0  0.3921399999999999  0.42247  0.6093099999999999  1.0000
  C   C80       1.0  0.35257  0.39309  0.5948099999999997  1.0000
  C   C81       1.0  0.40594  0.51139  0.62617  1.0000
  C   C82       1.0  0.3846499999999999  0.5517  0.60414  1.0000
  C   C83       1.0  0.38957  0.60296  0.6165699999999997  1.0000
  C   C84       1.0  0.4311999999999999  0.61963  0.64247  1.0000
  C   C85       1.0  0.43561  0.66851  0.65538  1.0000
  C   C86       1.0  0.4812  0.6844200000000001  0.68137  1.0000
  C   C87       1.0  0.3986499999999999  0.70167  0.64226  1.0000
  C   C88       1.0  0.3575499999999999  0.68545  0.6150899999999998  1.0000
  C   C89       1.0  0.31979  0.72075  0.5973899999999999  1.0000
  C   C90       1.0  0.3529299999999999  0.63638  0.60243  1.0000
  C   C91       1.0  0.31087  0.19017  0.46508  1.0000
  C   C92       1.0  0.3366999999999999  0.16806  0.4218899999999999  1.0000
  C   C93       1.0  0.35247  0.19734  0.3827  1.0000
  C   C94       1.0  0.3795599999999999  0.17656  0.3438  1.0000
  C   C95       1.0  0.4007199999999999  0.20724  0.30394  1.0000
  C   C96       1.0  0.38946  0.12687  0.34352  1.0000
  C   C97       1.0  0.3735  0.09714  0.38245  1.0000
  C   C98       1.0  0.34754  0.11826  0.42198  1.0000
  C   C99       1.0  0.38611999999999996  0.04557  0.3800499999999999  1.0000
  C   C100      1.0  0.3663599999999999  0.00538  0.40351  1.0000
  C   C101      1.0  0.38694  0.91667  0.39405  1.0000
  C   C102      1.0  0.36566999999999994  0.9004100000000002  0.43798999999999993  1.0000
  C   C103      1.0  0.3586  0.85063  0.44513  1.0000
  C   C104      1.0  0.33428  0.83409  0.49131  1.0000
  C   C105      1.0  0.37409999999999993  0.8171  0.40956999999999993  1.0000
  C   C106      1.0  0.3972199999999999  0.8338500000000001  0.36651999999999996  1.0000
  C   C107      1.0  0.4154499999999999  0.79955  0.32794  1.0000
  C   C108      1.0  0.4031099999999999  0.88367  0.35835999999999996  1.0000
  C   C109      1.0  0.1867  0.31246000000000007  0.9163  1.0000
  C   C110      1.0  0.14405  0.34235  0.8987499999999998  1.0000
  C   C111      1.0  0.10280999999999997  0.3219600000000001  0.8751299999999997  1.0000
  C   C112      1.0  0.06422  0.35219  0.8590699999999999  1.0000
  C   C113      1.0  0.020949999999999996  0.3307  0.83277  1.0000
  C   C114      1.0  0.06588  0.40228  0.86778  1.0000
  C   C115      1.0  0.10775  0.42202  0.8907  1.0000
  C   C116      1.0  0.14701  0.39246  0.90566  1.0000
  C   C117      1.0  0.09333999999999998  0.51064  0.87335  1.0000
  C   C118      1.0  0.11427  0.55123  0.89513  1.0000
  C   C119      1.0  0.10910999999999997  0.60242  0.88262  1.0000
  C   C120      1.0  0.0679  0.6193600000000001  0.85624  1.0000
  C   C121      1.0  0.06383  0.66839  0.8437  1.0000
  C   C122      1.0  0.01857  0.68483  0.81743  1.0000
  C   C123      1.0  0.10077  0.7013  0.8575399999999997  1.0000
  C   C124      1.0  0.14143999999999998  0.68473  0.8850999999999998  1.0000
  C   C125      1.0  0.1793  0.71949  0.90356  1.0000
  C   C126      1.0  0.14564999999999997  0.6356100000000001  0.8974799999999998  1.0000
  C   C127      1.0  0.18926999999999994  0.18972999999999998  0.03481  1.0000
  C   C128      1.0  0.16364999999999993  0.16748  0.07798  1.0000
  C   C129      1.0  0.14823  0.19675  0.11729  1.0000
  C   C130      1.0  0.12112999999999999  0.17604  0.15618  1.0000
  C   C131      1.0  0.10019  0.20695000000000002  0.19598  1.0000
  C   C132      1.0  0.11093999999999997  0.12641  0.15638  1.0000
  C   C133      1.0  0.12669999999999998  0.09663  0.11736  1.0000
  C   C134      1.0  0.15261  0.11772  0.0778  1.0000
  C   C135      1.0  0.11390999999999998  0.045090000000000005  0.11973  1.0000
  C   C136      1.0  0.13371999999999998  0.00478  0.09647  1.0000
  C   C137      1.0  0.11324999999999998  0.91609  0.10633  1.0000
  C   C138      1.0  0.13478  0.8996  0.06258  1.0000
  C   C139      1.0  0.14204999999999995  0.84981  0.05575999999999998  1.0000
  C   C140      1.0  0.16674999999999995  0.83294  0.00983  1.0000
  C   C141      1.0  0.12631  0.8164400000000002  0.0914  1.0000
  C   C142      1.0  0.10290999999999997  0.8333600000000001  0.13427  1.0000
  C   C143      1.0  0.08428  0.7993299999999999  0.17305  1.0000
  C   C144      1.0  0.09701  0.88325  0.14215  1.0000
  C   C145      1.0  0.18690999999999994  0.81279  0.58461  1.0000
  C   C146      1.0  0.14413999999999996  0.84264  0.60193  1.0000
  C   C147      1.0  0.10280999999999997  0.8222100000000001  0.62532  1.0000
  C   C148      1.0  0.06409  0.8524200000000001  0.64115  1.0000
  C   C149      1.0  0.020749999999999994  0.8308  0.6672899999999998  1.0000
  C   C150      1.0  0.06574  0.90252  0.63241  1.0000
  C   C151      1.0  0.10779  0.92235  0.60981  1.0000
  C   C152      1.0  0.14713  0.89275  0.5950599999999998  1.0000
  C   C153      1.0  0.09343  0.0112  0.62682  1.0000
  C   C154      1.0  0.11437  0.05172  0.60487  1.0000
  C   C155      1.0  0.10901999999999999  0.10308  0.6169499999999999  1.0000
  C   C156      1.0  0.06737  0.12013000000000001  0.6427  1.0000
  C   C157      1.0  0.06304999999999998  0.16919  0.65506  1.0000
  C   C158      1.0  0.017669999999999998  0.18581  0.68113  1.0000
  C   C159      1.0  0.10021999999999998  0.20205  0.64165  1.0000
  C   C160      1.0  0.14123999999999998  0.18547  0.61452  1.0000
  C   C161      1.0  0.17916999999999997  0.22038999999999997  0.5963399999999999  1.0000
  C   C162      1.0  0.14566  0.13631  0.60233  1.0000
  C   C163      1.0  0.18919999999999998  0.68979  0.46506999999999993  1.0000
  C   C164      1.0  0.16363  0.6675600000000002  0.42182999999999987  1.0000
  C   C165      1.0  0.14858  0.69678  0.38235999999999987  1.0000
  C   C166      1.0  0.12181  0.67603  0.34326  1.0000
  C   C167      1.0  0.10123999999999998  0.70695  0.30327  1.0000
  C   C168      1.0  0.11145  0.62641  0.34311  1.0000
  C   C169      1.0  0.12668  0.5967  0.38236999999999993  1.0000
  C   C170      1.0  0.15235  0.61784  0.4220599999999999  1.0000
  C   C171      1.0  0.11378  0.54515  0.3801  1.0000
  C   C172      1.0  0.13363  0.50483  0.40328  1.0000
  C   C173      1.0  0.11310999999999997  0.41608  0.3933599999999999  1.0000
  C   C174      1.0  0.13447  0.3995000000000001  0.43711999999999995  1.0000
  C   C175      1.0  0.1415  0.34966  0.4439999999999999  1.0000
  C   C176      1.0  0.16564999999999996  0.33287  0.49024999999999996  1.0000
  C   C177      1.0  0.12601999999999997  0.31635  0.40822  1.0000
  C   C178      1.0  0.10276  0.33334  0.3653499999999999  1.0000
  C   C179      1.0  0.08416  0.29927  0.32661  1.0000
  C   C180      1.0  0.09687999999999997  0.38325  0.35752  1.0000
  C   C181      1.0  0.31314999999999993  0.81174  0.91655  1.0000
  C   C182      1.0  0.3557799999999999  0.84184  0.8990899999999997  1.0000
  C   C183      1.0  0.3971499999999999  0.82168  0.87543  1.0000
  C   C184      1.0  0.43553  0.85216  0.8592999999999998  1.0000
  C   C185      1.0  0.4788999999999999  0.83075  0.8329099999999998  1.0000
  C   C186      1.0  0.43347  0.90228  0.86788  1.0000
  C   C187      1.0  0.3914  0.92186  0.89071  1.0000
  C   C188      1.0  0.3524499999999999  0.89196  0.9058  1.0000
  C   C189      1.0  0.4050199999999999  0.01078  0.87356  1.0000
  C   C190      1.0  0.3836399999999999  0.05119  0.89532  1.0000
  C   C191      1.0  0.38901  0.10249000000000001  0.88306  1.0000
  C   C192      1.0  0.4307999999999999  0.1191  0.85727  1.0000
  C   C193      1.0  0.43546  0.16799  0.8444699999999998  1.0000
  C   C194      1.0  0.4811499999999999  0.18398000000000003  0.81863  1.0000
  C   C195      1.0  0.39856999999999987  0.20126  0.85762  1.0000
  C   C196      1.0  0.35741  0.18516  0.8848  1.0000
  C   C197      1.0  0.31974999999999987  0.22057  0.9025799999999998  1.0000
  C   C198      1.0  0.35257  0.13608  0.8973499999999998  1.0000
  C   C199      1.0  0.30974999999999997  0.68881  0.03522  1.0000
  C   C200      1.0  0.33556999999999987  0.66727  0.07857999999999998  1.0000
  C   C201      1.0  0.3505999999999999  0.69695  0.11779  1.0000
  C   C202      1.0  0.3774  0.67659  0.15706  1.0000
  C   C203      1.0  0.3978799999999999  0.70755  0.19717  1.0000
  C   C204      1.0  0.3879  0.62697  0.15755  1.0000
  C   C205      1.0  0.37286  0.59698  0.11846  1.0000
  C   C206      1.0  0.34706  0.61767  0.07869  1.0000
  C   C207      1.0  0.38595999999999997  0.54556  0.1206  1.0000
  C   C208      1.0  0.36623  0.50549  0.09687999999999998  1.0000
  C   C209      1.0  0.3870399999999999  0.41679  0.10577  1.0000
  C   C210      1.0  0.36585  0.4003  0.06189  1.0000
  C   C211      1.0  0.3589599999999999  0.35045  0.05491  1.0000
  C   C212      1.0  0.33444  0.3338999999999999  0.00878  1.0000
  C   C213      1.0  0.37473999999999996  0.31704000000000004  0.09048  1.0000
  C   C214      1.0  0.39758  0.33405  0.13361  1.0000
  C   C215      1.0  0.41598  0.30039  0.1728  1.0000
  C   C216      1.0  0.40307  0.38394999999999996  0.1416  1.0000
  C   C217      1.0  0.68667  0.6876900000000001  0.4151799999999999  1.0000
  C   C218      1.0  0.64371  0.6579700000000002  0.39782999999999996  1.0000
  C   C219      1.0  0.6019899999999999  0.6782800000000001  0.37490999999999997  1.0000
  C   C220      1.0  0.5631  0.648  0.3594999999999999  1.0000
  C   C221      1.0  0.5191799999999998  0.6693300000000001  0.33391  1.0000
  C   C222      1.0  0.5650099999999998  0.59788  0.36821  1.0000
  C   C223      1.0  0.6073799999999998  0.57821  0.39029  1.0000
  C   C224      1.0  0.6468399999999999  0.60786  0.40452  1.0000
  C   C225      1.0  0.5937499999999999  0.48937  0.37322999999999995  1.0000
  C   C226      1.0  0.61503  0.44903  0.3950999999999999  1.0000
  C   C227      1.0  0.60995  0.39782  0.38262  1.0000
  C   C228      1.0  0.56846  0.38096  0.35658  1.0000
  C   C229      1.0  0.56427  0.33202  0.34368  1.0000
  C   C230      1.0  0.51874  0.31601  0.31751  1.0000
  C   C231      1.0  0.60137  0.29904  0.35698  1.0000
  C   C232      1.0  0.64229  0.3155  0.38436  1.0000
  C   C233      1.0  0.6803  0.28068  0.40253  1.0000
  C   C234      1.0  0.6466  0.36456  0.39698  1.0000
  C   C235      1.0  0.6892  0.81067  0.5348099999999999  1.0000
  C   C236      1.0  0.6635499999999999  0.83282  0.57805  1.0000
  C   C237      1.0  0.6480899999999998  0.80342  0.61725  1.0000
  C   C238      1.0  0.6210599999999998  0.82409  0.65624  1.0000
  C   C239      1.0  0.60014  0.7931  0.6959799999999998  1.0000
  C   C240      1.0  0.61096  0.87375  0.65658  1.0000
  C   C241      1.0  0.62668  0.90364  0.6176499999999999  1.0000
  C   C242      1.0  0.6525499999999997  0.88259  0.57801  1.0000
  C   C243      1.0  0.61395  0.95521  0.6201899999999999  1.0000
  C   C244      1.0  0.6337  0.99553  0.5969099999999998  1.0000
  C   C245      1.0  0.6132599999999998  0.08428  0.60692  1.0000
  C   C246      1.0  0.6340899999999998  0.10084  0.56286  1.0000
  C   C247      1.0  0.6415499999999997  0.15062  0.55608  1.0000
  C   C248      1.0  0.6658  0.16729  0.50981  1.0000
  C   C249      1.0  0.6265799999999998  0.18399  0.59208  1.0000
  C   C250      1.0  0.60367  0.16707  0.63521  1.0000
  C   C251      1.0  0.5852999999999998  0.20103  0.6742299999999999  1.0000
  C   C252      1.0  0.59771  0.11715  0.64303  1.0000
  C   C253      1.0  0.81314  0.6882  0.08345  1.0000
  C   C254      1.0  0.8557699999999999  0.65824  0.10098  1.0000
  C   C255      1.0  0.8970699999999998  0.6784299999999999  0.12465999999999999  1.0000
  C   C256      1.0  0.93552  0.648  0.14071  1.0000
  C   C257      1.0  0.9788799999999998  0.66932  0.16707  1.0000
  C   C258      1.0  0.93359  0.59791  0.13196  1.0000
  C   C259      1.0  0.8916  0.57831  0.1091  1.0000
  C   C260      1.0  0.8525599999999999  0.60812  0.09409  1.0000
  C   C261      1.0  0.9054799999999997  0.48946  0.12628  1.0000
  C   C262      1.0  0.8844799999999998  0.44898  0.10432  1.0000
  C   C263      1.0  0.8898099999999999  0.39771  0.11661  1.0000
  C   C264      1.0  0.9313099999999997  0.38104  0.14277  1.0000
  C   C265      1.0  0.9358599999999998  0.33211  0.15543  1.0000
  C   C266      1.0  0.9813599999999998  0.3160800000000001  0.18141  1.0000
  C   C267      1.0  0.8991099999999997  0.29887  0.14197  1.0000
  C   C268      1.0  0.8582499999999997  0.31512  0.11449999999999998  1.0000
  C   C269      1.0  0.82064  0.27999  0.09641  1.0000
  C   C270      1.0  0.85354  0.36416  0.10192999999999998  1.0000
  C   C271      1.0  0.8097099999999998  0.81225  0.9649899999999999  1.0000
  C   C272      1.0  0.8355199999999998  0.8339  0.9216899999999999  1.0000
  C   C273      1.0  0.8507999999999998  0.80412  0.8826799999999998  1.0000
  C   C274      1.0  0.8779999999999998  0.82429  0.8435699999999999  1.0000
  C   C275      1.0  0.89874  0.79307  0.80381  1.0000
  C   C276      1.0  0.88856  0.87391  0.84302  1.0000
  C   C277      1.0  0.8730599999999997  0.90407  0.88182  1.0000
  C   C278      1.0  0.8469199999999998  0.88351  0.9215  1.0000
  C   C279      1.0  0.88605  0.95553  0.87946  1.0000
  C   C280      1.0  0.8663199999999998  0.99569  0.9030599999999999  1.0000
  C   C281      1.0  0.8867699999999998  0.08442  0.89365  1.0000
  C   C282      1.0  0.8654099999999998  0.10086000000000002  0.93749  1.0000
  C   C283      1.0  0.8582299999999998  0.15067000000000003  0.9443799999999999  1.0000
  C   C284      1.0  0.83416  0.16724  0.99071  1.0000
  C   C285      1.0  0.8738  0.1841  0.90877  1.0000
  C   C286      1.0  0.8970499999999998  0.16719  0.86583  1.0000
  C   C287      1.0  0.9156599999999998  0.20113  0.82704  1.0000
  C   C288      1.0  0.9028599999999999  0.11731  0.85785  1.0000
  N   N1        1.0  0.8867099999999998  0.02749  0.39941  1.0000
  N   N2        1.0  0.8553  0.01125  0.43607999999999997  1.0000
  N   N3        1.0  0.8544499999999998  0.96403  0.43335999999999997  1.0000
  N   N4        1.0  0.9233099999999997  0.47168  0.6515399999999998  1.0000
  N   N5        1.0  0.9274399999999998  0.51869  0.6486599999999999  1.0000
  N   N6        1.0  0.89255  0.53434  0.61514  1.0000
  N   N7        1.0  0.61268  0.02735  0.10063999999999997  1.0000
  N   N8        1.0  0.6442  0.01107  0.06408  1.0000
  N   N9        1.0  0.6450599999999997  0.96387  0.06691  1.0000
  N   N10       1.0  0.57659  0.4712200000000001  0.84844  1.0000
  N   N11       1.0  0.5724799999999998  0.51823  0.85111  1.0000
  N   N12       1.0  0.6073599999999998  0.53403  0.8845399999999999  1.0000
  N   N13       1.0  0.3873699999999999  0.47299  0.60046  1.0000
  N   N14       1.0  0.3558699999999999  0.4888600000000001  0.5637  1.0000
  N   N15       1.0  0.3545799999999999  0.53607  0.56632  1.0000
  N   N16       1.0  0.42305  0.02976  0.3485699999999999  1.0000
  N   N17       1.0  0.4271499999999999  0.98276  0.35121  1.0000
  N   N18       1.0  0.3924499999999999  0.96701  0.38487  1.0000
  N   N19       1.0  0.11252999999999998  0.47255  0.8990899999999997  1.0000
  N   N20       1.0  0.14397  0.4888600000000001  0.93564  1.0000
  N   N21       1.0  0.14473  0.53606  0.93286  1.0000
  N   N22       1.0  0.07686  0.02944  0.15113  1.0000
  N   N23       1.0  0.07277  0.9824200000000001  0.14867  1.0000
  N   N24       1.0  0.10757  0.9665  0.11519  1.0000
  N   N25       1.0  0.11268  0.97292  0.60135  1.0000
  N   N26       1.0  0.14431999999999998  0.98906  0.56484  1.0000
  N   N27       1.0  0.14502999999999996  0.03628  0.56735  1.0000
  N   N28       1.0  0.07662  0.52949  0.34884  1.0000
  N   N29       1.0  0.07252  0.48247  0.3512899999999999  1.0000
  N   N30       1.0  0.10743  0.46653000000000006  0.38461  1.0000
  N   N31       1.0  0.38598  0.97243  0.8989799999999998  1.0000
  N   N32       1.0  0.354  0.98843  0.9353199999999998  1.0000
  N   N33       1.0  0.35289  0.03565  0.9327  1.0000
  N   N34       1.0  0.42313  0.52973  0.1517  1.0000
  N   N35       1.0  0.4273899999999999  0.48275000000000007  0.14863  1.0000
  N   N36       1.0  0.3925499999999999  0.46711  0.11504999999999997  1.0000
  N   N37       1.0  0.6125999999999998  0.52772  0.39879  1.0000
  N   N38       1.0  0.64434  0.51178  0.43531999999999993  1.0000
  N   N39       1.0  0.64548  0.46457  0.43269  1.0000
  N   N40       1.0  0.57701  0.97088  0.65173  1.0000
  N   N41       1.0  0.57292  0.01791  0.6493399999999998  1.0000
  N   N42       1.0  0.60762  0.03385  0.61576  1.0000
  N   N43       1.0  0.8864799999999999  0.52774  0.10069999999999998  1.0000
  N   N44       1.0  0.8549299999999997  0.51163  0.06411  1.0000
  N   N45       1.0  0.85404  0.46441  0.06668  1.0000
  N   N46       1.0  0.92312  0.97132  0.8481799999999998  1.0000
  N   N47       1.0  0.9272799999999998  0.01832  0.851  1.0000
  N   N48       1.0  0.8924899999999998  0.03406  0.8846  1.0000
  O   O1        1.0  0.7722099999999998  0.16486  0.42256  1.0000
  O   O2        1.0  0.8197999999999999  0.23308  0.42483  1.0000
  O   O3        1.0  0.9751799999999998  0.21214  0.31509  1.0000
  O   O4        1.0  0.01954  0.14536999999999997  0.32811  1.0000
  O   O5        1.0  0.7852099999999997  0.79668  0.43017999999999995  1.0000
  O   O6        1.0  0.82492  0.7354299999999999  0.3900699999999999  1.0000
  O   O7        1.0  0.9848799999999998  0.7723899999999999  0.3003099999999999  1.0000
  O   O8        1.0  0.017469999999999996  0.84542  0.31318  1.0000
  O   O9        1.0  0.7925599999999998  0.26893  0.53738  1.0000
  O   O10       1.0  0.8055899999999998  0.33644  0.49476  1.0000
  O   O11       1.0  0.8926299999999998  0.2476  0.6925099999999997  1.0000
  O   O12       1.0  0.92264  0.31452  0.73111  1.0000
  O   O13       1.0  0.8302099999999998  0.6376  0.47226  1.0000
  O   O14       1.0  0.81504  0.70979  0.50562  1.0000
  O   O15       1.0  0.91258  0.74723  0.66501  1.0000
  O   O16       1.0  0.9324499999999999  0.68132  0.7112599999999998  1.0000
  O   O17       1.0  0.72851  0.16287  0.07760999999999998  1.0000
  O   O18       1.0  0.68219  0.23173000000000002  0.07519  1.0000
  O   O19       1.0  0.52479  0.21196000000000004  0.185  1.0000
  O   O20       1.0  0.47993  0.14602000000000004  0.16936999999999997  1.0000
  O   O21       1.0  0.7147799999999999  0.79757  0.07004  1.0000
  O   O22       1.0  0.6751199999999998  0.73583  0.10953999999999998  1.0000
  O   O23       1.0  0.515  0.77231  0.19986  1.0000
  O   O24       1.0  0.48232  0.84536  0.1873  1.0000
  O   O25       1.0  0.70735  0.26872  0.96246  1.0000
  O   O26       1.0  0.6945  0.33611  0.00526  1.0000
  O   O27       1.0  0.6070599999999998  0.24738  0.8074299999999998  1.0000
  O   O28       1.0  0.5751299999999999  0.31422  0.76999  1.0000
  O   O29       1.0  0.66965  0.63809  0.02723  1.0000
  O   O30       1.0  0.68507  0.70981  0.99268  1.0000
  O   O31       1.0  0.5854799999999999  0.74663  0.83495  1.0000
  O   O32       1.0  0.5675499999999998  0.68099  0.7875  1.0000
  O   O33       1.0  0.27155  0.33748  0.57759  1.0000
  O   O34       1.0  0.31756  0.26838  0.57741  1.0000
  O   O35       1.0  0.47522  0.2878  0.6848699999999998  1.0000
  O   O36       1.0  0.51948  0.35463  0.6719299999999999  1.0000
  O   O37       1.0  0.28512  0.70426  0.56979  1.0000
  O   O38       1.0  0.3250099999999999  0.7653  0.6098699999999998  1.0000
  O   O39       1.0  0.4848299999999999  0.7269  0.69991  1.0000
  O   O40       1.0  0.5179099999999998  0.6545800000000002  0.6847799999999999  1.0000
  O   O41       1.0  0.29279  0.23321  0.46251999999999993  1.0000
  O   O42       1.0  0.3074899999999999  0.16635  0.50563  1.0000
  O   O43       1.0  0.3948  0.25311  0.30741  1.0000
  O   O44       1.0  0.42494  0.18578  0.26942999999999995  1.0000
  O   O45       1.0  0.3300899999999999  0.8640900000000001  0.52762  1.0000
  O   O46       1.0  0.3173499999999999  0.79099  0.49491  1.0000
  O   O47       1.0  0.41104  0.75405  0.33520999999999995  1.0000
  O   O48       1.0  0.43491999999999986  0.81907  0.28971  1.0000
  O   O49       1.0  0.22753999999999996  0.33562  0.92243  1.0000
  O   O50       1.0  0.17995999999999995  0.26751  0.92463  1.0000
  O   O51       1.0  0.02464  0.28778  0.81499  1.0000
  O   O52       1.0  0.9802999999999997  0.35463  0.8279299999999998  1.0000
  O   O53       1.0  0.21276  0.70262  0.93237  1.0000
  O   O54       1.0  0.17518999999999996  0.76403  0.8904399999999999  1.0000
  O   O55       1.0  0.01498  0.72786  0.80011  1.0000
  O   O56       1.0  0.98214  0.65483  0.8126499999999998  1.0000
  O   O57       1.0  0.20729999999999998  0.23285  0.037479999999999986  1.0000
  O   O58       1.0  0.19251  0.16603  0.9942  1.0000
  O   O59       1.0  0.10701999999999998  0.25279  0.19268999999999997  1.0000
  O   O60       1.0  0.07521999999999997  0.18584  0.23014  1.0000
  O   O61       1.0  0.16968999999999995  0.86203  0.97263  1.0000
  O   O62       1.0  0.18504999999999994  0.7903799999999999  0.007339999999999999  1.0000
  O   O63       1.0  0.08552  0.75379  0.16481999999999994  1.0000
  O   O64       1.0  0.06757  0.81921  0.21235999999999994  1.0000
  O   O65       1.0  0.22795  0.83581  0.57983  1.0000
  O   O66       1.0  0.18002999999999994  0.76808  0.57522  1.0000
  O   O67       1.0  0.024359999999999993  0.78782  0.6849  1.0000
  O   O68       1.0  0.9801099999999998  0.85472  0.6721399999999997  1.0000
  O   O69       1.0  0.21273999999999996  0.20397  0.56737  1.0000
  O   O70       1.0  0.17506999999999995  0.2648  0.6097699999999999  1.0000
  O   O71       1.0  0.01503  0.22836  0.6999199999999998  1.0000
  O   O72       1.0  0.9803899999999998  0.15667999999999999  0.68467  1.0000
  O   O73       1.0  0.20723  0.73291  0.46244  1.0000
  O   O74       1.0  0.19243999999999994  0.66613  0.50567  1.0000
  O   O75       1.0  0.10692999999999998  0.75286  0.30733  1.0000
  O   O76       1.0  0.0777  0.68572  0.26818  1.0000
  O   O77       1.0  0.16718999999999995  0.3618  0.52766  1.0000
  O   O78       1.0  0.18508999999999995  0.29076  0.49266999999999994  1.0000
  O   O79       1.0  0.0854  0.25373  0.33496  1.0000
  O   O80       1.0  0.06749  0.31912  0.28732  1.0000
  O   O81       1.0  0.27231  0.83493  0.92252  1.0000
  O   O82       1.0  0.31980999999999987  0.76673  0.92478  1.0000
  O   O83       1.0  0.47523  0.7878500000000002  0.8150999999999999  1.0000
  O   O84       1.0  0.51954  0.85469  0.82802  1.0000
  O   O85       1.0  0.28511  0.20417000000000002  0.9302499999999998  1.0000
  O   O86       1.0  0.3249899999999999  0.26512  0.89011  1.0000
  O   O87       1.0  0.4847499999999999  0.22652  0.8001599999999999  1.0000
  O   O88       1.0  0.5180099999999999  0.15432  0.81528  1.0000
  O   O89       1.0  0.29264  0.73223  0.03734  1.0000
  O   O90       1.0  0.30539  0.66433  0.9950699999999999  1.0000
  O   O91       1.0  0.39336  0.75357  0.19277999999999998  1.0000
  O   O92       1.0  0.4201399999999999  0.68593  0.23278  1.0000
  O   O93       1.0  0.33005  0.36397  0.97255  1.0000
  O   O94       1.0  0.3175299999999999  0.29079  0.005119999999999999  1.0000
  O   O95       1.0  0.4147899999999999  0.25474  0.16512  1.0000
  O   O96       1.0  0.43234  0.321  0.21192999999999995  1.0000
  O   O97       1.0  0.7276399999999997  0.6645  0.4200999999999999  1.0000
  O   O98       1.0  0.68  0.73248  0.4246099999999999  1.0000
  O   O99       1.0  0.52241  0.7119699999999999  0.31533  1.0000
  O   O100      1.0  0.4783699999999999  0.64542  0.33041  1.0000
  O   O101      1.0  0.71486  0.29767  0.42996  1.0000
  O   O102      1.0  0.67518  0.23594  0.39054  1.0000
  O   O103      1.0  0.5156099999999998  0.27389  0.29783  1.0000
  O   O104      1.0  0.4816199999999999  0.3454  0.3150599999999999  1.0000
  O   O105      1.0  0.70723  0.76755  0.53743  1.0000
  O   O106      1.0  0.6924699999999998  0.83439  0.4942299999999999  1.0000
  O   O107      1.0  0.60701  0.74728  0.6926099999999997  1.0000
  O   O108      1.0  0.57514  0.8141500000000002  0.73017  1.0000
  O   O109      1.0  0.66759  0.13832  0.47245  1.0000
  O   O110      1.0  0.6850499999999999  0.20949999999999996  0.50736  1.0000
  O   O111      1.0  0.5876999999999999  0.24672000000000002  0.66696  1.0000
  O   O112      1.0  0.56744  0.18085  0.71284  1.0000
  O   O113      1.0  0.7723599999999998  0.6649  0.07736  1.0000
  O   O114      1.0  0.8198099999999999  0.73319  0.07521  1.0000
  O   O115      1.0  0.97527  0.71223  0.18495  1.0000
  O   O116      1.0  0.0195  0.64536  0.17185  1.0000
  O   O117      1.0  0.7871299999999998  0.29638999999999993  0.06746  1.0000
  O   O118      1.0  0.8249  0.23559  0.10986999999999997  1.0000
  O   O119      1.0  0.9847899999999998  0.27353  0.19989  1.0000
  O   O120      1.0  0.01825  0.34571  0.18481999999999996  1.0000
  O   O121      1.0  0.7925199999999998  0.76884  0.9626299999999998  1.0000
  O   O122      1.0  0.80554  0.83636  0.005279999999999998  1.0000
  O   O123      1.0  0.8929299999999998  0.74714  0.80746  1.0000
  O   O124      1.0  0.9226899999999998  0.81432  0.76906  1.0000
  O   O125      1.0  0.83272  0.13813  0.027839999999999993  1.0000
  O   O126      1.0  0.81493  0.20948  0.99359  1.0000
  O   O127      1.0  0.9143599999999997  0.24673  0.83507  1.0000
  O   O128      1.0  0.9324199999999998  0.18103  0.78783  1.0000
