data_image0
_chemical_formula_structural       Cu72H520C616N104O96
_chemical_formula_sum              "Cu72 H520 C616 N104 O96"
_cell_length_a       28.00139
_cell_length_b       40.11715999999999
_cell_length_c       40.11716
_cell_angle_alpha    90.0
_cell_angle_beta     90.0
_cell_angle_gamma    89.99955

_symmetry_space_group_name_H-M    'P 1'
_symmetry_Int_Tables_number       1

loop_
  _symmetry_equiv_pos_as_xyz
  'x,y,z'

loop_
  _atom_site_type_symbol
  _atom_site_label
  _atom_site_symmetry_multiplicity
  _atom_site_fract_x
  _atom_site_fract_y
  _atom_site_fract_z
  _atom_site_occupancy
  Cu  Cu1       1.0  0.027219999999999998  0.44372000000000006  0.017480000000000002  1.0000
  Cu  Cu2       1.0  0.57115  0.98933  0.51098  1.0000
  Cu  Cu3       1.0  0.82265  0.0743  0.75  1.0000
  Cu  Cu4       1.0  0.60241  0.43945000000000006  0.012250000000000002  1.0000
  Cu  Cu5       1.0  0.027219999999999998  0.44372000000000006  0.4825200000000001  1.0000
  Cu  Cu6       1.0  0.52722  0.48252  0.05628  1.0000
  Cu  Cu7       1.0  0.52722  0.01748  0.44372000000000006  1.0000
  Cu  Cu8       1.0  0.57115  0.51067  0.9890100000000002  1.0000
  Cu  Cu9       1.0  0.57115  0.98933  0.9890100000000002  1.0000
  Cu  Cu10      1.0  0.60241  0.43945000000000006  0.48774000000000006  1.0000
  Cu  Cu11      1.0  0.82734  0.01171  0.75  1.0000
  Cu  Cu12      1.0  0.82265  0.4257  0.75  1.0000
  Cu  Cu13      1.0  0.10241999999999997  0.01225  0.43945000000000006  1.0000
  Cu  Cu14      1.0  0.10241999999999997  0.01225  0.06055  1.0000
  Cu  Cu15      1.0  0.32733  0.7500000000000001  0.01171  1.0000
  Cu  Cu16      1.0  0.60241  0.06055000000000001  0.012250000000000002  1.0000
  Cu  Cu17      1.0  0.10240999999999997  0.48774000000000006  0.06055  1.0000
  Cu  Cu18      1.0  0.11741  0.24995  0.25  1.0000
  Cu  Cu19      1.0  0.52722  0.48252  0.44372000000000006  1.0000
  Cu  Cu20      1.0  0.60242  0.06055000000000001  0.48774000000000006  1.0000
  Cu  Cu21      1.0  0.5307  0.25  0.25  1.0000
  Cu  Cu22      1.0  0.07115  0.51098  0.5106700000000001  1.0000
  Cu  Cu23      1.0  0.0307  0.24999  0.25  1.0000
  Cu  Cu24      1.0  0.07115  0.98901  0.98933  1.0000
  Cu  Cu25      1.0  0.61741  0.25  0.24999000000000002  1.0000
  Cu  Cu26      1.0  0.52722  0.01748  0.05628  1.0000
  Cu  Cu27      1.0  0.027219999999999998  0.05628  0.017480000000000002  1.0000
  Cu  Cu28      1.0  0.32265  0.7500000000000001  0.07430000000000003  1.0000
  Cu  Cu29      1.0  0.57115  0.51067  0.51098  1.0000
  Cu  Cu30      1.0  0.82734  0.48829000000000006  0.75  1.0000
  Cu  Cu31      1.0  0.07115  0.98901  0.5106700000000001  1.0000
  Cu  Cu32      1.0  0.10241999999999997  0.48774000000000006  0.43945000000000006  1.0000
  Cu  Cu33      1.0  0.32265  0.7500000000000001  0.4257  1.0000
  Cu  Cu34      1.0  0.07115  0.51098  0.98933  1.0000
  Cu  Cu35      1.0  0.32734  0.7500000000000001  0.48829  1.0000
  Cu  Cu36      1.0  0.027219999999999998  0.05628  0.4825200000000001  1.0000
  Cu  Cu37      1.0  0.4693  0.7500000000000001  0.75  1.0000
  Cu  Cu38      1.0  0.9692999999999998  0.7499900000000002  0.75  1.0000
  Cu  Cu39      1.0  0.47278  0.51748  0.9437200000000001  1.0000
  Cu  Cu40      1.0  0.89758  0.98774  0.93945  1.0000
  Cu  Cu41      1.0  0.42885  0.48933  0.48902000000000007  1.0000
  Cu  Cu42      1.0  0.89758  0.98774  0.56055  1.0000
  Cu  Cu43      1.0  0.42883999999999994  0.48933  0.010980000000000002  1.0000
  Cu  Cu44      1.0  0.3975799999999999  0.93945  0.98774  1.0000
  Cu  Cu45      1.0  0.17266  0.51171  0.25  1.0000
  Cu  Cu46      1.0  0.17734  0.9257  0.25  1.0000
  Cu  Cu47      1.0  0.67266  0.25  0.5117100000000001  1.0000
  Cu  Cu48      1.0  0.97277  0.94372  0.5174800000000002  1.0000
  Cu  Cu49      1.0  0.3975799999999999  0.56055  0.51225  1.0000
  Cu  Cu50      1.0  0.89758  0.51225  0.56055  1.0000
  Cu  Cu51      1.0  0.42885  0.01067  0.010980000000000002  1.0000
  Cu  Cu52      1.0  0.67266  0.25  0.98829  1.0000
  Cu  Cu53      1.0  0.17734  0.5743  0.25  1.0000
  Cu  Cu54      1.0  0.92885  0.01098  0.48933000000000004  1.0000
  Cu  Cu55      1.0  0.97277  0.55628  0.5174800000000002  1.0000
  Cu  Cu56      1.0  0.3975799999999999  0.93945  0.51225  1.0000
  Cu  Cu57      1.0  0.92884  0.48902  0.010670000000000004  1.0000
  Cu  Cu58      1.0  0.92885  0.48902  0.48933000000000004  1.0000
  Cu  Cu59      1.0  0.92885  0.01098  0.010670000000000004  1.0000
  Cu  Cu60      1.0  0.4727699999999999  0.98252  0.55628  1.0000
  Cu  Cu61      1.0  0.67735  0.25  0.5743000000000003  1.0000
  Cu  Cu62      1.0  0.88259  0.74997  0.75  1.0000
  Cu  Cu63      1.0  0.9727799999999999  0.55628  0.98252  1.0000
  Cu  Cu64      1.0  0.97277  0.94372  0.98252  1.0000
  Cu  Cu65      1.0  0.67735  0.25  0.9257000000000001  1.0000
  Cu  Cu66      1.0  0.38259  0.7500000000000001  0.75001  1.0000
  Cu  Cu67      1.0  0.3975799999999999  0.56055  0.98774  1.0000
  Cu  Cu68      1.0  0.47278  0.98252  0.9437200000000001  1.0000
  Cu  Cu69      1.0  0.89758  0.51225  0.93945  1.0000
  Cu  Cu70      1.0  0.47278  0.51748  0.55628  1.0000
  Cu  Cu71      1.0  0.42885  0.01067  0.48902000000000007  1.0000
  Cu  Cu72      1.0  0.17266  0.98829  0.25  1.0000
  H   H1        1.0  0.6672  0.37819  0.4310300000000001  1.0000
  H   H2        1.0  0.70521  0.40333  0.56351  1.0000
  H   H3        1.0  0.4737  0.88452  0.4025200000000001  1.0000
  H   H4        1.0  0.50559  0.03556  0.12598  1.0000
  H   H5        1.0  0.7542299999999997  0.51065  0.6613000000000002  1.0000
  H   H6        1.0  0.6518899999999999  0.54463  0.92271  1.0000
  H   H7        1.0  0.42645999999999995  0.66766  0.1015  1.0000
  H   H8        1.0  0.12453  0.61125  0.52369  1.0000
  H   H9        1.0  0.4158399999999999  0.6713  0.50512  1.0000
  H   H10       1.0  0.1672  0.43103  0.37819000000000014  1.0000
  H   H11       1.0  0.75422  0.98935  0.83869  1.0000
  H   H12       1.0  0.95808  0.09675  0.52077  1.0000
  H   H13       1.0  0.4604  0.8817100000000001  0.99058  1.0000
  H   H14       1.0  0.98868  0.11335  0.9441100000000002  1.0000
  H   H15       1.0  0.46594999999999986  0.06911  0.11785000000000001  1.0000
  H   H16       1.0  0.70521  0.09667  0.93649  1.0000
  H   H17       1.0  0.84771  0.8940000000000001  0.8037800000000002  1.0000
  H   H18       1.0  0.84771  0.8940000000000001  0.69622  1.0000
  H   H19       1.0  0.6788899999999999  0.09962  0.52337  1.0000
  H   H20       1.0  0.6342499999999998  0.37469  0.4687300000000001  1.0000
  H   H21       1.0  0.49278  0.36575  0.36818  1.0000
  H   H22       1.0  0.6464499999999997  0.3683  0.1297  1.0000
  H   H23       1.0  0.91584  0.50512  0.8287  1.0000
  H   H24       1.0  0.54899  0.88414  0.9903700000000001  1.0000
  H   H25       1.0  0.99277  0.13181  0.13424  1.0000
  H   H26       1.0  0.49574  0.17696  0.32352  1.0000
  H   H27       1.0  0.70521  0.09667  0.56351  1.0000
  H   H28       1.0  0.4604  0.61829  0.99058  1.0000
  H   H29       1.0  0.71627  0.40756000000000003  0.82867  1.0000
  H   H30       1.0  0.51027  0.07328  0.35069000000000006  1.0000
  H   H31       1.0  0.62199  0.34731  0.43477000000000005  1.0000
  H   H32       1.0  0.1672  0.06897  0.37819000000000014  1.0000
  H   H33       1.0  0.95809  0.09675  0.97922  1.0000
  H   H34       1.0  0.45808  0.52077  0.40325  1.0000
  H   H35       1.0  0.43257  0.93879  0.09325  1.0000
  H   H36       1.0  0.6698099999999999  0.0895  0.88126  1.0000
  H   H37       1.0  0.549  0.61586  0.9903700000000001  1.0000
  H   H38       1.0  0.14895999999999995  0.32589  0.1748  1.0000
  H   H39       1.0  0.4158399999999999  0.8287  0.50512  1.0000
  H   H40       1.0  0.9325699999999999  0.40675000000000006  0.93879  1.0000
  H   H41       1.0  0.07554999999999998  0.5252  0.9214600000000001  1.0000
  H   H42       1.0  0.64895  0.1748  0.32589  1.0000
  H   H43       1.0  0.17889  0.52337  0.09962  1.0000
  H   H44       1.0  0.83301  0.9558400000000001  0.8014700000000001  1.0000
  H   H45       1.0  0.9604  0.9905799999999999  0.8817100000000001  1.0000
  H   H46       1.0  0.43257  0.56121  0.40675  1.0000
  H   H47       1.0  0.71627  0.40756000000000003  0.67133  1.0000
  H   H48       1.0  0.12453  0.8887500000000002  0.97631  1.0000
  H   H49       1.0  0.9659499999999998  0.38214  0.43088000000000004  1.0000
  H   H50       1.0  0.5896399999999998  0.96377  0.9239300000000001  1.0000
  H   H51       1.0  0.25423  0.6613  0.5106500000000002  1.0000
  H   H52       1.0  0.91584  0.99487  0.8287  1.0000
  H   H53       1.0  0.14645999999999995  0.37029  0.3682900000000001  1.0000
  H   H54       1.0  0.14893999999999996  0.1741  0.32520000000000004  1.0000
  H   H55       1.0  0.34772  0.69622  0.894  1.0000
  H   H56       1.0  0.20520999999999995  0.56351  0.40333  1.0000
  H   H57       1.0  0.08964  0.92393  0.9637700000000002  1.0000
  H   H58       1.0  0.01027  0.14931  0.07328  1.0000
  H   H59       1.0  0.49574  0.17696  0.17648  1.0000
  H   H60       1.0  0.20520999999999995  0.56351  0.09667000000000002  1.0000
  H   H61       1.0  0.9264599999999997  0.1015  0.66766  1.0000
  H   H62       1.0  0.4737  0.88452  0.09748000000000001  1.0000
  H   H63       1.0  0.5896399999999998  0.53623  0.57606  1.0000
  H   H64       1.0  0.25423  0.8386900000000002  0.9893500000000001  1.0000
  H   H65       1.0  0.9736999999999999  0.09748  0.61548  1.0000
  H   H66       1.0  0.64583  0.38808  0.5590400000000001  1.0000
  H   H67       1.0  0.12453  0.61125  0.97631  1.0000
  H   H68       1.0  0.45808  0.52077  0.09675  1.0000
  H   H69       1.0  0.12199  0.43476999999999993  0.15269  1.0000
  H   H70       1.0  0.13425  0.03127  0.12531  1.0000
  H   H71       1.0  0.42645999999999995  0.66766  0.3985  1.0000
  H   H72       1.0  0.049  0.50962  0.61586  1.0000
  H   H73       1.0  0.17889  0.9766299999999999  0.40038  1.0000
  H   H74       1.0  0.01027  0.35068  0.42672  1.0000
  H   H75       1.0  0.7115399999999998  0.9867800000000001  0.60719  1.0000
  H   H76       1.0  0.12199  0.06523  0.34731000000000006  1.0000
  H   H77       1.0  0.62199  0.34731  0.06523000000000001  1.0000
  H   H78       1.0  0.98868  0.38665  0.9441100000000002  1.0000
  H   H79       1.0  0.14582999999999996  0.94096  0.38808  1.0000
  H   H80       1.0  0.5896399999999998  0.96377  0.57606  1.0000
  H   H81       1.0  0.50559  0.03556  0.37402  1.0000
  H   H82       1.0  0.25423  0.6613  0.9893500000000001  1.0000
  H   H83       1.0  0.98868  0.38665  0.5558800000000002  1.0000
  H   H84       1.0  0.57555  0.92146  0.9748  1.0000
  H   H85       1.0  0.21627  0.82867  0.40756  1.0000
  H   H86       1.0  0.25422  0.8386900000000002  0.5106500000000002  1.0000
  H   H87       1.0  0.62199  0.15269  0.43477000000000005  1.0000
  H   H88       1.0  0.7542299999999997  0.51065  0.83869  1.0000
  H   H89       1.0  0.64646  0.36829  0.3703  1.0000
  H   H90       1.0  0.75422  0.98935  0.6613000000000002  1.0000
  H   H91       1.0  0.8477199999999998  0.606  0.8037800000000002  1.0000
  H   H92       1.0  0.48866999999999994  0.9441099999999999  0.11335  1.0000
  H   H93       1.0  0.99573  0.17647  0.32304  1.0000
  H   H94       1.0  0.9604  0.50941  0.8817100000000001  1.0000
  H   H95       1.0  0.4158399999999999  0.8287  0.9948700000000001  1.0000
  H   H96       1.0  0.6672  0.37819  0.06897  1.0000
  H   H97       1.0  0.62453  0.52369  0.8887500000000003  1.0000
  H   H98       1.0  0.20520999999999995  0.9364899999999999  0.09667000000000002  1.0000
  H   H99       1.0  0.16981  0.61874  0.0895  1.0000
  H   H100      1.0  0.43257  0.56121  0.09325  1.0000
  H   H101      1.0  0.049  0.9903700000000001  0.8841400000000001  1.0000
  H   H102      1.0  0.33300999999999986  0.80147  0.54416  1.0000
  H   H103      1.0  0.8553199999999999  0.63749  0.75  1.0000
  H   H104      1.0  0.21153999999999995  0.60719  0.5132100000000002  1.0000
  H   H105      1.0  0.6698099999999999  0.4104900000000001  0.88126  1.0000
  H   H106      1.0  0.34772  0.69622  0.6060000000000001  1.0000
  H   H107      1.0  0.54899  0.61586  0.50962  1.0000
  H   H108      1.0  0.33302  0.80147  0.9558400000000001  1.0000
  H   H109      1.0  0.50559  0.46442999999999995  0.37402  1.0000
  H   H110      1.0  0.45808  0.9792200000000001  0.09675  1.0000
  H   H111      1.0  0.14582999999999996  0.55904  0.11191  1.0000
  H   H112      1.0  0.99277  0.13181  0.3657600000000001  1.0000
  H   H113      1.0  0.20520999999999995  0.9364899999999999  0.40333  1.0000
  H   H114      1.0  0.49574999999999997  0.32303  0.32352  1.0000
  H   H115      1.0  0.01705  0.9622  0.58984  1.0000
  H   H116      1.0  0.95808  0.40325  0.97922  1.0000
  H   H117      1.0  0.49278  0.13425  0.36818  1.0000
  H   H118      1.0  0.4604  0.61829  0.50941  1.0000
  H   H119      1.0  0.15188999999999997  0.92271  0.54463  1.0000
  H   H120      1.0  0.00559  0.12598  0.03556  1.0000
  H   H121      1.0  0.64895  0.1748  0.17410000000000006  1.0000
  H   H122      1.0  0.7115399999999998  0.9867800000000001  0.8928100000000001  1.0000
  H   H123      1.0  0.62453  0.9763100000000001  0.8887500000000003  1.0000
  H   H124      1.0  0.08964  0.57606  0.9637700000000002  1.0000
  H   H125      1.0  0.6342499999999998  0.12531  0.4687300000000001  1.0000
  H   H126      1.0  0.4737  0.61547  0.4025200000000001  1.0000
  H   H127      1.0  0.45808  0.9792200000000001  0.40325  1.0000
  H   H128      1.0  0.9325699999999999  0.40675000000000006  0.5612100000000001  1.0000
  H   H129      1.0  0.62199  0.15269  0.06523000000000001  1.0000
  H   H130      1.0  0.14644999999999994  0.1297  0.36830000000000007  1.0000
  H   H131      1.0  0.65188  0.9553600000000001  0.57728  1.0000
  H   H132      1.0  0.12199  0.06523  0.15269  1.0000
  H   H133      1.0  0.64583  0.38808  0.94096  1.0000
  H   H134      1.0  0.14582999999999996  0.55904  0.38808  1.0000
  H   H135      1.0  0.6788899999999999  0.09962  0.9766300000000001  1.0000
  H   H136      1.0  0.6672  0.12181  0.4310300000000001  1.0000
  H   H137      1.0  0.9927799999999999  0.36817  0.13425  1.0000
  H   H138      1.0  0.51705  0.91015  0.53779  1.0000
  H   H139      1.0  0.62452  0.9763100000000001  0.61125  1.0000
  H   H140      1.0  0.07554999999999998  0.5252  0.57853  1.0000
  H   H141      1.0  0.01705  0.53779  0.9101500000000001  1.0000
  H   H142      1.0  0.16981  0.88126  0.4105  1.0000
  H   H143      1.0  0.00559  0.37402  0.035570000000000004  1.0000
  H   H144      1.0  0.35532  0.7500000000000001  0.63749  1.0000
  H   H145      1.0  0.21627  0.82867  0.09244  1.0000
  H   H146      1.0  0.6342499999999998  0.12531  0.03127  1.0000
  H   H147      1.0  0.15188999999999997  0.57728  0.54463  1.0000
  H   H148      1.0  0.9264599999999997  0.3985  0.66766  1.0000
  H   H149      1.0  0.7115399999999998  0.51321  0.8928100000000001  1.0000
  H   H150      1.0  0.46594999999999986  0.06911  0.38215  1.0000
  H   H151      1.0  0.35532  0.7500000000000001  0.86251  1.0000
  H   H152      1.0  0.6788899999999999  0.40038  0.52337  1.0000
  H   H153      1.0  0.64646  0.1317  0.3703  1.0000
  H   H154      1.0  0.5896399999999998  0.53623  0.9239300000000001  1.0000
  H   H155      1.0  0.01027  0.14931  0.42672  1.0000
  H   H156      1.0  0.34772  0.80378  0.6060000000000001  1.0000
  H   H157      1.0  0.9604  0.9905799999999999  0.61829  1.0000
  H   H158      1.0  0.91584  0.50512  0.6713  1.0000
  H   H159      1.0  0.64584  0.11191  0.94096  1.0000
  H   H160      1.0  0.9736999999999999  0.40252000000000004  0.8845200000000002  1.0000
  H   H161      1.0  0.9957499999999998  0.32351  0.17697  1.0000
  H   H162      1.0  0.6698099999999999  0.41050000000000003  0.6187400000000001  1.0000
  H   H163      1.0  0.00559  0.37402  0.46443  1.0000
  H   H164      1.0  0.9659499999999998  0.38215  0.06912  1.0000
  H   H165      1.0  0.21627  0.67133  0.40756  1.0000
  H   H166      1.0  0.07554999999999998  0.9748000000000001  0.9214600000000001  1.0000
  H   H167      1.0  0.8477199999999998  0.606  0.69622  1.0000
  H   H168      1.0  0.16981  0.88126  0.0895  1.0000
  H   H169      1.0  0.9659499999999998  0.11785  0.43089000000000005  1.0000
  H   H170      1.0  0.07554999999999998  0.9748000000000001  0.57854  1.0000
  H   H171      1.0  0.64895  0.3252  0.17410000000000006  1.0000
  H   H172      1.0  0.83301  0.54416  0.6985200000000001  1.0000
  H   H173      1.0  0.6518899999999999  0.54463  0.57728  1.0000
  H   H174      1.0  0.13424  0.4687299999999999  0.12531  1.0000
  H   H175      1.0  0.14893999999999996  0.1741  0.1748  1.0000
  H   H176      1.0  0.9264599999999997  0.3985  0.8323300000000001  1.0000
  H   H177      1.0  0.51705  0.58984  0.53779  1.0000
  H   H178      1.0  0.4158399999999999  0.6713  0.9948700000000001  1.0000
  H   H179      1.0  0.92647  0.1015  0.8323300000000001  1.0000
  H   H180      1.0  0.51026  0.42672  0.14931  1.0000
  H   H181      1.0  0.12453  0.8887500000000002  0.52369  1.0000
  H   H182      1.0  0.08964  0.92393  0.53623  1.0000
  H   H183      1.0  0.1672  0.06897  0.12181000000000003  1.0000
  H   H184      1.0  0.9927799999999999  0.36817  0.3657400000000001  1.0000
  H   H185      1.0  0.33300999999999986  0.69852  0.54416  1.0000
  H   H186      1.0  0.99573  0.17647  0.17696  1.0000
  H   H187      1.0  0.00559  0.12598  0.46444  1.0000
  H   H188      1.0  0.9736999999999999  0.09748  0.8845200000000002  1.0000
  H   H189      1.0  0.51027  0.07328  0.14931  1.0000
  H   H190      1.0  0.70521  0.40333  0.93649  1.0000
  H   H191      1.0  0.14582999999999996  0.94096  0.11191  1.0000
  H   H192      1.0  0.83301  0.9558400000000001  0.6985200000000001  1.0000
  H   H193      1.0  0.8553199999999999  0.8625099999999999  0.75  1.0000
  H   H194      1.0  0.46594999999999986  0.43089  0.11785000000000001  1.0000
  H   H195      1.0  0.51705  0.58984  0.9622000000000002  1.0000
  H   H196      1.0  0.64583  0.11191  0.5590400000000001  1.0000
  H   H197      1.0  0.049  0.50962  0.8841400000000001  1.0000
  H   H198      1.0  0.6672  0.12181  0.06897  1.0000
  H   H199      1.0  0.13425  0.03127  0.37469  1.0000
  H   H200      1.0  0.01705  0.9622  0.9101500000000001  1.0000
  H   H201      1.0  0.14896999999999996  0.32589  0.32519000000000003  1.0000
  H   H202      1.0  0.51705  0.91015  0.9622000000000002  1.0000
  H   H203      1.0  0.08964  0.57606  0.53623  1.0000
  H   H204      1.0  0.21627  0.67133  0.09244  1.0000
  H   H205      1.0  0.71627  0.09244  0.67133  1.0000
  H   H206      1.0  0.6698099999999999  0.0895  0.6187400000000001  1.0000
  H   H207      1.0  0.48866999999999994  0.9441099999999999  0.38665  1.0000
  H   H208      1.0  0.50559  0.46444  0.12598  1.0000
  H   H209      1.0  0.9604  0.50941  0.61829  1.0000
  H   H210      1.0  0.9957499999999998  0.32351  0.32303000000000004  1.0000
  H   H211      1.0  0.4604  0.8817100000000001  0.50941  1.0000
  H   H212      1.0  0.01027  0.35068  0.07328  1.0000
  H   H213      1.0  0.57555  0.57853  0.5252  1.0000
  H   H214      1.0  0.95808  0.40325  0.52077  1.0000
  H   H215      1.0  0.17889  0.9766299999999999  0.09962  1.0000
  H   H216      1.0  0.48866999999999994  0.55588  0.11335  1.0000
  H   H217      1.0  0.4737  0.61548  0.09748000000000001  1.0000
  H   H218      1.0  0.6788899999999999  0.40038  0.9766300000000001  1.0000
  H   H219      1.0  0.62453  0.52369  0.61125  1.0000
  H   H220      1.0  0.64646  0.1317  0.1297  1.0000
  H   H221      1.0  0.48868  0.55588  0.38665  1.0000
  H   H222      1.0  0.57555  0.92146  0.5252  1.0000
  H   H223      1.0  0.1672  0.43103  0.12181000000000003  1.0000
  H   H224      1.0  0.9659499999999998  0.11785  0.06911000000000002  1.0000
  H   H225      1.0  0.54899  0.88414  0.50962  1.0000
  H   H226      1.0  0.49276999999999993  0.13424  0.13182  1.0000
  H   H227      1.0  0.46594999999999986  0.43088  0.38215  1.0000
  H   H228      1.0  0.21153999999999995  0.8928100000000001  0.5132100000000002  1.0000
  H   H229      1.0  0.42645999999999995  0.83233  0.1015  1.0000
  H   H230      1.0  0.71627  0.09244  0.82867  1.0000
  H   H231      1.0  0.9325699999999999  0.09325  0.93879  1.0000
  H   H232      1.0  0.17889  0.52337  0.40038  1.0000
  H   H233      1.0  0.83301  0.54416  0.8014700000000001  1.0000
  H   H234      1.0  0.04899  0.9903700000000001  0.61586  1.0000
  H   H235      1.0  0.15188999999999997  0.57728  0.95536  1.0000
  H   H236      1.0  0.13425  0.4687299999999999  0.37469  1.0000
  H   H237      1.0  0.16981  0.61874  0.4105  1.0000
  H   H238      1.0  0.21154999999999996  0.60719  0.98678  1.0000
  H   H239      1.0  0.34772  0.80378  0.894  1.0000
  H   H240      1.0  0.49276999999999993  0.36576  0.13182  1.0000
  H   H241      1.0  0.6518899999999999  0.9553600000000001  0.92271  1.0000
  H   H242      1.0  0.63424  0.37469  0.03127  1.0000
  H   H243      1.0  0.43257  0.93879  0.40675  1.0000
  H   H244      1.0  0.15188999999999997  0.92271  0.95536  1.0000
  H   H245      1.0  0.98868  0.11335  0.5558800000000002  1.0000
  H   H246      1.0  0.14644999999999994  0.1297  0.1317  1.0000
  H   H247      1.0  0.49574  0.32304  0.17648  1.0000
  H   H248      1.0  0.64895  0.3252  0.32589  1.0000
  H   H249      1.0  0.9736999999999999  0.40252000000000004  0.61548  1.0000
  H   H250      1.0  0.33302  0.69852  0.9558400000000001  1.0000
  H   H251      1.0  0.42645999999999995  0.83233  0.3985  1.0000
  H   H252      1.0  0.57555  0.57853  0.9748  1.0000
  H   H253      1.0  0.14645999999999995  0.37029  0.13171  1.0000
  H   H254      1.0  0.21154999999999996  0.8928100000000001  0.98678  1.0000
  H   H255      1.0  0.9325699999999999  0.09325  0.5612100000000001  1.0000
  H   H256      1.0  0.01705  0.53779  0.58984  1.0000
  H   H257      1.0  0.51027  0.42672  0.3506800000000001  1.0000
  H   H258      1.0  0.7115399999999998  0.51321  0.60719  1.0000
  H   H259      1.0  0.12199  0.43476999999999993  0.34731000000000006  1.0000
  H   H260      1.0  0.91583  0.99487  0.6713  1.0000
  H   H261      1.0  0.8510499999999998  0.6741  0.6748  1.0000
  H   H262      1.0  0.4103599999999999  0.46377  0.07607  1.0000
  H   H263      1.0  0.08416  0.00512  0.1713  1.0000
  H   H264      1.0  0.5263  0.38452  0.9025200000000002  1.0000
  H   H265      1.0  0.15227999999999997  0.10600000000000001  0.19622000000000006  1.0000
  H   H266      1.0  0.54191  0.47922000000000003  0.5967500000000001  1.0000
  H   H267      1.0  0.50426  0.67696  0.8235200000000001  1.0000
  H   H268      1.0  0.37546999999999997  0.47631  0.38875  1.0000
  H   H269      1.0  0.99441  0.87402  0.96443  1.0000
  H   H270      1.0  0.07352999999999997  0.6015  0.33233  1.0000
  H   H271      1.0  0.49440999999999996  0.53556  0.62598  1.0000
  H   H272      1.0  0.49440999999999996  0.53556  0.8740200000000001  1.0000
  H   H273      1.0  0.03405  0.61785  0.93088  1.0000
  H   H274      1.0  0.48294999999999993  0.41015  0.037790000000000004  1.0000
  H   H275      1.0  0.35354  0.86829  0.6297  1.0000
  H   H276      1.0  0.07352999999999997  0.8984999999999999  0.33233  1.0000
  H   H277      1.0  0.37800999999999996  0.84731  0.9347700000000001  1.0000
  H   H278      1.0  0.49440999999999996  0.96443  0.62598  1.0000
  H   H279      1.0  0.98973  0.64931  0.5732800000000001  1.0000
  H   H280      1.0  0.48294999999999993  0.08984  0.4622  1.0000
  H   H281      1.0  0.53405  0.9308799999999999  0.61785  1.0000
  H   H282      1.0  0.36574999999999996  0.62531  0.9687300000000002  1.0000
  H   H283      1.0  0.5396  0.11829000000000002  0.49059  1.0000
  H   H284      1.0  0.03405  0.61785  0.56911  1.0000
  H   H285      1.0  0.24577  0.01065  0.33869000000000005  1.0000
  H   H286      1.0  0.8510499999999998  0.6741  0.8252000000000002  1.0000
  H   H287      1.0  0.65228  0.30378  0.394  1.0000
  H   H288      1.0  0.36574999999999996  0.62531  0.53127  1.0000
  H   H289      1.0  0.53959  0.38171  0.009410000000000002  1.0000
  H   H290      1.0  0.99441  0.62598  0.53556  1.0000
  H   H291      1.0  0.15227999999999997  0.394  0.30378  1.0000
  H   H292      1.0  0.48972999999999994  0.9267199999999999  0.8506900000000002  1.0000
  H   H293      1.0  0.5396  0.11829000000000002  0.009410000000000002  1.0000
  H   H294      1.0  0.86575  0.96873  0.62531  1.0000
  H   H295      1.0  0.83019  0.38126  0.91049  1.0000
  H   H296      1.0  0.04191  0.9032499999999999  0.47923  1.0000
  H   H297      1.0  0.35416  0.61191  0.059040000000000016  1.0000
  H   H298      1.0  0.56743  0.06121  0.59325  1.0000
  H   H299      1.0  0.16698  0.45584  0.19852000000000003  1.0000
  H   H300      1.0  0.3211  0.90038  0.02337  1.0000
  H   H301      1.0  0.99441  0.62598  0.96443  1.0000
  H   H302      1.0  0.4103599999999999  0.46377  0.42393000000000003  1.0000
  H   H303      1.0  0.74577  0.1613  0.010650000000000001  1.0000
  H   H304      1.0  0.33019  0.5895  0.38126  1.0000
  H   H305      1.0  0.42443999999999993  0.07854  0.025200000000000004  1.0000
  H   H306      1.0  0.98973  0.64931  0.9267200000000001  1.0000
  H   H307      1.0  0.36574999999999996  0.87469  0.53127  1.0000
  H   H308      1.0  0.878  0.56523  0.6526900000000001  1.0000
  H   H309      1.0  0.7947899999999999  0.06351  0.59667  1.0000
  H   H310      1.0  0.35354  0.6317  0.8703000000000001  1.0000
  H   H311      1.0  0.5841599999999998  0.3287  0.00512  1.0000
  H   H312      1.0  0.57354  0.16766  0.8985000000000001  1.0000
  H   H313      1.0  0.84811  0.07729  0.45536  1.0000
  H   H314      1.0  0.42445  0.07854  0.4748000000000001  1.0000
  H   H315      1.0  0.24577  0.48935  0.33869000000000005  1.0000
  H   H316      1.0  0.039599999999999996  0.4905900000000001  0.11829  1.0000
  H   H317      1.0  0.78372  0.32867  0.59244  1.0000
  H   H318      1.0  0.35354  0.8683000000000001  0.8703000000000001  1.0000
  H   H319      1.0  0.37800999999999996  0.65269  0.9347700000000001  1.0000
  H   H320      1.0  0.34810999999999986  0.04463  0.07729  1.0000
  H   H321      1.0  0.74577  0.33869  0.010650000000000001  1.0000
  H   H322      1.0  0.5263  0.11548  0.59748  1.0000
  H   H323      1.0  0.86575  0.96873  0.8746900000000002  1.0000
  H   H324      1.0  0.35416  0.88808  0.44096  1.0000
  H   H325      1.0  0.54192  0.02077  0.9032500000000001  1.0000
  H   H326      1.0  0.8510399999999999  0.82589  0.8251900000000002  1.0000
  H   H327      1.0  0.64467  0.25  0.36251  1.0000
  H   H328      1.0  0.78845  0.39281  0.48678000000000005  1.0000
  H   H329      1.0  0.28845  0.48678  0.39281  1.0000
  H   H330      1.0  0.00723  0.63182  0.8657600000000002  1.0000
  H   H331      1.0  0.9829499999999998  0.4622  0.41015  1.0000
  H   H332      1.0  0.65228  0.19622  0.10600000000000001  1.0000
  H   H333      1.0  0.08416  0.49488  0.3287000000000001  1.0000
  H   H334      1.0  0.039599999999999996  0.00941  0.38171  1.0000
  H   H335      1.0  0.951  0.49037  0.11586000000000002  1.0000
  H   H336      1.0  0.51132  0.05587999999999999  0.88665  1.0000
  H   H337      1.0  0.78373  0.17133  0.59244  1.0000
  H   H338      1.0  0.5841599999999998  0.1713  0.00512  1.0000
  H   H339      1.0  0.92444  0.47479999999999994  0.07854000000000001  1.0000
  H   H340      1.0  0.33018  0.91049  0.11874000000000001  1.0000
  H   H341      1.0  0.85354  0.8703  0.8682900000000001  1.0000
  H   H342      1.0  0.37546999999999997  0.02369  0.11125000000000002  1.0000
  H   H343      1.0  0.06742  0.90674  0.43879  1.0000
  H   H344      1.0  0.06742  0.59325  0.06121  1.0000
  H   H345      1.0  0.85354  0.6297  0.8683000000000001  1.0000
  H   H346      1.0  0.00722  0.86817  0.8657500000000001  1.0000
  H   H347      1.0  0.78845  0.10718999999999998  0.48678000000000005  1.0000
  H   H348      1.0  0.64467  0.25  0.13749  1.0000
  H   H349      1.0  0.84811  0.42271000000000003  0.04463000000000002  1.0000
  H   H350      1.0  0.50425  0.67696  0.6764800000000001  1.0000
  H   H351      1.0  0.00426  0.67647  0.67696  1.0000
  H   H352      1.0  0.14466999999999994  0.36251  0.25  1.0000
  H   H353      1.0  0.8541699999999998  0.05904  0.8880800000000001  1.0000
  H   H354      1.0  0.82111  0.47663  0.59962  1.0000
  H   H355      1.0  0.5263  0.11548  0.9025200000000002  1.0000
  H   H356      1.0  0.51132  0.44411  0.88665  1.0000
  H   H357      1.0  0.83279  0.9310300000000001  0.87819  1.0000
  H   H358      1.0  0.34810999999999986  0.04463  0.42271000000000003  1.0000
  H   H359      1.0  0.5396  0.38171  0.49059  1.0000
  H   H360      1.0  0.48972999999999994  0.57328  0.8506900000000002  1.0000
  H   H361      1.0  0.66698  0.30147  0.4558400000000001  1.0000
  H   H362      1.0  0.451  0.38414  0.009630000000000003  1.0000
  H   H363      1.0  0.14466999999999994  0.13749  0.25  1.0000
  H   H364      1.0  0.86575  0.53127  0.8746900000000002  1.0000
  H   H365      1.0  0.28845  0.48678  0.10719  1.0000
  H   H366      1.0  0.66698  0.19852000000000003  0.4558400000000001  1.0000
  H   H367      1.0  0.9829499999999998  0.03779  0.41015  1.0000
  H   H368      1.0  0.01132  0.61335  0.055880000000000006  1.0000
  H   H369      1.0  0.07352999999999997  0.6015  0.16766000000000003  1.0000
  H   H370      1.0  0.82111  0.02337  0.90038  1.0000
  H   H371      1.0  0.16698  0.04416  0.19852000000000003  1.0000
  H   H372      1.0  0.01132  0.88665  0.055880000000000006  1.0000
  H   H373      1.0  0.8780099999999997  0.56523  0.84731  1.0000
  H   H374      1.0  0.66698  0.30147  0.04416  1.0000
  H   H375      1.0  0.29477999999999993  0.90333  0.43649  1.0000
  H   H376      1.0  0.878  0.9347700000000001  0.6526900000000001  1.0000
  H   H377      1.0  0.35104999999999986  0.82519  0.8259000000000001  1.0000
  H   H378      1.0  0.83019  0.38126  0.5895  1.0000
  H   H379      1.0  0.3328  0.87819  0.56897  1.0000
  H   H380      1.0  0.35104999999999986  0.6748  0.8259000000000001  1.0000
  H   H381      1.0  0.32111  0.59962  0.02337  1.0000
  H   H382      1.0  0.35416  0.88808  0.059040000000000016  1.0000
  H   H383      1.0  0.35104  0.82519  0.6741  1.0000
  H   H384      1.0  0.3328  0.62181  0.93103  1.0000
  H   H385      1.0  0.37546999999999997  0.02369  0.38875  1.0000
  H   H386      1.0  0.56743  0.06121  0.90674  1.0000
  H   H387      1.0  0.78373  0.17133  0.90756  1.0000
  H   H388      1.0  0.28372  0.9075600000000001  0.17133000000000004  1.0000
  H   H389      1.0  0.65228  0.19622  0.394  1.0000
  H   H390      1.0  0.86575  0.53127  0.62531  1.0000
  H   H391      1.0  0.026299999999999994  0.90252  0.38452000000000003  1.0000
  H   H392      1.0  0.98973  0.85068  0.9267200000000001  1.0000
  H   H393      1.0  0.5263  0.38452  0.59748  1.0000
  H   H394      1.0  0.9244499999999999  0.025199999999999997  0.42146000000000006  1.0000
  H   H395      1.0  0.29479  0.59667  0.43649  1.0000
  H   H396      1.0  0.03405  0.88214  0.56911  1.0000
  H   H397      1.0  0.53405  0.9308799999999999  0.88214  1.0000
  H   H398      1.0  0.48972999999999994  0.9267199999999999  0.64931  1.0000
  H   H399      1.0  0.8541699999999998  0.05904  0.6119100000000001  1.0000
  H   H400      1.0  0.48972999999999994  0.57328  0.64931  1.0000
  H   H401      1.0  0.28845  0.01321  0.39281  1.0000
  H   H402      1.0  0.91036  0.42393  0.4637700000000001  1.0000
  H   H403      1.0  0.3328  0.87819  0.93103  1.0000
  H   H404      1.0  0.00426  0.67647  0.82304  1.0000
  H   H405      1.0  0.87547  0.38875  0.47631000000000007  1.0000
  H   H406      1.0  0.78373  0.32867  0.90756  1.0000
  H   H407      1.0  0.451  0.38414  0.49037  1.0000
  H   H408      1.0  0.51132  0.05587999999999999  0.61335  1.0000
  H   H409      1.0  0.5841599999999998  0.1713  0.49488000000000004  1.0000
  H   H410      1.0  0.8327999999999998  0.56897  0.6218100000000001  1.0000
  H   H411      1.0  0.98973  0.85068  0.5732800000000001  1.0000
  H   H412      1.0  0.8510399999999999  0.82589  0.6748  1.0000
  H   H413      1.0  0.99441  0.87402  0.53556  1.0000
  H   H414      1.0  0.00722  0.86817  0.6342500000000001  1.0000
  H   H415      1.0  0.48294999999999993  0.08985  0.03780000000000001  1.0000
  H   H416      1.0  0.08416  0.49488  0.1713  1.0000
  H   H417      1.0  0.04191  0.59675  0.020770000000000004  1.0000
  H   H418      1.0  0.82111  0.47663  0.90038  1.0000
  H   H419      1.0  0.8327999999999998  0.56897  0.87819  1.0000
  H   H420      1.0  0.50722  0.63424  0.8681800000000002  1.0000
  H   H421      1.0  0.50722  0.8657500000000001  0.63182  1.0000
  H   H422      1.0  0.3328  0.62181  0.56897  1.0000
  H   H423      1.0  0.03405  0.88214  0.93088  1.0000
  H   H424      1.0  0.15227999999999997  0.10600000000000001  0.30378  1.0000
  H   H425      1.0  0.7947899999999999  0.43649  0.59667  1.0000
  H   H426      1.0  0.7947899999999999  0.43649  0.90333  1.0000
  H   H427      1.0  0.451  0.11586000000000002  0.49037  1.0000
  H   H428      1.0  0.00723  0.63181  0.63424  1.0000
  H   H429      1.0  0.83279  0.9310300000000001  0.6218100000000001  1.0000
  H   H430      1.0  0.35354  0.6317  0.6297  1.0000
  H   H431      1.0  0.24577  0.48935  0.1613  1.0000
  H   H432      1.0  0.9829499999999998  0.03779  0.08984  1.0000
  H   H433      1.0  0.65228  0.30378  0.10600000000000001  1.0000
  H   H434      1.0  0.15227999999999997  0.394  0.19622000000000006  1.0000
  H   H435      1.0  0.91036  0.07606  0.4637700000000001  1.0000
  H   H436      1.0  0.56742  0.43879  0.59325  1.0000
  H   H437      1.0  0.57353  0.16766  0.6015  1.0000
  H   H438      1.0  0.50426  0.82303  0.8235200000000001  1.0000
  H   H439      1.0  0.91035  0.42393  0.03623  1.0000
  H   H440      1.0  0.54192  0.02077  0.5967500000000001  1.0000
  H   H441      1.0  0.92444  0.025199999999999997  0.07854000000000001  1.0000
  H   H442      1.0  0.32111  0.59962  0.47663000000000005  1.0000
  H   H443      1.0  0.35416  0.61191  0.44096  1.0000
  H   H444      1.0  0.36574999999999996  0.8746800000000001  0.9687300000000002  1.0000
  H   H445      1.0  0.4103599999999999  0.03623  0.07606  1.0000
  H   H446      1.0  0.74577  0.33869  0.4893500000000001  1.0000
  H   H447      1.0  0.9829399999999999  0.4622  0.08985  1.0000
  H   H448      1.0  0.51132  0.44411  0.61335  1.0000
  H   H449      1.0  0.951  0.49037  0.38414000000000004  1.0000
  H   H450      1.0  0.00425  0.82351  0.8230300000000002  1.0000
  H   H451      1.0  0.66698  0.19852000000000003  0.04416  1.0000
  H   H452      1.0  0.91036  0.07606  0.03623  1.0000
  H   H453      1.0  0.83019  0.11874  0.5895  1.0000
  H   H454      1.0  0.57354  0.33233  0.8985000000000001  1.0000
  H   H455      1.0  0.01132  0.88665  0.44411000000000006  1.0000
  H   H456      1.0  0.8541599999999999  0.44095999999999996  0.6119100000000001  1.0000
  H   H457      1.0  0.32111  0.90038  0.47663000000000005  1.0000
  H   H458      1.0  0.85353  0.8702900000000001  0.6317100000000001  1.0000
  H   H459      1.0  0.01132  0.61335  0.44411000000000006  1.0000
  H   H460      1.0  0.92444  0.47479999999999994  0.42146000000000006  1.0000
  H   H461      1.0  0.78845  0.39281  0.01322  1.0000
  H   H462      1.0  0.24577  0.01065  0.1613  1.0000
  H   H463      1.0  0.29477999999999993  0.59667  0.06351  1.0000
  H   H464      1.0  0.451  0.11586000000000002  0.00962  1.0000
  H   H465      1.0  0.85354  0.6297  0.6317  1.0000
  H   H466      1.0  0.37546999999999997  0.47631  0.11125000000000002  1.0000
  H   H467      1.0  0.378  0.65269  0.56523  1.0000
  H   H468      1.0  0.33018  0.91049  0.38126  1.0000
  H   H469      1.0  0.50425  0.82303  0.6764800000000001  1.0000
  H   H470      1.0  0.4103599999999999  0.03623  0.42393000000000003  1.0000
  H   H471      1.0  0.34810999999999986  0.45536  0.07729  1.0000
  H   H472      1.0  0.026299999999999994  0.59748  0.11548  1.0000
  H   H473      1.0  0.35104  0.6748  0.6741  1.0000
  H   H474      1.0  0.16698  0.04416  0.30147  1.0000
  H   H475      1.0  0.74577  0.1613  0.4893500000000001  1.0000
  H   H476      1.0  0.83019  0.11874  0.91049  1.0000
  H   H477      1.0  0.378  0.84731  0.56523  1.0000
  H   H478      1.0  0.06742  0.59325  0.43879  1.0000
  H   H479      1.0  0.06742  0.9067500000000001  0.06121  1.0000
  H   H480      1.0  0.50722  0.63425  0.63182  1.0000
  H   H481      1.0  0.026299999999999994  0.59748  0.38452000000000003  1.0000
  H   H482      1.0  0.039599999999999996  0.4905900000000001  0.38171  1.0000
  H   H483      1.0  0.28372  0.59244  0.17133000000000004  1.0000
  H   H484      1.0  0.50722  0.8657500000000001  0.8681800000000002  1.0000
  H   H485      1.0  0.53405  0.56911  0.88214  1.0000
  H   H486      1.0  0.53405  0.56911  0.61785  1.0000
  H   H487      1.0  0.87547  0.38875  0.023690000000000003  1.0000
  H   H488      1.0  0.878  0.9347700000000001  0.84731  1.0000
  H   H489      1.0  0.04191  0.9032499999999999  0.020770000000000004  1.0000
  H   H490      1.0  0.039599999999999996  0.00941  0.11829  1.0000
  H   H491      1.0  0.07352999999999997  0.8984999999999999  0.16766000000000003  1.0000
  H   H492      1.0  0.28372  0.9075600000000001  0.32867  1.0000
  H   H493      1.0  0.87547  0.11125  0.023690000000000003  1.0000
  H   H494      1.0  0.00425  0.82351  0.67697  1.0000
  H   H495      1.0  0.84811  0.42271000000000003  0.45536  1.0000
  H   H496      1.0  0.34810999999999986  0.45536  0.42271000000000003  1.0000
  H   H497      1.0  0.8541599999999999  0.44095999999999996  0.8880800000000001  1.0000
  H   H498      1.0  0.951  0.00962  0.11586000000000002  1.0000
  H   H499      1.0  0.87547  0.11125  0.47631000000000007  1.0000
  H   H500      1.0  0.7947899999999999  0.06351  0.90333  1.0000
  H   H501      1.0  0.026289999999999994  0.90252  0.11548  1.0000
  H   H502      1.0  0.57353  0.33233  0.6015  1.0000
  H   H503      1.0  0.84811  0.07729  0.04463000000000002  1.0000
  H   H504      1.0  0.951  0.00962  0.38414000000000004  1.0000
  H   H505      1.0  0.08416  0.00512  0.3287000000000001  1.0000
  H   H506      1.0  0.42445  0.42146  0.4748000000000001  1.0000
  H   H507      1.0  0.48294999999999993  0.41015  0.4622  1.0000
  H   H508      1.0  0.56743  0.43879  0.90674  1.0000
  H   H509      1.0  0.29477999999999993  0.90333  0.06351  1.0000
  H   H510      1.0  0.42443999999999993  0.42146  0.025200000000000004  1.0000
  H   H511      1.0  0.28845  0.013220000000000003  0.10719  1.0000
  H   H512      1.0  0.54191  0.47922000000000003  0.9032500000000001  1.0000
  H   H513      1.0  0.33019  0.5895  0.11874000000000001  1.0000
  H   H514      1.0  0.49440999999999996  0.96443  0.8740200000000001  1.0000
  H   H515      1.0  0.16698  0.45584  0.30147  1.0000
  H   H516      1.0  0.82111  0.02337  0.59962  1.0000
  H   H517      1.0  0.04191  0.59675  0.47923  1.0000
  H   H518      1.0  0.5841599999999998  0.3287  0.49488000000000004  1.0000
  H   H519      1.0  0.28372  0.59244  0.32867  1.0000
  H   H520      1.0  0.78845  0.10718999999999998  0.01322  1.0000
  C   C1        1.0  0.49084  0.55188  0.060050000000000006  1.0000
  C   C2        1.0  0.59489  0.10332  0.42866000000000004  1.0000
  C   C3        1.0  0.11332  0.3605  0.14191  1.0000
  C   C4        1.0  0.18652  0.60906  0.03769  1.0000
  C   C5        1.0  0.96623  0.0926  0.9527900000000002  1.0000
  C   C6        1.0  0.06749  0.10087  0.39547000000000004  1.0000
  C   C7        1.0  0.73751  0.45911  0.8300200000000001  1.0000
  C   C8        1.0  0.17175  0.9504  0.09356  1.0000
  C   C9        1.0  0.17175  0.9504  0.40644  1.0000
  C   C10       1.0  0.38666  0.79698  0.45103  1.0000
  C   C11       1.0  0.2375  0.8300200000000001  0.04089000000000002  1.0000
  C   C12       1.0  0.23563  0.8483  0.0111  1.0000
  C   C13       1.0  0.04199  0.51664  0.58989  1.0000
  C   C14       1.0  0.91752  0.45166000000000006  0.8273  1.0000
  C   C15       1.0  0.34444  0.77995  0.59325  1.0000
  C   C16       1.0  0.12441  0.916  0.5262000000000001  1.0000
  C   C17       1.0  0.00301  0.12453  0.43712  1.0000
  C   C18       1.0  0.52855  0.33306  0.33394  1.0000
  C   C19       1.0  0.8365599999999999  0.9410300000000001  0.77884  1.0000
  C   C20       1.0  0.91752  0.04834  0.6727  1.0000
  C   C21       1.0  0.02856  0.33394  0.16695000000000002  1.0000
  C   C22       1.0  0.02283  0.01225  0.57062  1.0000
  C   C23       1.0  0.33656  0.72115  0.55896  1.0000
  C   C24       1.0  0.6133199999999999  0.35809  0.3605000000000001  1.0000
  C   C25       1.0  0.26513  0.7982999999999999  0.45804  1.0000
  C   C26       1.0  0.8365599999999999  0.55896  0.77884  1.0000
  C   C27       1.0  0.76513  0.45804  0.7983  1.0000
  C   C28       1.0  0.91752  0.45166000000000006  0.6727  1.0000
  C   C29       1.0  0.52855  0.33306  0.16605  1.0000
  C   C30       1.0  0.50301  0.43712000000000006  0.37547  1.0000
  C   C31       1.0  0.56748  0.39547  0.10087000000000003  1.0000
  C   C32       1.0  0.57361  0.20501  0.29557000000000005  1.0000
  C   C33       1.0  0.02283  0.48775  0.92937  1.0000
  C   C34       1.0  0.4700099999999999  0.8875600000000001  0.04368  1.0000
  C   C35       1.0  0.9943499999999997  0.03967  0.9195  1.0000
  C   C36       1.0  0.13312  0.9325  0.4933600000000001  1.0000
  C   C37       1.0  0.57249  0.32103  0.17795  1.0000
  C   C38       1.0  0.8444399999999999  0.9067500000000001  0.77995  1.0000
  C   C39       1.0  0.49084  0.55188  0.43995000000000006  1.0000
  C   C40       1.0  0.71435  0.06925  0.65736  1.0000
  C   C41       1.0  0.46622999999999987  0.95279  0.09260000000000002  1.0000
  C   C42       1.0  0.23564  0.8483  0.4888900000000001  1.0000
  C   C43       1.0  0.5271  0.14283  0.14114  1.0000
  C   C44       1.0  0.34444  0.72005  0.59325  1.0000
  C   C45       1.0  0.96025  0.4250900000000001  0.87283  1.0000
  C   C46       1.0  0.02854  0.16605  0.16693  1.0000
  C   C47       1.0  0.99084  0.43994999999999995  0.94812  1.0000
  C   C48       1.0  0.42839  0.84129  0.4828200000000001  1.0000
  C   C49       1.0  0.17175  0.5496  0.09356  1.0000
  C   C50       1.0  0.57249  0.17897  0.17795  1.0000
  C   C51       1.0  0.54198  0.58989  0.51664  1.0000
  C   C52       1.0  0.65926  0.46513000000000004  0.5781300000000003  1.0000
  C   C53       1.0  0.42839  0.65871  0.4828200000000001  1.0000
  C   C54       1.0  0.0949  0.42866000000000004  0.39668  1.0000
  C   C55       1.0  0.71435  0.06925  0.8426400000000001  1.0000
  C   C56       1.0  0.6888099999999999  0.43242  0.87242  1.0000
  C   C57       1.0  0.13312  0.5675  0.0066300000000000005  1.0000
  C   C58       1.0  0.12441  0.58399  0.9738000000000001  1.0000
  C   C59       1.0  0.50301  0.06288  0.12453  1.0000
  C   C60       1.0  0.00301  0.3754700000000001  0.43712  1.0000
  C   C61       1.0  0.5271  0.35717  0.3588500000000001  1.0000
  C   C62       1.0  0.8444399999999999  0.59325  0.77995  1.0000
  C   C63       1.0  0.65294  0.05890000000000001  0.55269  1.0000
  C   C64       1.0  0.65926  0.03487  0.5781300000000003  1.0000
  C   C65       1.0  0.68653  0.46231000000000005  0.89094  1.0000
  C   C66       1.0  0.09489  0.07133  0.10331000000000003  1.0000
  C   C67       1.0  0.4175199999999999  0.6727  0.45166  1.0000
  C   C68       1.0  0.99084  0.43994999999999995  0.55188  1.0000
  C   C69       1.0  0.71116  0.4903100000000001  0.8783700000000001  1.0000
  C   C70       1.0  0.43411  0.84327  0.07726  1.0000
  C   C71       1.0  0.5271  0.14283  0.3588500000000001  1.0000
  C   C72       1.0  0.73564  0.48889  0.65169  1.0000
  C   C73       1.0  0.5271  0.35717  0.14114  1.0000
  C   C74       1.0  0.15293999999999996  0.94731  0.0589  1.0000
  C   C75       1.0  0.8487199999999998  0.61073  0.75  1.0000
  C   C76       1.0  0.71116  0.00969  0.8783700000000001  1.0000
  C   C77       1.0  0.18881  0.62758  0.43242  1.0000
  C   C78       1.0  0.91752  0.04834  0.8273  1.0000
  C   C79       1.0  0.21434999999999996  0.84264  0.06925  1.0000
  C   C80       1.0  0.15293999999999996  0.94731  0.44110000000000005  1.0000
  C   C81       1.0  0.49084  0.94811  0.43995000000000006  1.0000
  C   C82       1.0  0.34872  0.7500000000000001  0.88927  1.0000
  C   C83       1.0  0.06749  0.10087  0.10453000000000001  1.0000
  C   C84       1.0  0.0694  0.37283  0.12983  1.0000
  C   C85       1.0  0.65294  0.4411  0.55269  1.0000
  C   C86       1.0  0.62441  0.5262  0.916  1.0000
  C   C87       1.0  0.1149  0.16449  0.33401  1.0000
  C   C88       1.0  0.52282  0.9293700000000001  0.012250000000000002  1.0000
  C   C89       1.0  0.57249  0.17897  0.32205  1.0000
  C   C90       1.0  0.54198  0.9101  0.51664  1.0000
  C   C91       1.0  0.73751  0.45911  0.6699700000000001  1.0000
  C   C92       1.0  0.21434999999999996  0.84264  0.43075  1.0000
  C   C93       1.0  0.95375  0.48508  0.8708400000000001  1.0000
  C   C94       1.0  0.56749  0.10453  0.10087000000000003  1.0000
  C   C95       1.0  0.2375  0.66997  0.04089000000000002  1.0000
  C   C96       1.0  0.99084  0.06005  0.94811  1.0000
  C   C97       1.0  0.26513  0.7982999999999999  0.04196000000000001  1.0000
  C   C98       1.0  0.9700199999999999  0.45632  0.6124400000000001  1.0000
  C   C99       1.0  0.6888099999999999  0.06757  0.6275800000000001  1.0000
  C   C100      1.0  0.76513  0.04196  0.7017  1.0000
  C   C101      1.0  0.67176  0.4064400000000001  0.9504  1.0000
  C   C102      1.0  0.6331299999999997  0.00663  0.9325000000000002  1.0000
  C   C103      1.0  0.57362  0.29499  0.29557000000000005  1.0000
  C   C104      1.0  0.15293999999999996  0.55269  0.0589  1.0000
  C   C105      1.0  0.68652  0.46231000000000005  0.60906  1.0000
  C   C106      1.0  0.6331299999999997  0.49336  0.9325000000000002  1.0000
  C   C107      1.0  0.95375  0.014920000000000001  0.62916  1.0000
  C   C108      1.0  0.95376  0.014920000000000001  0.8708400000000001  1.0000
  C   C109      1.0  0.46622999999999987  0.95279  0.40740000000000004  1.0000
  C   C110      1.0  0.49434  0.9195  0.03967  1.0000
  C   C111      1.0  0.73564  0.0111  0.8483000000000002  1.0000
  C   C112      1.0  0.02283  0.48775  0.57062  1.0000
  C   C113      1.0  0.07361999999999998  0.29555  0.20501000000000003  1.0000
  C   C114      1.0  0.67176  0.09356  0.9504  1.0000
  C   C115      1.0  0.57361  0.20501  0.20442  1.0000
  C   C116      1.0  0.15925999999999998  0.92187  0.46513  1.0000
  C   C117      1.0  0.21434999999999996  0.65736  0.06925  1.0000
  C   C118      1.0  0.53795  0.42398  0.4003400000000001  1.0000
  C   C119      1.0  0.21114999999999995  0.87837  0.49031000000000013  1.0000
  C   C120      1.0  0.52855  0.16694  0.16605  1.0000
  C   C121      1.0  0.03794999999999999  0.09966  0.07602  1.0000
  C   C122      1.0  0.34444  0.72005  0.90675  1.0000
  C   C123      1.0  0.6149  0.16599  0.3355  1.0000
  C   C124      1.0  0.15925999999999998  0.57813  0.46513  1.0000
  C   C125      1.0  0.42839  0.65871  0.01718  1.0000
  C   C126      1.0  0.6888099999999999  0.06757  0.87242  1.0000
  C   C127      1.0  0.63164  0.37297  0.44145  1.0000
  C   C128      1.0  0.4537499999999999  0.87084  0.4850800000000001  1.0000
  C   C129      1.0  0.42839  0.84129  0.01718  1.0000
  C   C130      1.0  0.6331299999999997  0.00663  0.5675  1.0000
  C   C131      1.0  0.49434  0.58049  0.03967  1.0000
  C   C132      1.0  0.62441  0.5262  0.584  1.0000
  C   C133      1.0  0.15925999999999998  0.57813  0.03487  1.0000
  C   C134      1.0  0.71116  0.00969  0.6216300000000002  1.0000
  C   C135      1.0  0.52283  0.57062  0.4877500000000001  1.0000
  C   C136      1.0  0.95375  0.48508  0.62916  1.0000
  C   C137      1.0  0.21115999999999996  0.62163  0.49031000000000013  1.0000
  C   C138      1.0  0.63164  0.12702  0.058550000000000005  1.0000
  C   C139      1.0  0.23751  0.8300200000000001  0.45911000000000013  1.0000
  C   C140      1.0  0.54199  0.58989  0.9833600000000001  1.0000
  C   C141      1.0  0.56749  0.10453  0.39913000000000004  1.0000
  C   C142      1.0  0.8444399999999999  0.9067500000000001  0.7200500000000001  1.0000
  C   C143      1.0  0.43411  0.65673  0.42274000000000006  1.0000
  C   C144      1.0  0.15293999999999996  0.55268  0.44110000000000005  1.0000
  C   C145      1.0  0.00301  0.12453  0.06288  1.0000
  C   C146      1.0  0.33656  0.77884  0.55896  1.0000
  C   C147      1.0  0.47002  0.61244  0.45632  1.0000
  C   C148      1.0  0.88666  0.45102999999999993  0.70301  1.0000
  C   C149      1.0  0.18881  0.8724200000000001  0.43242  1.0000
  C   C150      1.0  0.04199  0.51664  0.9101  1.0000
  C   C151      1.0  0.52282  0.9293700000000001  0.4877500000000001  1.0000
  C   C152      1.0  0.93411  0.42273999999999995  0.6567300000000001  1.0000
  C   C153      1.0  0.02711  0.35885  0.14284000000000002  1.0000
  C   C154      1.0  0.41751  0.8273000000000001  0.04834  1.0000
  C   C155      1.0  0.33656  0.72115  0.9410300000000001  1.0000
  C   C156      1.0  0.0694  0.37283  0.3701700000000001  1.0000
  C   C157      1.0  0.02283  0.01225  0.92937  1.0000
  C   C158      1.0  0.59489  0.39668  0.07134000000000001  1.0000
  C   C159      1.0  0.96623  0.0926  0.5472000000000001  1.0000
  C   C160      1.0  0.73751  0.04089  0.8300200000000001  1.0000
  C   C161      1.0  0.18881  0.8724200000000001  0.06758  1.0000
  C   C162      1.0  0.8365599999999999  0.55896  0.72115  1.0000
  C   C163      1.0  0.52855  0.16694  0.3339500000000001  1.0000
  C   C164      1.0  0.07360999999999998  0.2044  0.20501000000000003  1.0000
  C   C165      1.0  0.57249  0.32103  0.32204000000000005  1.0000
  C   C166      1.0  0.11332  0.13949  0.3581000000000001  1.0000
  C   C167      1.0  0.73564  0.48889  0.8483000000000002  1.0000
  C   C168      1.0  0.6133199999999999  0.14191  0.3605000000000001  1.0000
  C   C169      1.0  0.4602499999999999  0.62717  0.4251  1.0000
  C   C170      1.0  0.92839  0.48282  0.84129  1.0000
  C   C171      1.0  0.02854  0.16604  0.3330600000000001  1.0000
  C   C172      1.0  0.00301  0.3754700000000001  0.06288  1.0000
  C   C173      1.0  0.76513  0.04196  0.7983  1.0000
  C   C174      1.0  0.67175  0.4064400000000001  0.5496000000000001  1.0000
  C   C175      1.0  0.4602499999999999  0.62717  0.0749  1.0000
  C   C176      1.0  0.68653  0.03769  0.60906  1.0000
  C   C177      1.0  0.12441  0.916  0.9738000000000001  1.0000
  C   C178      1.0  0.13313  0.5675  0.4933600000000001  1.0000
  C   C179      1.0  0.21434999999999996  0.65735  0.43075  1.0000
  C   C180      1.0  0.4700099999999999  0.61244  0.04368  1.0000
  C   C181      1.0  0.6149  0.33401  0.16449  1.0000
  C   C182      1.0  0.92839  0.01718  0.84129  1.0000
  C   C183      1.0  0.26513  0.7017  0.04196000000000001  1.0000
  C   C184      1.0  0.13312  0.9325  0.0066300000000000005  1.0000
  C   C185      1.0  0.65926  0.03487  0.9218700000000001  1.0000
  C   C186      1.0  0.0271  0.14114  0.14282  1.0000
  C   C187      1.0  0.11333  0.36049  0.35809000000000013  1.0000
  C   C188      1.0  0.03794999999999999  0.40033  0.07602  1.0000
  C   C189      1.0  0.04198  0.98336  0.9101  1.0000
  C   C190      1.0  0.1149  0.16449  0.16599  1.0000
  C   C191      1.0  0.96025  0.4250900000000001  0.62717  1.0000
  C   C192      1.0  0.8365599999999999  0.9410300000000001  0.72115  1.0000
  C   C193      1.0  0.07250999999999998  0.32203  0.32103  1.0000
  C   C194      1.0  0.46622999999999987  0.5472  0.09260000000000002  1.0000
  C   C195      1.0  0.63164  0.12702  0.44145  1.0000
  C   C196      1.0  0.53795  0.42398  0.09966  1.0000
  C   C197      1.0  0.49082999999999993  0.9481200000000001  0.060050000000000006  1.0000
  C   C198      1.0  0.07249999999999997  0.32203  0.17897  1.0000
  C   C199      1.0  0.61491  0.33401  0.3355  1.0000
  C   C200      1.0  0.9943499999999997  0.46033  0.9195  1.0000
  C   C201      1.0  0.02857  0.33393  0.3330500000000001  1.0000
  C   C202      1.0  0.34444  0.77995  0.90675  1.0000
  C   C203      1.0  0.18652  0.60906  0.46231  1.0000
  C   C204      1.0  0.93411  0.42273999999999995  0.8432700000000001  1.0000
  C   C205      1.0  0.037959999999999994  0.40033  0.42398  1.0000
  C   C206      1.0  0.56939  0.37017  0.37283  1.0000
  C   C207      1.0  0.38666  0.70301  0.04897  1.0000
  C   C208      1.0  0.63164  0.37298  0.058550000000000005  1.0000
  C   C209      1.0  0.06939  0.12716  0.37018000000000006  1.0000
  C   C210      1.0  0.38666  0.70301  0.45103  1.0000
  C   C211      1.0  0.9943499999999997  0.03967  0.58049  1.0000
  C   C212      1.0  0.06749  0.39912000000000003  0.10453000000000001  1.0000
  C   C213      1.0  0.13164  0.05855  0.12702  1.0000
  C   C214      1.0  0.4175199999999999  0.8273000000000001  0.45166  1.0000
  C   C215      1.0  0.18652  0.8909400000000001  0.46231  1.0000
  C   C216      1.0  0.6331299999999997  0.49336  0.5675  1.0000
  C   C217      1.0  0.4602499999999999  0.87283  0.4251  1.0000
  C   C218      1.0  0.02711  0.35885  0.35716  1.0000
  C   C219      1.0  0.18652  0.8909400000000001  0.03769  1.0000
  C   C220      1.0  0.52282  0.57062  0.012250000000000002  1.0000
  C   C221      1.0  0.92839  0.48282  0.6587100000000001  1.0000
  C   C222      1.0  0.99084  0.06005  0.55188  1.0000
  C   C223      1.0  0.96025  0.0749  0.62717  1.0000
  C   C224      1.0  0.47002  0.8875600000000001  0.45632  1.0000
  C   C225      1.0  0.56939  0.37018  0.12716000000000002  1.0000
  C   C226      1.0  0.06939  0.12716  0.12982  1.0000
  C   C227      1.0  0.59489  0.39668  0.42866000000000004  1.0000
  C   C228      1.0  0.65294  0.05890000000000001  0.94731  1.0000
  C   C229      1.0  0.13164  0.44145000000000006  0.12703  1.0000
  C   C230      1.0  0.9700199999999999  0.04368  0.8875600000000001  1.0000
  C   C231      1.0  0.4537499999999999  0.87084  0.014920000000000001  1.0000
  C   C232      1.0  0.71435  0.43075  0.65736  1.0000
  C   C233      1.0  0.4537499999999999  0.62916  0.014920000000000001  1.0000
  C   C234      1.0  0.6133199999999999  0.35809  0.1395  1.0000
  C   C235      1.0  0.23751  0.66997  0.45911000000000013  1.0000
  C   C236      1.0  0.09489  0.07133  0.39669  1.0000
  C   C237      1.0  0.50301  0.06288  0.37547  1.0000
  C   C238      1.0  0.23564  0.65169  0.4888900000000001  1.0000
  C   C239      1.0  0.9700199999999999  0.45632  0.8875600000000001  1.0000
  C   C240      1.0  0.21114999999999995  0.62163  0.00969  1.0000
  C   C241      1.0  0.88667  0.04896  0.79698  1.0000
  C   C242      1.0  0.84871  0.88927  0.75  1.0000
  C   C243      1.0  0.07247999999999998  0.17794  0.32103  1.0000
  C   C244      1.0  0.18881  0.62758  0.06758  1.0000
  C   C245      1.0  0.23563  0.65169  0.0111  1.0000
  C   C246      1.0  0.6133199999999999  0.14191  0.1395  1.0000
  C   C247      1.0  0.07247999999999998  0.17794  0.17896  1.0000
  C   C248      1.0  0.34872  0.7500000000000001  0.61073  1.0000
  C   C249      1.0  0.6149  0.16599  0.16450000000000006  1.0000
  C   C250      1.0  0.07360999999999998  0.2044  0.29499  1.0000
  C   C251      1.0  0.17175  0.5496  0.40644  1.0000
  C   C252      1.0  0.21114999999999995  0.87837  0.00969  1.0000
  C   C253      1.0  0.76513  0.45804  0.7017  1.0000
  C   C254      1.0  0.73564  0.0111  0.65169  1.0000
  C   C255      1.0  0.71435  0.43075  0.8426400000000001  1.0000
  C   C256      1.0  0.26513  0.7017  0.45804  1.0000
  C   C257      1.0  0.6888099999999999  0.43242  0.6275800000000001  1.0000
  C   C258      1.0  0.11332  0.13949  0.14190000000000003  1.0000
  C   C259      1.0  0.71116  0.4903100000000001  0.6216300000000002  1.0000
  C   C260      1.0  0.92839  0.01718  0.6587100000000001  1.0000
  C   C261      1.0  0.62441  0.9738  0.916  1.0000
  C   C262      1.0  0.59489  0.10332  0.07134000000000001  1.0000
  C   C263      1.0  0.06749  0.39912000000000003  0.39546000000000003  1.0000
  C   C264      1.0  0.4537499999999999  0.62915  0.4850800000000001  1.0000
  C   C265      1.0  0.93411  0.07726  0.6567300000000001  1.0000
  C   C266      1.0  0.96623  0.40740000000000004  0.5472000000000001  1.0000
  C   C267      1.0  0.8444399999999999  0.59325  0.7200500000000001  1.0000
  C   C268      1.0  0.9943499999999997  0.46033  0.58049  1.0000
  C   C269      1.0  0.0271  0.14114  0.35718  1.0000
  C   C270      1.0  0.54198  0.9101  0.9833600000000001  1.0000
  C   C271      1.0  0.50301  0.43712000000000006  0.12453  1.0000
  C   C272      1.0  0.03794999999999999  0.09966  0.42398  1.0000
  C   C273      1.0  0.41751  0.6727  0.04834  1.0000
  C   C274      1.0  0.53795  0.07602  0.09966  1.0000
  C   C275      1.0  0.68653  0.03769  0.89094  1.0000
  C   C276      1.0  0.67176  0.09356  0.5496000000000001  1.0000
  C   C277      1.0  0.04198  0.98336  0.5899  1.0000
  C   C278      1.0  0.46622999999999987  0.5472  0.40740000000000004  1.0000
  C   C279      1.0  0.73751  0.04089  0.6699700000000001  1.0000
  C   C280      1.0  0.49434  0.9195  0.46033000000000013  1.0000
  C   C281      1.0  0.15925999999999998  0.92187  0.03487  1.0000
  C   C282      1.0  0.65294  0.4411  0.94731  1.0000
  C   C283      1.0  0.96623  0.40740000000000004  0.9527900000000002  1.0000
  C   C284      1.0  0.9700199999999999  0.04368  0.6124400000000001  1.0000
  C   C285      1.0  0.12441  0.58399  0.5262000000000001  1.0000
  C   C286      1.0  0.56939  0.12983  0.37283  1.0000
  C   C287      1.0  0.56749  0.39547  0.39912000000000003  1.0000
  C   C288      1.0  0.07361999999999998  0.29555  0.29499  1.0000
  C   C289      1.0  0.38666  0.79698  0.04896  1.0000
  C   C290      1.0  0.13164  0.44145000000000006  0.37297  1.0000
  C   C291      1.0  0.13164  0.05854000000000001  0.37298  1.0000
  C   C292      1.0  0.11492  0.33549  0.334  1.0000
  C   C293      1.0  0.65926  0.46513000000000004  0.9218700000000001  1.0000
  C   C294      1.0  0.88666  0.45102999999999993  0.79698  1.0000
  C   C295      1.0  0.49434999999999996  0.58049  0.46033000000000013  1.0000
  C   C296      1.0  0.4602499999999999  0.87283  0.0749  1.0000
  C   C297      1.0  0.33656  0.77884  0.9410300000000001  1.0000
  C   C298      1.0  0.11491  0.33549  0.16600000000000004  1.0000
  C   C299      1.0  0.53795  0.07602  0.4003400000000001  1.0000
  C   C300      1.0  0.56939  0.12982  0.12717  1.0000
  C   C301      1.0  0.62441  0.9738  0.584  1.0000
  C   C302      1.0  0.57361  0.29499  0.20442  1.0000
  C   C303      1.0  0.43411  0.65673  0.07726  1.0000
  C   C304      1.0  0.88666  0.04896  0.70301  1.0000
  C   C305      1.0  0.43411  0.84327  0.42274000000000006  1.0000
  C   C306      1.0  0.09489  0.42866000000000004  0.10332000000000001  1.0000
  C   C307      1.0  0.96025  0.0749  0.87283  1.0000
  C   C308      1.0  0.93411  0.07726  0.8432700000000001  1.0000
  C   C309      1.0  0.50565  0.08049  0.9603300000000002  1.0000
  C   C310      1.0  0.38668  0.8580899999999999  0.8605  1.0000
  C   C311      1.0  0.78884  0.12163  0.9903100000000002  1.0000
  C   C312      1.0  0.36836  0.62702  0.55855  1.0000
  C   C313      1.0  0.3668699999999999  0.50663  0.4325000000000001  1.0000
  C   C314      1.0  0.9051  0.57133  0.60331  1.0000
  C   C315      1.0  0.84074  0.07813  0.53487  1.0000
  C   C316      1.0  0.49698  0.93712  0.62453  1.0000
  C   C317      1.0  0.26436  0.5111  0.15169000000000002  1.0000
  C   C318      1.0  0.53377  0.45280000000000004  0.5926  1.0000
  C   C319      1.0  0.07159999999999997  0.98282  0.34129  1.0000
  C   C320      1.0  0.2888399999999999  0.99031  0.37837000000000004  1.0000
  C   C321      1.0  0.57161  0.34129  0.51718  1.0000
  C   C322      1.0  0.009159999999999996  0.9399499999999998  0.05188  1.0000
  C   C323      1.0  0.97716  0.98775  0.07062  1.0000
  C   C324      1.0  0.50565  0.4195  0.9603300000000002  1.0000
  C   C325      1.0  0.4263799999999999  0.79499  0.7044300000000002  1.0000
  C   C326      1.0  0.07159999999999997  0.51718  0.15871  1.0000
  C   C327      1.0  0.23486  0.95804  0.2983  1.0000
  C   C328      1.0  0.97145  0.66605  0.83306  1.0000
  C   C329      1.0  0.06588  0.57726  0.15673  1.0000
  C   C330      1.0  0.78565  0.34264  0.56925  1.0000
  C   C331      1.0  0.8850899999999998  0.8355  0.66599  1.0000
  C   C332      1.0  0.11333  0.54896  0.20301000000000002  1.0000
  C   C333      1.0  0.15127999999999997  0.38927  0.25  1.0000
  C   C334      1.0  0.03376  0.9074  0.04720000000000001  1.0000
  C   C335      1.0  0.84073  0.4218700000000001  0.53487  1.0000
  C   C336      1.0  0.5824799999999998  0.17270000000000002  0.95166  1.0000
  C   C337      1.0  0.54625  0.37084  0.98508  1.0000
  C   C338      1.0  0.42749999999999994  0.67897  0.67795  1.0000
  C   C339      1.0  0.03974  0.5749  0.12717  1.0000
  C   C340      1.0  0.31117999999999996  0.93242  0.12758  1.0000
  C   C341      1.0  0.47288999999999987  0.64283  0.64114  1.0000
  C   C342      1.0  0.9306099999999999  0.62716  0.6298200000000002  1.0000
  C   C343      1.0  0.65128  0.25  0.38927  1.0000
  C   C344      1.0  0.28564  0.56925  0.34264  1.0000
  C   C345      1.0  0.52998  0.11244000000000001  0.54368  1.0000
  C   C346      1.0  0.84706  0.05269  0.5589000000000001  1.0000
  C   C347      1.0  0.04624  0.98508  0.12916  1.0000
  C   C348      1.0  0.47144999999999987  0.66694  0.8339500000000001  1.0000
  C   C349      1.0  0.37559  0.0262  0.084  1.0000
  C   C350      1.0  0.43251  0.60453  0.89913  1.0000
  C   C351      1.0  0.76249  0.33002  0.54089  1.0000
  C   C352      1.0  0.38509  0.66599  0.6645000000000001  1.0000
  C   C353      1.0  0.96204  0.90033  0.92398  1.0000
  C   C354      1.0  0.65556  0.22005000000000002  0.09325  1.0000
  C   C355      1.0  0.4050999999999999  0.89668  0.9286600000000002  1.0000
  C   C356      1.0  0.00565  0.53967  0.4195  1.0000
  C   C357      1.0  0.52998  0.38756  0.9563200000000001  1.0000
  C   C358      1.0  0.73487  0.2017  0.95804  1.0000
  C   C359      1.0  0.15127999999999997  0.11073  0.25  1.0000
  C   C360      1.0  0.16344  0.05896  0.2788400000000001  1.0000
  C   C361      1.0  0.15555999999999998  0.40675000000000006  0.22005  1.0000
  C   C362      1.0  0.50565  0.08049  0.53967  1.0000
  C   C363      1.0  0.86687  0.0675  0.9933600000000002  1.0000
  C   C364      1.0  0.43061  0.8701700000000001  0.87283  1.0000
  C   C365      1.0  0.50916  0.44810999999999995  0.93995  1.0000
  C   C366      1.0  0.56589  0.34327  0.57726  1.0000
  C   C367      1.0  0.84706  0.44731000000000004  0.9411  1.0000
  C   C368      1.0  0.38509  0.83401  0.6645000000000001  1.0000
  C   C369      1.0  0.9274999999999998  0.8220400000000001  0.82103  1.0000
  C   C370      1.0  0.78565  0.34264  0.93075  1.0000
  C   C371      1.0  0.97144  0.8339400000000001  0.66694  1.0000
  C   C372      1.0  0.96204  0.59966  0.92398  1.0000
  C   C373      1.0  0.43251  0.89547  0.60087  1.0000
  C   C374      1.0  0.99698  0.87547  0.93712  1.0000
  C   C375      1.0  0.8282399999999998  0.4504000000000001  0.9064400000000001  1.0000
  C   C376      1.0  0.9263799999999998  0.70441  0.7050100000000002  1.0000
  C   C377      1.0  0.81119  0.12758  0.93242  1.0000
  C   C378      1.0  0.8282399999999998  0.4504000000000001  0.5935600000000001  1.0000
  C   C379      1.0  0.5824799999999998  0.3273  0.54834  1.0000
  C   C380      1.0  0.45800999999999986  0.0899  0.48336  1.0000
  C   C381      1.0  0.28564  0.93075  0.34264  1.0000
  C   C382      1.0  0.16344  0.4410299999999999  0.2788400000000001  1.0000
  C   C383      1.0  0.53377  0.45279  0.9073900000000003  1.0000
  C   C384      1.0  0.95801  0.48336  0.4101000000000001  1.0000
  C   C385      1.0  0.45800999999999986  0.0899  0.01664  1.0000
  C   C386      1.0  0.26436  0.5111  0.34831  1.0000
  C   C387      1.0  0.34072999999999987  0.53487  0.42187  1.0000
  C   C388      1.0  0.78884  0.12163  0.50969  1.0000
  C   C389      1.0  0.47144  0.83306  0.6660500000000001  1.0000
  C   C390      1.0  0.4050999999999999  0.89668  0.5713400000000001  1.0000
  C   C391      1.0  0.4263799999999999  0.70501  0.7044300000000002  1.0000
  C   C392      1.0  0.73487  0.2017  0.54196  1.0000
  C   C393      1.0  0.47716999999999987  0.07062  0.9877500000000002  1.0000
  C   C394      1.0  0.34072999999999987  0.9651300000000002  0.07813  1.0000
  C   C395      1.0  0.56589  0.15673  0.57726  1.0000
  C   C396      1.0  0.3470499999999999  0.5589  0.05269000000000001  1.0000
  C   C397      1.0  0.53377  0.0472  0.5926  1.0000
  C   C398      1.0  0.03377  0.5926  0.04720000000000001  1.0000
  C   C399      1.0  0.88667  0.8605000000000002  0.8580900000000001  1.0000
  C   C400      1.0  0.4729  0.64283  0.8588600000000002  1.0000
  C   C401      1.0  0.28564  0.56925  0.15736  1.0000
  C   C402      1.0  0.92751  0.67794  0.67896  1.0000
  C   C403      1.0  0.65556  0.27995  0.09325  1.0000
  C   C404      1.0  0.4263799999999999  0.70501  0.7955800000000001  1.0000
  C   C405      1.0  0.9051  0.9286600000000002  0.89668  1.0000
  C   C406      1.0  0.88667  0.8605000000000002  0.6419100000000001  1.0000
  C   C407      1.0  0.16344  0.05896  0.22115  1.0000
  C   C408      1.0  0.8134699999999999  0.39094  0.53769  1.0000
  C   C409      1.0  0.9324999999999998  0.89912  0.6045300000000002  1.0000
  C   C410      1.0  0.61333  0.20301000000000002  0.54896  1.0000
  C   C411      1.0  0.42749999999999994  0.8210299999999999  0.67795  1.0000
  C   C412      1.0  0.97717  0.98775  0.4293700000000001  1.0000
  C   C413      1.0  0.02998  0.54368  0.3875600000000001  1.0000
  C   C414      1.0  0.97717  0.51225  0.07062  1.0000
  C   C415      1.0  0.61334  0.29698  0.9510300000000003  1.0000
  C   C416      1.0  0.2888399999999999  0.50969  0.37837000000000004  1.0000
  C   C417      1.0  0.54624  0.37084  0.5149200000000002  1.0000
  C   C418      1.0  0.53975  0.12717  0.5749  1.0000
  C   C419      1.0  0.03974  0.9250900000000001  0.12717  1.0000
  C   C420      1.0  0.26249  0.54089  0.33002  1.0000
  C   C421      1.0  0.50565  0.4195  0.53967  1.0000
  C   C422      1.0  0.50916  0.44812  0.56005  1.0000
  C   C423      1.0  0.5824799999999998  0.3273  0.95166  1.0000
  C   C424      1.0  0.26249  0.95911  0.16998000000000002  1.0000
  C   C425      1.0  0.93251  0.60087  0.8954700000000001  1.0000
  C   C426      1.0  0.00565  0.96033  0.08049000000000002  1.0000
  C   C427      1.0  0.95801  0.01664  0.4101000000000001  1.0000
  C   C428      1.0  0.38668  0.6419  0.8605  1.0000
  C   C429      1.0  0.32824  0.90644  0.04960000000000001  1.0000
  C   C430      1.0  0.4050999999999999  0.60331  0.9286600000000002  1.0000
  C   C431      1.0  0.26436  0.9888899999999999  0.34831  1.0000
  C   C432      1.0  0.06589  0.57726  0.34327  1.0000
  C   C433      1.0  0.8683599999999999  0.55854  0.62702  1.0000
  C   C434      1.0  0.57161  0.34129  0.98282  1.0000
  C   C435      1.0  0.28564  0.93075  0.15736  1.0000
  C   C436      1.0  0.76249  0.16998  0.54089  1.0000
  C   C437      1.0  0.8851  0.66449  0.8340100000000001  1.0000
  C   C438      1.0  0.37559  0.4738  0.416  1.0000
  C   C439      1.0  0.8134699999999999  0.39094  0.9623100000000001  1.0000
  C   C440      1.0  0.11333  0.9510300000000002  0.20301000000000002  1.0000
  C   C441      1.0  0.31347  0.96231  0.10906  1.0000
  C   C442      1.0  0.3668699999999999  0.99336  0.0675  1.0000
  C   C443      1.0  0.15555999999999998  0.09325  0.27995  1.0000
  C   C444      1.0  0.31347  0.53769  0.10906  1.0000
  C   C445      1.0  0.73487  0.2983  0.95804  1.0000
  C   C446      1.0  0.03377  0.90739  0.4528  1.0000
  C   C447      1.0  0.45800999999999986  0.41009999999999996  0.48336  1.0000
  C   C448      1.0  0.04624  0.51492  0.3708400000000001  1.0000
  C   C449      1.0  0.42751  0.67896  0.82205  1.0000
  C   C450      1.0  0.86835  0.9414500000000001  0.62702  1.0000
  C   C451      1.0  0.96204  0.90033  0.57602  1.0000
  C   C452      1.0  0.5824799999999998  0.17270000000000002  0.54834  1.0000
  C   C453      1.0  0.87558  0.416  0.0262  1.0000
  C   C454      1.0  0.3851  0.66599  0.8355000000000001  1.0000
  C   C455      1.0  0.009159999999999996  0.56005  0.4481200000000001  1.0000
  C   C456      1.0  0.65128  0.25  0.11073  1.0000
  C   C457      1.0  0.76249  0.16997  0.95911  1.0000
  C   C458      1.0  0.47716999999999987  0.42937000000000003  0.9877500000000002  1.0000
  C   C459      1.0  0.87559  0.084  0.4738  1.0000
  C   C460      1.0  0.57161  0.15871  0.98282  1.0000
  C   C461      1.0  0.93251  0.89912  0.8954700000000001  1.0000
  C   C462      1.0  0.38668  0.64191  0.6395  1.0000
  C   C463      1.0  0.61333  0.29698  0.54896  1.0000
  C   C464      1.0  0.11333  0.9510300000000002  0.2969800000000001  1.0000
  C   C465      1.0  0.46204  0.92398  0.9003400000000001  1.0000
  C   C466      1.0  0.00565  0.96033  0.41951  1.0000
  C   C467      1.0  0.06588  0.92274  0.15673  1.0000
  C   C468      1.0  0.009159999999999996  0.9399499999999998  0.4481200000000001  1.0000
  C   C469      1.0  0.16344  0.44104  0.22115  1.0000
  C   C470      1.0  0.07159999999999997  0.98282  0.15871  1.0000
  C   C471      1.0  0.08248  0.95166  0.32730000000000004  1.0000
  C   C472      1.0  0.34706  0.5589  0.44731  1.0000
  C   C473      1.0  0.23486  0.95804  0.20170000000000002  1.0000
  C   C474      1.0  0.3470499999999999  0.9411  0.05269000000000001  1.0000
  C   C475      1.0  0.8683599999999999  0.55854  0.87297  1.0000
  C   C476      1.0  0.46204  0.92398  0.59966  1.0000
  C   C477      1.0  0.31347  0.53769  0.3909400000000001  1.0000
  C   C478      1.0  0.81119  0.12758  0.56757  1.0000
  C   C479      1.0  0.8683599999999999  0.9414500000000001  0.87297  1.0000
  C   C480      1.0  0.53975  0.12717  0.9250900000000002  1.0000
  C   C481      1.0  0.08248  0.54834  0.1727  1.0000
  C   C482      1.0  0.3851  0.83401  0.8355000000000001  1.0000
  C   C483      1.0  0.00565  0.53967  0.08049000000000002  1.0000
  C   C484      1.0  0.8282399999999998  0.0496  0.9064400000000001  1.0000
  C   C485      1.0  0.2888399999999999  0.50969  0.12163000000000002  1.0000
  C   C486      1.0  0.86687  0.0675  0.50663  1.0000
  C   C487      1.0  0.56589  0.15673  0.92274  1.0000
  C   C488      1.0  0.84706  0.05269  0.9411  1.0000
  C   C489      1.0  0.8134699999999999  0.10906  0.9623100000000001  1.0000
  C   C490      1.0  0.9051  0.57133  0.89668  1.0000
  C   C491      1.0  0.93251  0.60087  0.6045300000000002  1.0000
  C   C492      1.0  0.78565  0.15736  0.56925  1.0000
  C   C493      1.0  0.9306  0.87283  0.62983  1.0000
  C   C494      1.0  0.8851  0.66449  0.66599  1.0000
  C   C495      1.0  0.23487  0.54196  0.2983  1.0000
  C   C496      1.0  0.37559  0.0262  0.416  1.0000
  C   C497      1.0  0.78565  0.15736  0.93075  1.0000
  C   C498      1.0  0.08248  0.54834  0.32730000000000004  1.0000
  C   C499      1.0  0.52998  0.11244000000000001  0.9563200000000001  1.0000
  C   C500      1.0  0.03974  0.9250900000000001  0.37283  1.0000
  C   C501      1.0  0.54625  0.12916  0.5149200000000002  1.0000
  C   C502      1.0  0.46204  0.57602  0.59966  1.0000
  C   C503      1.0  0.37558  0.4738  0.084  1.0000
  C   C504      1.0  0.34072999999999987  0.53487  0.07813  1.0000
  C   C505      1.0  0.31347  0.96231  0.3909400000000001  1.0000
  C   C506      1.0  0.66344  0.27884  0.44103000000000003  1.0000
  C   C507      1.0  0.86687  0.4325  0.9933600000000002  1.0000
  C   C508      1.0  0.26249  0.95911  0.33002  1.0000
  C   C509      1.0  0.43061  0.62982  0.62717  1.0000
  C   C510      1.0  0.95801  0.01664  0.08990000000000002  1.0000
  C   C511      1.0  0.9969899999999998  0.62453  0.56288  1.0000
  C   C512      1.0  0.42751  0.8210299999999999  0.82205  1.0000
  C   C513      1.0  0.78884  0.37837  0.9903100000000002  1.0000
  C   C514      1.0  0.9051  0.9286600000000002  0.60332  1.0000
  C   C515      1.0  0.02998  0.95632  0.3875600000000001  1.0000
  C   C516      1.0  0.66344  0.27884  0.05896  1.0000
  C   C517      1.0  0.009159999999999996  0.56005  0.05188  1.0000
  C   C518      1.0  0.49699  0.56288  0.62453  1.0000
  C   C519      1.0  0.04624  0.51492  0.12916  1.0000
  C   C520      1.0  0.4305999999999999  0.8701700000000001  0.62717  1.0000
  C   C521      1.0  0.9306099999999999  0.62716  0.87017  1.0000
  C   C522      1.0  0.8282399999999998  0.0496  0.5935600000000001  1.0000
  C   C523      1.0  0.66344  0.22115000000000004  0.05896  1.0000
  C   C524      1.0  0.8850899999999998  0.8355  0.834  1.0000
  C   C525      1.0  0.76436  0.15169  0.5111  1.0000
  C   C526      1.0  0.61334  0.20301000000000002  0.9510300000000003  1.0000
  C   C527      1.0  0.38668  0.8580899999999999  0.6395  1.0000
  C   C528      1.0  0.9263799999999998  0.70441  0.79499  1.0000
  C   C529      1.0  0.76249  0.33002  0.95911  1.0000
  C   C530      1.0  0.78884  0.37837  0.50969  1.0000
  C   C531      1.0  0.9728999999999999  0.64114  0.8571700000000001  1.0000
  C   C532      1.0  0.43061  0.62982  0.87283  1.0000
  C   C533      1.0  0.07160999999999997  0.51718  0.34129  1.0000
  C   C534      1.0  0.04624  0.98508  0.3708400000000001  1.0000
  C   C535      1.0  0.9263799999999998  0.79556  0.79499  1.0000
  C   C536      1.0  0.9263799999999998  0.79556  0.7050100000000002  1.0000
  C   C537      1.0  0.88668  0.63949  0.6419  1.0000
  C   C538      1.0  0.84706  0.44731000000000004  0.5589000000000001  1.0000
  C   C539      1.0  0.47716999999999987  0.42937000000000003  0.51225  1.0000
  C   C540      1.0  0.31119  0.56757  0.12758  1.0000
  C   C541      1.0  0.02998  0.95632  0.11244  1.0000
  C   C542      1.0  0.02998  0.54368  0.11244  1.0000
  C   C543      1.0  0.87558  0.084  0.0262  1.0000
  C   C544      1.0  0.4729  0.8571700000000001  0.8588600000000002  1.0000
  C   C545      1.0  0.50916  0.05188  0.56005  1.0000
  C   C546      1.0  0.47144999999999987  0.83306  0.8339500000000001  1.0000
  C   C547      1.0  0.54625  0.12916  0.98508  1.0000
  C   C548      1.0  0.76436  0.3483  0.5111  1.0000
  C   C549      1.0  0.53975  0.37283  0.5749  1.0000
  C   C550      1.0  0.97144  0.8339400000000001  0.8330500000000001  1.0000
  C   C551      1.0  0.52998  0.38756  0.54368  1.0000
  C   C552      1.0  0.86687  0.4325  0.50663  1.0000
  C   C553      1.0  0.50916  0.05188  0.93995  1.0000
  C   C554      1.0  0.36836  0.87297  0.55855  1.0000
  C   C555      1.0  0.32824  0.90644  0.4504  1.0000
  C   C556      1.0  0.9306  0.87283  0.87017  1.0000
  C   C557      1.0  0.9969899999999998  0.62453  0.93712  1.0000
  C   C558      1.0  0.26249  0.54089  0.16998000000000002  1.0000
  C   C559      1.0  0.15555999999999998  0.40675000000000006  0.27995  1.0000
  C   C560      1.0  0.87558  0.416  0.4738  1.0000
  C   C561      1.0  0.9728999999999999  0.64114  0.64283  1.0000
  C   C562      1.0  0.32824  0.59356  0.04960000000000001  1.0000
  C   C563      1.0  0.3668699999999999  0.50663  0.0675  1.0000
  C   C564      1.0  0.36836  0.62702  0.94145  1.0000
  C   C565      1.0  0.45800999999999986  0.41009999999999996  0.01664  1.0000
  C   C566      1.0  0.4620499999999999  0.57602  0.9003400000000001  1.0000
  C   C567      1.0  0.8134699999999999  0.10906  0.53769  1.0000
  C   C568      1.0  0.81119  0.37242  0.93242  1.0000
  C   C569      1.0  0.06588  0.92274  0.34327  1.0000
  C   C570      1.0  0.34072999999999987  0.9651300000000002  0.42187  1.0000
  C   C571      1.0  0.43251  0.89547  0.89913  1.0000
  C   C572      1.0  0.96204  0.59966  0.57602  1.0000
  C   C573      1.0  0.65556  0.22005000000000002  0.40675  1.0000
  C   C574      1.0  0.57161  0.15871  0.51718  1.0000
  C   C575      1.0  0.49699  0.56288  0.87547  1.0000
  C   C576      1.0  0.08248  0.95166  0.1727  1.0000
  C   C577      1.0  0.31117999999999996  0.93242  0.37242  1.0000
  C   C578      1.0  0.36836  0.87297  0.94145  1.0000
  C   C579      1.0  0.11333  0.54896  0.2969800000000001  1.0000
  C   C580      1.0  0.97289  0.85885  0.64283  1.0000
  C   C581      1.0  0.81119  0.37242  0.56757  1.0000
  C   C582      1.0  0.23487  0.54196  0.20170000000000002  1.0000
  C   C583      1.0  0.2888399999999999  0.99031  0.12163000000000002  1.0000
  C   C584      1.0  0.4050999999999999  0.60331  0.5713400000000001  1.0000
  C   C585      1.0  0.47716999999999987  0.07062  0.51225  1.0000
  C   C586      1.0  0.47288999999999987  0.8571700000000001  0.64114  1.0000
  C   C587      1.0  0.97717  0.51225  0.4293700000000001  1.0000
  C   C588      1.0  0.3470499999999999  0.9411  0.44731  1.0000
  C   C589      1.0  0.56589  0.34327  0.92274  1.0000
  C   C590      1.0  0.84074  0.07813  0.9651200000000001  1.0000
  C   C591      1.0  0.03974  0.5749  0.37283  1.0000
  C   C592      1.0  0.53377  0.0472  0.9073900000000003  1.0000
  C   C593      1.0  0.88668  0.63949  0.8580900000000001  1.0000
  C   C594      1.0  0.03377  0.5926  0.4528  1.0000
  C   C595      1.0  0.73487  0.2983  0.54196  1.0000
  C   C596      1.0  0.92751  0.67794  0.82103  1.0000
  C   C597      1.0  0.95801  0.48336  0.08990000000000002  1.0000
  C   C598      1.0  0.32824  0.59356  0.4504  1.0000
  C   C599      1.0  0.84074  0.4218700000000001  0.9651300000000002  1.0000
  C   C600      1.0  0.49699  0.93712  0.87547  1.0000
  C   C601      1.0  0.4263799999999999  0.79498  0.7955800000000001  1.0000
  C   C602      1.0  0.66344  0.22115000000000004  0.44103000000000003  1.0000
  C   C603      1.0  0.65556  0.27995  0.40675  1.0000
  C   C604      1.0  0.97289  0.85885  0.85716  1.0000
  C   C605      1.0  0.9274999999999998  0.8220400000000001  0.6789700000000001  1.0000
  C   C606      1.0  0.31119  0.56757  0.37242  1.0000
  C   C607      1.0  0.53975  0.37283  0.9250900000000002  1.0000
  C   C608      1.0  0.76436  0.15169  0.9888900000000002  1.0000
  C   C609      1.0  0.3668699999999999  0.99336  0.4325000000000001  1.0000
  C   C610      1.0  0.47144  0.66694  0.6660500000000001  1.0000
  C   C611      1.0  0.43251  0.60453  0.60087  1.0000
  C   C612      1.0  0.26436  0.9888899999999999  0.15169000000000002  1.0000
  C   C613      1.0  0.76436  0.3483  0.9888900000000002  1.0000
  C   C614      1.0  0.99698  0.87547  0.56288  1.0000
  C   C615      1.0  0.15555999999999998  0.09325  0.22005  1.0000
  C   C616      1.0  0.97145  0.66605  0.66694  1.0000
  N   N1        1.0  0.12523  0.52855  0.4545700000000001  1.0000
  N   N2        1.0  0.58205  0.07604  0.44632000000000005  1.0000
  N   N3        1.0  0.51466  0.9734  0.45481000000000005  1.0000
  N   N4        1.0  0.83297  0.95804  0.75  1.0000
  N   N5        1.0  0.03463  0.48395  0.96177  1.0000
  N   N6        1.0  0.01466  0.45481  0.5266  1.0000
  N   N7        1.0  0.03463  0.48395  0.53822  1.0000
  N   N8        1.0  0.58205  0.42396000000000006  0.44632000000000005  1.0000
  N   N9        1.0  0.62523  0.04543  0.97144  1.0000
  N   N10       1.0  0.11264  0.9621500000000001  0.48643  1.0000
  N   N11       1.0  0.08205  0.44632  0.4239600000000001  1.0000
  N   N12       1.0  0.53463  0.9617700000000001  0.48395  1.0000
  N   N13       1.0  0.11264  0.53785  0.48643  1.0000
  N   N14       1.0  0.12523  0.9714400000000001  0.045430000000000005  1.0000
  N   N15       1.0  0.5473  0.44088  0.0712  1.0000
  N   N16       1.0  0.61265  0.013570000000000002  0.53785  1.0000
  N   N17       1.0  0.51466  0.5266  0.04519  1.0000
  N   N18       1.0  0.6126399999999999  0.48643000000000003  0.53785  1.0000
  N   N19       1.0  0.04731  0.42879  0.44087  1.0000
  N   N20       1.0  0.04731  0.0712  0.44088  1.0000
  N   N21       1.0  0.01467  0.04519  0.9734  1.0000
  N   N22       1.0  0.62523  0.45457  0.97144  1.0000
  N   N23       1.0  0.58205  0.07604  0.05368000000000001  1.0000
  N   N24       1.0  0.04731  0.0712  0.05912  1.0000
  N   N25       1.0  0.83297  0.54195  0.75  1.0000
  N   N26       1.0  0.61265  0.48643000000000003  0.9621500000000001  1.0000
  N   N27       1.0  0.54731  0.44088  0.42879000000000006  1.0000
  N   N28       1.0  0.12523  0.9714400000000001  0.4545700000000001  1.0000
  N   N29       1.0  0.62523  0.04543  0.52855  1.0000
  N   N30       1.0  0.11264  0.53785  0.01357  1.0000
  N   N31       1.0  0.53463  0.53822  0.016050000000000002  1.0000
  N   N32       1.0  0.61265  0.013570000000000002  0.9621500000000001  1.0000
  N   N33       1.0  0.33297  0.7500000000000001  0.95805  1.0000
  N   N34       1.0  0.51466  0.9734  0.04519  1.0000
  N   N35       1.0  0.12523  0.52855  0.045430000000000005  1.0000
  N   N36       1.0  0.54731  0.059120000000000006  0.0712  1.0000
  N   N37       1.0  0.53463  0.9617700000000001  0.016050000000000002  1.0000
  N   N38       1.0  0.03464  0.01605  0.96177  1.0000
  N   N39       1.0  0.08205  0.44632  0.07604  1.0000
  N   N40       1.0  0.51466  0.5266  0.45481000000000005  1.0000
  N   N41       1.0  0.53463  0.53822  0.48395  1.0000
  N   N42       1.0  0.62523  0.45457  0.52855  1.0000
  N   N43       1.0  0.01467  0.45481  0.9734  1.0000
  N   N44       1.0  0.58205  0.42396000000000006  0.05368000000000001  1.0000
  N   N45       1.0  0.04731  0.42879  0.05912  1.0000
  N   N46       1.0  0.08205  0.05367000000000001  0.07603000000000001  1.0000
  N   N47       1.0  0.54731  0.059120000000000006  0.42880000000000007  1.0000
  N   N48       1.0  0.33297  0.7500000000000001  0.54195  1.0000
  N   N49       1.0  0.03463  0.01605  0.53822  1.0000
  N   N50       1.0  0.08205  0.05367000000000001  0.4239600000000001  1.0000
  N   N51       1.0  0.01466  0.04519  0.5266  1.0000
  N   N52       1.0  0.11264  0.9621500000000001  0.01357  1.0000
  N   N53       1.0  0.8747699999999998  0.02855  0.54543  1.0000
  N   N54       1.0  0.48534  0.4734  0.9548100000000002  1.0000
  N   N55       1.0  0.66703  0.25  0.45805  1.0000
  N   N56       1.0  0.95269  0.5712  0.94088  1.0000
  N   N57       1.0  0.45268999999999987  0.9408799999999999  0.5712  1.0000
  N   N58       1.0  0.16703  0.04195  0.25  1.0000
  N   N59       1.0  0.45268999999999987  0.55912  0.9288  1.0000
  N   N60       1.0  0.38735  0.51357  0.46215000000000006  1.0000
  N   N61       1.0  0.98533  0.54519  0.026600000000000002  1.0000
  N   N62       1.0  0.91795  0.55367  0.5760300000000002  1.0000
  N   N63       1.0  0.48534  0.026599999999999995  0.5451900000000001  1.0000
  N   N64       1.0  0.98533  0.95481  0.026600000000000002  1.0000
  N   N65       1.0  0.38735  0.9864300000000001  0.03785  1.0000
  N   N66       1.0  0.37476  0.95457  0.47144  1.0000
  N   N67       1.0  0.66703  0.25  0.041950000000000015  1.0000
  N   N68       1.0  0.37477  0.54542  0.47144  1.0000
  N   N69       1.0  0.37476  0.95457  0.028550000000000006  1.0000
  N   N70       1.0  0.88735  0.46215  0.9864300000000001  1.0000
  N   N71       1.0  0.95269  0.92879  0.55912  1.0000
  N   N72       1.0  0.96536  0.51605  0.03823000000000001  1.0000
  N   N73       1.0  0.96536  0.51605  0.46177000000000007  1.0000
  N   N74       1.0  0.41795  0.92396  0.94632  1.0000
  N   N75       1.0  0.9179399999999998  0.9463200000000002  0.9239600000000002  1.0000
  N   N76       1.0  0.37476  0.54542  0.028550000000000006  1.0000
  N   N77       1.0  0.91795  0.55367  0.9239600000000002  1.0000
  N   N78       1.0  0.4653699999999999  0.46177  0.5160500000000001  1.0000
  N   N79       1.0  0.95269  0.92879  0.94088  1.0000
  N   N80       1.0  0.45268999999999987  0.9408799999999999  0.9288  1.0000
  N   N81       1.0  0.38735  0.9864300000000001  0.46215000000000006  1.0000
  N   N82       1.0  0.4179399999999999  0.92396  0.55368  1.0000
  N   N83       1.0  0.88735  0.46215  0.51357  1.0000
  N   N84       1.0  0.95269  0.5712  0.55912  1.0000
  N   N85       1.0  0.4653699999999999  0.03822  0.5160500000000001  1.0000
  N   N86       1.0  0.8747699999999998  0.02855  0.9545700000000001  1.0000
  N   N87       1.0  0.87476  0.47144  0.54542  1.0000
  N   N88       1.0  0.98533  0.54519  0.4734  1.0000
  N   N89       1.0  0.4653699999999999  0.03822  0.98395  1.0000
  N   N90       1.0  0.41795  0.57603  0.94632  1.0000
  N   N91       1.0  0.48534  0.4734  0.5451900000000001  1.0000
  N   N92       1.0  0.96536  0.98395  0.03822000000000001  1.0000
  N   N93       1.0  0.88736  0.03785  0.9864300000000001  1.0000
  N   N94       1.0  0.16703  0.45805  0.25  1.0000
  N   N95       1.0  0.4653699999999999  0.46177  0.98395  1.0000
  N   N96       1.0  0.96536  0.98395  0.46177000000000007  1.0000
  N   N97       1.0  0.38735  0.51357  0.03785  1.0000
  N   N98       1.0  0.9179399999999998  0.9463200000000002  0.57604  1.0000
  N   N99       1.0  0.8747699999999998  0.47144  0.9545700000000001  1.0000
  N   N100      1.0  0.98533  0.95481  0.4734  1.0000
  N   N101      1.0  0.88735  0.03785  0.51357  1.0000
  N   N102      1.0  0.48534  0.026599999999999995  0.9548100000000002  1.0000
  N   N103      1.0  0.45268999999999987  0.55912  0.5712  1.0000
  N   N104      1.0  0.41795  0.57604  0.55368  1.0000
  O   O1        1.0  0.0332  0.21534000000000003  0.28464  1.0000
  O   O2        1.0  0.11461  0.28562  0.21541000000000002  1.0000
  O   O3        1.0  0.27858  0.7863  0.013930000000000001  1.0000
  O   O4        1.0  0.27405  0.71405  0.07076000000000002  1.0000
  O   O5        1.0  0.37178  0.71401  0.07711  1.0000
  O   O6        1.0  0.61462  0.21541999999999997  0.21432  1.0000
  O   O7        1.0  0.11461  0.28561  0.28459  1.0000
  O   O8        1.0  0.61461  0.28458  0.2856600000000001  1.0000
  O   O9        1.0  0.53319  0.28464  0.21535  1.0000
  O   O10       1.0  0.11462  0.21428  0.28457  1.0000
  O   O11       1.0  0.27405  0.78594  0.42924000000000007  1.0000
  O   O12       1.0  0.8762899999999998  0.47966  0.7151600000000001  1.0000
  O   O13       1.0  0.27405  0.78594  0.07076000000000002  1.0000
  O   O14       1.0  0.37628999999999996  0.78484  0.02034  1.0000
  O   O15       1.0  0.77405  0.42924000000000007  0.7859400000000002  1.0000
  O   O16       1.0  0.87179  0.42289000000000004  0.7859800000000001  1.0000
  O   O17       1.0  0.53319  0.21535999999999997  0.28465  1.0000
  O   O18       1.0  0.37178  0.78598  0.42289  1.0000
  O   O19       1.0  0.61462  0.28458  0.21431  1.0000
  O   O20       1.0  0.37178  0.78598  0.07711  1.0000
  O   O21       1.0  0.8762899999999998  0.02034  0.7151600000000001  1.0000
  O   O22       1.0  0.37628999999999996  0.71516  0.02034  1.0000
  O   O23       1.0  0.77858  0.48607  0.7863  1.0000
  O   O24       1.0  0.27858  0.7137  0.013930000000000001  1.0000
  O   O25       1.0  0.87179  0.07711  0.7140100000000003  1.0000
  O   O26       1.0  0.8762899999999998  0.47966  0.78484  1.0000
  O   O27       1.0  0.7785899999999998  0.01393  0.7863  1.0000
  O   O28       1.0  0.77858  0.48607  0.7137  1.0000
  O   O29       1.0  0.77405  0.07076  0.7140500000000001  1.0000
  O   O30       1.0  0.87179  0.07711  0.7859800000000001  1.0000
  O   O31       1.0  0.03319  0.28465  0.21536  1.0000
  O   O32       1.0  0.27858  0.7863  0.48607000000000006  1.0000
  O   O33       1.0  0.37178999999999995  0.71401  0.42289  1.0000
  O   O34       1.0  0.87179  0.42289000000000004  0.7140100000000003  1.0000
  O   O35       1.0  0.77405  0.07076  0.7859400000000002  1.0000
  O   O36       1.0  0.03319  0.28465  0.28463000000000005  1.0000
  O   O37       1.0  0.0332  0.21534000000000003  0.21536  1.0000
  O   O38       1.0  0.27858  0.7137  0.48607000000000006  1.0000
  O   O39       1.0  0.37628999999999996  0.78484  0.47966  1.0000
  O   O40       1.0  0.8762899999999998  0.02034  0.78484  1.0000
  O   O41       1.0  0.11462  0.21428  0.21542000000000003  1.0000
  O   O42       1.0  0.77405  0.42924000000000007  0.7140500000000001  1.0000
  O   O43       1.0  0.53319  0.28464  0.28465  1.0000
  O   O44       1.0  0.27405  0.71405  0.42924000000000007  1.0000
  O   O45       1.0  0.53319  0.21535999999999997  0.21535  1.0000
  O   O46       1.0  0.61461  0.21541999999999997  0.28567000000000004  1.0000
  O   O47       1.0  0.37628999999999996  0.71516  0.47966  1.0000
  O   O48       1.0  0.7785899999999998  0.01393  0.7137  1.0000
  O   O49       1.0  0.1237  0.9796600000000001  0.21516000000000002  1.0000
  O   O50       1.0  0.96681  0.78465  0.78464  1.0000
  O   O51       1.0  0.72141  0.2863  0.51393  1.0000
  O   O52       1.0  0.22595  0.9292399999999998  0.21406  1.0000
  O   O53       1.0  0.88538  0.7143  0.7845800000000003  1.0000
  O   O54       1.0  0.4668099999999999  0.78464  0.7153500000000003  1.0000
  O   O55       1.0  0.62371  0.21516000000000002  0.5203400000000001  1.0000
  O   O56       1.0  0.22141  0.9860700000000001  0.21370000000000006  1.0000
  O   O57       1.0  0.22595  0.9292399999999998  0.28594  1.0000
  O   O58       1.0  0.96681  0.78465  0.71536  1.0000
  O   O59       1.0  0.38538  0.71542  0.78568  1.0000
  O   O60       1.0  0.88538  0.78564  0.7154100000000001  1.0000
  O   O61       1.0  0.62821  0.21401  0.5771100000000001  1.0000
  O   O62       1.0  0.22141  0.9860700000000001  0.2863  1.0000
  O   O63       1.0  0.62821  0.28598  0.9228900000000001  1.0000
  O   O64       1.0  0.62371  0.28484  0.9796600000000001  1.0000
  O   O65       1.0  0.62371  0.21516000000000002  0.9796600000000001  1.0000
  O   O66       1.0  0.72141  0.21370000000000003  0.51393  1.0000
  O   O67       1.0  0.38538  0.78458  0.71434  1.0000
  O   O68       1.0  0.12821  0.92289  0.28598  1.0000
  O   O69       1.0  0.9668  0.7153400000000001  0.78464  1.0000
  O   O70       1.0  0.72141  0.2863  0.9860700000000001  1.0000
  O   O71       1.0  0.62371  0.28484  0.5203400000000001  1.0000
  O   O72       1.0  0.12821  0.57711  0.28598  1.0000
  O   O73       1.0  0.62821  0.21401  0.9228900000000001  1.0000
  O   O74       1.0  0.22141  0.51393  0.21370000000000006  1.0000
  O   O75       1.0  0.12371  0.52034  0.21516000000000002  1.0000
  O   O76       1.0  0.72595  0.21406  0.57076  1.0000
  O   O77       1.0  0.9668  0.7153400000000001  0.71536  1.0000
  O   O78       1.0  0.12821  0.92289  0.21402  1.0000
  O   O79       1.0  0.72595  0.28594  0.57076  1.0000
  O   O80       1.0  0.22595  0.57076  0.28594  1.0000
  O   O81       1.0  0.38538  0.71542  0.7143300000000001  1.0000
  O   O82       1.0  0.22141  0.51393  0.2863  1.0000
  O   O83       1.0  0.1237  0.9796600000000001  0.2848400000000001  1.0000
  O   O84       1.0  0.4668099999999999  0.71536  0.7153500000000003  1.0000
  O   O85       1.0  0.22595  0.57076  0.21406  1.0000
  O   O86       1.0  0.72595  0.28594  0.9292400000000001  1.0000
  O   O87       1.0  0.72595  0.21405  0.9292400000000001  1.0000
  O   O88       1.0  0.7214199999999998  0.21370000000000003  0.9860700000000001  1.0000
  O   O89       1.0  0.88538  0.7143  0.71542  1.0000
  O   O90       1.0  0.4668  0.78464  0.78465  1.0000
  O   O91       1.0  0.4668  0.71536  0.78465  1.0000
  O   O92       1.0  0.88538  0.78565  0.7845800000000003  1.0000
  O   O93       1.0  0.12371  0.52034  0.2848400000000001  1.0000
  O   O94       1.0  0.38538  0.78458  0.78568  1.0000
  O   O95       1.0  0.62821  0.28598  0.5771100000000001  1.0000
  O   O96       1.0  0.12821  0.57711  0.21402  1.0000
