data_image0
_chemical_formula_structural       Y24H432C576O96
_chemical_formula_sum              "Y24 H432 C576 O96"
_cell_length_a       35.17454
_cell_length_b       35.17554
_cell_length_c       35.17492
_cell_angle_alpha    59.97473999999999
_cell_angle_beta     59.97318000000001
_cell_angle_gamma    59.97324

_symmetry_space_group_name_H-M    'P 1'
_symmetry_Int_Tables_number       1

loop_
  _symmetry_equiv_pos_as_xyz
  'x,y,z'

loop_
  _atom_site_type_symbol
  _atom_site_label
  _atom_site_symmetry_multiplicity
  _atom_site_fract_x
  _atom_site_fract_y
  _atom_site_fract_z
  _atom_site_occupancy
  Y   Y1        1.0  0.47025  0.06134  0.52963  1.0000
  Y   Y2        1.0  0.93865  0.5297  0.06143  1.0000
  Y   Y3        1.0  0.5297499999999999  0.9386600000000002  0.47037  1.0000
  Y   Y4        1.0  0.06135999999999998  0.4703  0.93857  1.0000
  Y   Y5        1.0  0.061329999999999954  0.52964  0.47025  1.0000
  Y   Y6        1.0  0.5297200000000001  0.061430000000000005  0.93864  1.0000
  Y   Y7        1.0  0.93867  0.47036000000000006  0.52975  1.0000
  Y   Y8        1.0  0.4702899999999999  0.9385700000000002  0.06135  1.0000
  Y   Y9        1.0  0.5296199999999999  0.4702500000000001  0.06133  1.0000
  Y   Y10       1.0  0.061429999999999825  0.9386400000000004  0.5297  1.0000
  Y   Y11       1.0  0.4703799999999999  0.52975  0.93867  1.0000
  Y   Y12       1.0  0.9385700000000001  0.06135999999999999  0.47029  1.0000
  Y   Y13       1.0  0.5615  0.43842  0.97027  1.0000
  Y   Y14       1.0  0.02993999999999983  0.9703000000000005  0.4383999999999999  1.0000
  Y   Y15       1.0  0.4385  0.56158  0.02973  1.0000
  Y   Y16       1.0  0.97006  0.02970000000000001  0.5616  1.0000
  Y   Y17       1.0  0.5615599999999998  0.9700800000000003  0.029689999999999994  1.0000
  Y   Y18       1.0  0.029719999999999986  0.43854  0.5615599999999998  1.0000
  Y   Y19       1.0  0.43843999999999994  0.029919999999999995  0.97031  1.0000
  Y   Y20       1.0  0.9702800000000001  0.56146  0.43843  1.0000
  Y   Y21       1.0  0.56157  0.029730000000000003  0.43851  1.0000
  Y   Y22       1.0  0.02971000000000002  0.5616  0.9700599999999999  1.0000
  Y   Y23       1.0  0.4384300000000001  0.97027  0.5614799999999999  1.0000
  Y   Y24       1.0  0.97029  0.4384  0.02994  1.0000
  H   H1        1.0  0.33275  0.04665000000000003  0.54034  1.0000
  H   H2        1.0  0.23278000000000004  0.20521000000000003  0.55217  1.0000
  H   H3        1.0  0.29864  0.04048000000000006  0.4956099999999999  1.0000
  H   H4        1.0  0.2638000000000001  0.09724000000000003  0.4696999999999999  1.0000
  H   H5        1.0  0.24393000000000004  0.049450000000000015  0.49647999999999987  1.0000
  H   H6        1.0  0.22894999999999993  0.03837  0.61979  1.0000
  H   H7        1.0  0.27548000000000006  0.004350000000000006  0.58431  1.0000
  H   H8        1.0  0.21658000000000002  0.013299999999999998  0.59633  1.0000
  H   H9        1.0  0.31339  0.17324000000000012  0.54999  1.0000
  H   H10       1.0  0.08020999999999998  0.54044  0.04648  1.0000
  H   H11       1.0  0.009799999999999871  0.5521900000000002  0.20509  1.0000
  H   H12       1.0  0.16539999999999996  0.4955500000000001  0.04047  1.0000
  H   H13       1.0  0.16942000000000002  0.46982  0.09720999999999999  1.0000
  H   H14       1.0  0.21013999999999994  0.4968400000000001  0.04931  1.0000
  H   H15       1.0  0.11280999999999992  0.6199200000000002  0.03816  1.0000
  H   H16       1.0  0.13580999999999985  0.5843500000000003  0.00424  1.0000
  H   H17       1.0  0.17378000000000002  0.59637  0.013119999999999996  1.0000
  H   H18       1.0  0.9633499999999998  0.54999  0.17317  1.0000
  H   H19       1.0  0.54066  0.07988000000000006  0.33283  1.0000
  H   H20       1.0  0.5524  0.009340000000000005  0.23309  1.0000
  H   H21       1.0  0.49551  0.16497000000000006  0.2988099999999999  1.0000
  H   H22       1.0  0.46976  0.16881  0.26395  1.0000
  H   H23       1.0  0.49642999999999987  0.20982000000000003  0.244  1.0000
  H   H24       1.0  0.61976  0.11268000000000006  0.22909999999999994  1.0000
  H   H25       1.0  0.5843599999999999  0.1357  0.27557  1.0000
  H   H26       1.0  0.5962599999999999  0.17362000000000002  0.21666  1.0000
  H   H27       1.0  0.55006  0.96307  0.31365  1.0000
  H   H28       1.0  0.04665999999999992  0.3329400000000002  0.08000999999999997  1.0000
  H   H29       1.0  0.20527999999999996  0.23290000000000005  0.009669999999999996  1.0000
  H   H30       1.0  0.040629999999999944  0.2988000000000001  0.16504  1.0000
  H   H31       1.0  0.09725000000000003  0.26377  0.16925  1.0000
  H   H32       1.0  0.04935000000000003  0.24404000000000003  0.20995999999999995  1.0000
  H   H33       1.0  0.038220000000000004  0.22922  0.11272  1.0000
  H   H34       1.0  0.004370000000000013  0.27576  0.13561  1.0000
  H   H35       1.0  0.013169999999999913  0.21690000000000012  0.17363  1.0000
  H   H36       1.0  0.1734199999999999  0.3135500000000002  0.96321  1.0000
  H   H37       1.0  0.04665000000000005  0.54031  0.33279  1.0000
  H   H38       1.0  0.2051999999999998  0.5521900000000002  0.23277  1.0000
  H   H39       1.0  0.040499999999999994  0.4956200000000001  0.29864999999999997  1.0000
  H   H40       1.0  0.09723000000000005  0.46972  0.26382  1.0000
  H   H41       1.0  0.04945999999999989  0.49648000000000014  0.24396  1.0000
  H   H42       1.0  0.038359999999999915  0.6198000000000001  0.22895999999999997  1.0000
  H   H43       1.0  0.004340000000000011  0.58432  0.27549  1.0000
  H   H44       1.0  0.01329999999999996  0.59633  0.2166  1.0000
  H   H45       1.0  0.17325000000000004  0.55  0.3134  1.0000
  H   H46       1.0  0.54043  0.046459999999999994  0.08023  1.0000
  H   H47       1.0  0.5522  0.20509  0.009809999999999996  1.0000
  H   H48       1.0  0.49556  0.040480000000000044  0.16537999999999994  1.0000
  H   H49       1.0  0.4698300000000001  0.09719000000000001  0.16941  1.0000
  H   H50       1.0  0.49682  0.04931  0.21014  1.0000
  H   H51       1.0  0.6199099999999997  0.03817000000000002  0.11279  1.0000
  H   H52       1.0  0.58436  0.004239999999999998  0.1358  1.0000
  H   H53       1.0  0.59638  0.013119999999999996  0.17377  1.0000
  H   H54       1.0  0.5500099999999999  0.17317999999999997  0.96332  1.0000
  H   H55       1.0  0.07986999999999998  0.33286  0.54065  1.0000
  H   H56       1.0  0.009339999999999968  0.23309  0.55241  1.0000
  H   H57       1.0  0.16497999999999993  0.2988000000000001  0.49551  1.0000
  H   H58       1.0  0.16883000000000004  0.26395  0.4697399999999999  1.0000
  H   H59       1.0  0.20982  0.2439900000000001  0.49642999999999987  1.0000
  H   H60       1.0  0.11267  0.2291  0.61977  1.0000
  H   H61       1.0  0.13569999999999993  0.2755700000000002  0.58437  1.0000
  H   H62       1.0  0.17362000000000005  0.21666000000000002  0.59626  1.0000
  H   H63       1.0  0.9630600000000001  0.3136600000000001  0.55005  1.0000
  H   H64       1.0  0.33297  0.07999  0.04665  1.0000
  H   H65       1.0  0.23288  0.009679999999999998  0.20529  1.0000
  H   H66       1.0  0.29881  0.16501000000000005  0.04064  1.0000
  H   H67       1.0  0.26377  0.16924000000000003  0.09725999999999997  1.0000
  H   H68       1.0  0.24405  0.20995000000000005  0.04935  1.0000
  H   H69       1.0  0.22922  0.11271  0.03822  1.0000
  H   H70       1.0  0.27577999999999997  0.13559000000000004  0.00436  1.0000
  H   H71       1.0  0.21691  0.17362000000000005  0.013159999999999998  1.0000
  H   H72       1.0  0.3135299999999998  0.9631900000000002  0.17342999999999995  1.0000
  H   H73       1.0  0.54031  0.33276  0.04665  1.0000
  H   H74       1.0  0.5521899999999998  0.23276000000000008  0.20521999999999996  1.0000
  H   H75       1.0  0.4956399999999999  0.2986600000000001  0.04049  1.0000
  H   H76       1.0  0.46972  0.26383  0.09722999999999998  1.0000
  H   H77       1.0  0.49645999999999996  0.24397000000000005  0.04947  1.0000
  H   H78       1.0  0.6197799999999999  0.22896000000000002  0.03836  1.0000
  H   H79       1.0  0.58429  0.27548  0.00434  1.0000
  H   H80       1.0  0.59634  0.21659000000000006  0.01329  1.0000
  H   H81       1.0  0.55  0.31339  0.17325  1.0000
  H   H82       1.0  0.04645999999999995  0.08024000000000002  0.54041  1.0000
  H   H83       1.0  0.20506999999999997  0.009810000000000001  0.55221  1.0000
  H   H84       1.0  0.04046000000000002  0.16538000000000005  0.4955699999999999  1.0000
  H   H85       1.0  0.09716999999999999  0.16941  0.46984  1.0000
  H   H86       1.0  0.04931000000000003  0.21013000000000004  0.49680999999999986  1.0000
  H   H87       1.0  0.03812  0.11283000000000003  0.61992  1.0000
  H   H88       1.0  0.004220000000000046  0.13583999999999996  0.58434  1.0000
  H   H89       1.0  0.013100000000000096  0.17379000000000006  0.5963799999999998  1.0000
  H   H90       1.0  0.1731699999999998  0.9633300000000004  0.55  1.0000
  H   H91       1.0  0.3328400000000001  0.54064  0.07989  1.0000
  H   H92       1.0  0.23311000000000004  0.55239  0.00934  1.0000
  H   H93       1.0  0.29880000000000007  0.49551999999999996  0.16498999999999994  1.0000
  H   H94       1.0  0.2639599999999999  0.46974000000000005  0.16882999999999995  1.0000
  H   H95       1.0  0.24399000000000012  0.49641  0.20983999999999994  1.0000
  H   H96       1.0  0.22909000000000002  0.61976  0.11269999999999997  1.0000
  H   H97       1.0  0.2755499999999999  0.5843600000000002  0.13574  1.0000
  H   H98       1.0  0.21665  0.59626  0.17364  1.0000
  H   H99       1.0  0.31365999999999983  0.55006  0.96307  1.0000
  H   H100      1.0  0.07999000000000002  0.04666  0.33296  1.0000
  H   H101      1.0  0.009659999999999998  0.20531  0.23289  1.0000
  H   H102      1.0  0.16501999999999997  0.04061  0.29882  1.0000
  H   H103      1.0  0.16926  0.09724  0.26379  1.0000
  H   H104      1.0  0.20995  0.049350000000000005  0.24406  1.0000
  H   H105      1.0  0.11273000000000004  0.03822  0.22923  1.0000
  H   H106      1.0  0.13562999999999995  0.0043700000000000015  0.27578  1.0000
  H   H107      1.0  0.17362  0.013159999999999996  0.21691  1.0000
  H   H108      1.0  0.9632100000000001  0.17340000000000003  0.31354  1.0000
  H   H109      1.0  0.41964  0.4535600000000001  0.95964  1.0000
  H   H110      1.0  0.49019999999999997  0.29493000000000014  0.9478299999999998  1.0000
  H   H111      1.0  0.33464  0.4595400000000001  0.00441  1.0000
  H   H112      1.0  0.33059  0.4028100000000001  0.03019  1.0000
  H   H113      1.0  0.28983999999999993  0.45071  0.00321  1.0000
  H   H114      1.0  0.3871700000000001  0.4618500000000001  0.8800799999999998  1.0000
  H   H115      1.0  0.36418000000000017  0.4957400000000001  0.9156799999999999  1.0000
  H   H116      1.0  0.32620000000000005  0.48691000000000006  0.90364  1.0000
  H   H117      1.0  0.53659  0.3269100000000002  0.95007  1.0000
  H   H118      1.0  0.16728999999999983  0.9597500000000002  0.4533899999999999  1.0000
  H   H119      1.0  0.2672499999999999  0.9478200000000003  0.2948199999999999  1.0000
  H   H120      1.0  0.20138000000000003  0.004360000000000033  0.4595599999999999  1.0000
  H   H121      1.0  0.2361900000000001  0.030320000000000038  0.4027999999999999  1.0000
  H   H122      1.0  0.25606000000000007  0.0035600000000000414  0.4505999999999999  1.0000
  H   H123      1.0  0.27108999999999994  0.88022  0.46164  1.0000
  H   H124      1.0  0.2245600000000001  0.9157099999999999  0.4956599999999999  1.0000
  H   H125      1.0  0.28343999999999986  0.9036700000000004  0.48673  1.0000
  H   H126      1.0  0.18659000000000003  0.95008  0.32683  1.0000
  H   H127      1.0  0.4534000000000001  0.41987  0.16711  1.0000
  H   H128      1.0  0.29473  0.49030000000000007  0.26704  1.0000
  H   H129      1.0  0.45937999999999996  0.33495  0.20122  1.0000
  H   H130      1.0  0.40276999999999996  0.3307  0.23622999999999997  1.0000
  H   H131      1.0  0.4506899999999999  0.28999  0.25595  1.0000
  H   H132      1.0  0.46177  0.38726  0.27081  1.0000
  H   H133      1.0  0.4955999999999998  0.36437000000000014  0.22426  1.0000
  H   H134      1.0  0.48684999999999995  0.32635000000000003  0.28311  1.0000
  H   H135      1.0  0.3267  0.5367400000000001  0.18646999999999994  1.0000
  H   H136      1.0  0.9592799999999999  0.16730000000000003  0.41995  1.0000
  H   H137      1.0  0.9477100000000002  0.26684  0.49064  1.0000
  H   H138      1.0  0.004450000000000036  0.20123999999999997  0.33502  1.0000
  H   H139      1.0  0.030279999999999987  0.23605000000000012  0.33112999999999987  1.0000
  H   H140      1.0  0.003589999999999964  0.25602000000000014  0.29012  1.0000
  H   H141      1.0  0.8802499999999999  0.2709400000000001  0.3873  1.0000
  H   H142      1.0  0.9156799999999999  0.22448000000000004  0.36426999999999987  1.0000
  H   H143      1.0  0.9037200000000001  0.28338  0.32635  1.0000
  H   H144      1.0  0.94973  0.18639  0.53693  1.0000
  H   H145      1.0  0.41995999999999994  0.9593  0.16726  1.0000
  H   H146      1.0  0.4906499999999999  0.9476900000000003  0.26683  1.0000
  H   H147      1.0  0.33501  0.004450000000000001  0.20124  1.0000
  H   H148      1.0  0.33110999999999996  0.030299999999999997  0.23605  1.0000
  H   H149      1.0  0.29013  0.003579999999999994  0.25603  1.0000
  H   H150      1.0  0.38730999999999977  0.8802400000000002  0.27095  1.0000
  H   H151      1.0  0.3642699999999999  0.9156700000000002  0.22447999999999996  1.0000
  H   H152      1.0  0.3263599999999999  0.9037300000000003  0.28338  1.0000
  H   H153      1.0  0.5369399999999999  0.9497200000000002  0.18636  1.0000
  H   H154      1.0  0.16708000000000003  0.45342  0.41986  1.0000
  H   H155      1.0  0.26703999999999994  0.2947300000000001  0.49031  1.0000
  H   H156      1.0  0.20121000000000017  0.45938  0.33496  1.0000
  H   H157      1.0  0.23623000000000002  0.40277000000000013  0.33071  1.0000
  H   H158      1.0  0.25594999999999984  0.4506900000000002  0.28999  1.0000
  H   H159      1.0  0.27081000000000005  0.46176  0.3872699999999999  1.0000
  H   H160      1.0  0.22425  0.4956200000000001  0.36438  1.0000
  H   H161      1.0  0.2831  0.48686000000000007  0.32635  1.0000
  H   H162      1.0  0.18642999999999993  0.3267000000000002  0.53674  1.0000
  H   H163      1.0  0.4534000000000002  0.1672500000000001  0.9597599999999997  1.0000
  H   H164      1.0  0.2948200000000001  0.26726  0.94782  1.0000
  H   H165      1.0  0.45955  0.20138  0.00435  1.0000
  H   H166      1.0  0.40281  0.23617000000000005  0.0303  1.0000
  H   H167      1.0  0.45057999999999987  0.2560400000000001  0.00356  1.0000
  H   H168      1.0  0.46164999999999995  0.27108  0.8802  1.0000
  H   H169      1.0  0.49567999999999995  0.2245500000000001  0.9156899999999998  1.0000
  H   H170      1.0  0.48673999999999995  0.28343  0.90365  1.0000
  H   H171      1.0  0.3268  0.18656000000000003  0.95014  1.0000
  H   H172      1.0  0.9596599999999998  0.41962  0.45358  1.0000
  H   H173      1.0  0.9478399999999999  0.49018  0.29492  1.0000
  H   H174      1.0  0.004399999999999963  0.33466000000000007  0.45953  1.0000
  H   H175      1.0  0.030180000000000016  0.3306  0.40282  1.0000
  H   H176      1.0  0.0032299999999999282  0.28984000000000004  0.45071  1.0000
  H   H177      1.0  0.8800900000000001  0.3871800000000001  0.46184  1.0000
  H   H178      1.0  0.91566  0.3642000000000001  0.49574999999999997  1.0000
  H   H179      1.0  0.9036299999999999  0.32621000000000017  0.4869099999999999  1.0000
  H   H180      1.0  0.9500800000000001  0.53661  0.32689  1.0000
  H   H181      1.0  0.4198699999999999  0.16710000000000014  0.4533899999999999  1.0000
  H   H182      1.0  0.49031  0.2670600000000001  0.29472  1.0000
  H   H183      1.0  0.33497  0.20121000000000008  0.4593899999999999  1.0000
  H   H184      1.0  0.33071000000000006  0.23621999999999999  0.40277  1.0000
  H   H185      1.0  0.29  0.2559500000000001  0.4506799999999999  1.0000
  H   H186      1.0  0.38725  0.27081000000000005  0.4617799999999999  1.0000
  H   H187      1.0  0.3643499999999999  0.22425000000000012  0.4956  1.0000
  H   H188      1.0  0.32635  0.28311  0.48686  1.0000
  H   H189      1.0  0.5367200000000001  0.18644999999999998  0.32668  1.0000
  H   H190      1.0  0.16728000000000015  0.41995  0.9592999999999999  1.0000
  H   H191      1.0  0.26684  0.49064  0.9476999999999998  1.0000
  H   H192      1.0  0.20123999999999995  0.3350100000000001  0.00444  1.0000
  H   H193      1.0  0.23605  0.33111  0.03029  1.0000
  H   H194      1.0  0.25601999999999997  0.2901200000000001  0.0036  1.0000
  H   H195      1.0  0.2709600000000001  0.38728000000000007  0.88025  1.0000
  H   H196      1.0  0.22449000000000008  0.3642400000000001  0.9156799999999999  1.0000
  H   H197      1.0  0.2833899999999999  0.32634  0.90372  1.0000
  H   H198      1.0  0.18639000000000003  0.53693  0.94973  1.0000
  H   H199      1.0  0.4535799999999998  0.9596400000000002  0.41962  1.0000
  H   H200      1.0  0.2949399999999999  0.9478200000000003  0.4901999999999999  1.0000
  H   H201      1.0  0.45955  0.0043900000000000414  0.3346599999999999  1.0000
  H   H202      1.0  0.4028400000000001  0.030180000000000047  0.3305899999999999  1.0000
  H   H203      1.0  0.45071  0.0032299999999999885  0.28984  1.0000
  H   H204      1.0  0.46188000000000007  0.8800900000000003  0.38714  1.0000
  H   H205      1.0  0.49576000000000003  0.9156800000000003  0.36414999999999986  1.0000
  H   H206      1.0  0.48692  0.9036399999999999  0.32619  1.0000
  H   H207      1.0  0.3269199999999997  0.9500200000000002  0.53662  1.0000
  H   H208      1.0  0.9597599999999997  0.4533800000000001  0.16726999999999995  1.0000
  H   H209      1.0  0.94781  0.2948  0.26727  1.0000
  H   H210      1.0  0.0043399999999998605  0.45955000000000024  0.20135999999999996  1.0000
  H   H211      1.0  0.030299999999999994  0.4028000000000001  0.23617  1.0000
  H   H212      1.0  0.003579999999999871  0.4505800000000002  0.25603  1.0000
  H   H213      1.0  0.8802299999999997  0.4616500000000001  0.27107  1.0000
  H   H214      1.0  0.91572  0.49566  0.22455  1.0000
  H   H215      1.0  0.9036599999999999  0.48673  0.28343  1.0000
  H   H216      1.0  0.9500700000000001  0.32682  0.18659  1.0000
  H   H217      1.0  0.6672499999999998  0.9533500000000005  0.45966  1.0000
  H   H218      1.0  0.7672199999999999  0.7947900000000002  0.44783  1.0000
  H   H219      1.0  0.7013599999999994  0.9595300000000004  0.50439  1.0000
  H   H220      1.0  0.7361999999999996  0.9027600000000005  0.5303  1.0000
  H   H221      1.0  0.75607  0.9505500000000001  0.50352  1.0000
  H   H222      1.0  0.7710599999999999  0.9616300000000002  0.3802099999999999  1.0000
  H   H223      1.0  0.72453  0.9956600000000002  0.4156899999999999  1.0000
  H   H224      1.0  0.78342  0.9867000000000001  0.40367  1.0000
  H   H225      1.0  0.6866199999999997  0.8267600000000002  0.45001  1.0000
  H   H226      1.0  0.9197999999999998  0.45957000000000015  0.9535199999999998  1.0000
  H   H227      1.0  0.9901999999999999  0.44781000000000004  0.79491  1.0000
  H   H228      1.0  0.83461  0.50445  0.95953  1.0000
  H   H229      1.0  0.83058  0.53018  0.90279  1.0000
  H   H230      1.0  0.78987  0.5031600000000002  0.9506899999999998  1.0000
  H   H231      1.0  0.8871999999999999  0.38008000000000003  0.9618399999999999  1.0000
  H   H232      1.0  0.8641900000000001  0.4156500000000001  0.9957599999999999  1.0000
  H   H233      1.0  0.8262199999999998  0.40363000000000016  0.9868799999999998  1.0000
  H   H234      1.0  0.03666000000000006  0.4500100000000001  0.8268299999999997  1.0000
  H   H235      1.0  0.4593400000000001  0.9201199999999999  0.66717  1.0000
  H   H236      1.0  0.44759999999999983  0.9906600000000004  0.76691  1.0000
  H   H237      1.0  0.50449  0.83503  0.70119  1.0000
  H   H238      1.0  0.5302499999999999  0.8311900000000003  0.7360499999999998  1.0000
  H   H239      1.0  0.50358  0.7901800000000002  0.756  1.0000
  H   H240      1.0  0.3802400000000001  0.88732  0.7709  1.0000
  H   H241      1.0  0.4156399999999999  0.8643000000000001  0.72443  1.0000
  H   H242      1.0  0.40374  0.8263800000000004  0.7833399999999998  1.0000
  H   H243      1.0  0.44995  0.036929999999999984  0.68635  1.0000
  H   H244      1.0  0.95335  0.6670600000000001  0.9199899999999999  1.0000
  H   H245      1.0  0.7947199999999998  0.7671000000000003  0.99033  1.0000
  H   H246      1.0  0.95938  0.7012000000000003  0.83496  1.0000
  H   H247      1.0  0.9027500000000002  0.7362300000000002  0.83075  1.0000
  H   H248      1.0  0.9506599999999995  0.7559600000000002  0.79004  1.0000
  H   H249      1.0  0.9617899999999996  0.7707900000000003  0.88728  1.0000
  H   H250      1.0  0.99563  0.72424  0.86438  1.0000
  H   H251      1.0  0.9868399999999999  0.7831  0.82637  1.0000
  H   H252      1.0  0.8265899999999999  0.6864600000000002  0.03678  1.0000
  H   H253      1.0  0.9533600000000001  0.45969999999999994  0.66721  1.0000
  H   H254      1.0  0.7947999999999998  0.44781000000000004  0.76723  1.0000
  H   H255      1.0  0.9595100000000001  0.50438  0.70135  1.0000
  H   H256      1.0  0.9027699999999999  0.5302800000000003  0.7361799999999997  1.0000
  H   H257      1.0  0.9505399999999999  0.5035200000000002  0.75604  1.0000
  H   H258      1.0  0.96164  0.3802  0.77104  1.0000
  H   H259      1.0  0.9956699999999999  0.41568  0.72451  1.0000
  H   H260      1.0  0.9866999999999999  0.40367000000000014  0.7834  1.0000
  H   H261      1.0  0.82675  0.4500000000000001  0.6866  1.0000
  H   H262      1.0  0.4595799999999999  0.9535400000000002  0.91977  1.0000
  H   H263      1.0  0.4478100000000001  0.79491  0.9901799999999998  1.0000
  H   H264      1.0  0.5044499999999996  0.95952  0.83462  1.0000
  H   H265      1.0  0.5301700000000001  0.9028100000000001  0.83059  1.0000
  H   H266      1.0  0.5031799999999997  0.9506900000000004  0.78986  1.0000
  H   H267      1.0  0.3800900000000001  0.96183  0.8872099999999998  1.0000
  H   H268      1.0  0.4156399999999999  0.9957600000000004  0.8642  1.0000
  H   H269      1.0  0.40362  0.98688  0.82623  1.0000
  H   H270      1.0  0.4499899999999999  0.8268200000000002  0.03668  1.0000
  H   H271      1.0  0.9201399999999998  0.6671400000000002  0.45934999999999987  1.0000
  H   H272      1.0  0.9906599999999999  0.7669100000000002  0.44759  1.0000
  H   H273      1.0  0.8350299999999999  0.7012000000000002  0.50449  1.0000
  H   H274      1.0  0.8311799999999999  0.7360500000000002  0.53026  1.0000
  H   H275      1.0  0.79019  0.7560100000000002  0.50356  1.0000
  H   H276      1.0  0.8873299999999998  0.7709  0.38023  1.0000
  H   H277      1.0  0.8643  0.7244300000000002  0.41563  1.0000
  H   H278      1.0  0.8263799999999998  0.7833400000000005  0.4037399999999999  1.0000
  H   H279      1.0  0.03693999999999991  0.6863400000000004  0.4499499999999999  1.0000
  H   H280      1.0  0.6670399999999997  0.92002  0.95335  1.0000
  H   H281      1.0  0.76713  0.99033  0.7947  1.0000
  H   H282      1.0  0.7011899999999998  0.8349900000000003  0.9593599999999998  1.0000
  H   H283      1.0  0.7362299999999999  0.83076  0.90274  1.0000
  H   H284      1.0  0.7559499999999996  0.7900500000000004  0.95065  1.0000
  H   H285      1.0  0.7707899999999998  0.8872900000000001  0.96178  1.0000
  H   H286      1.0  0.7242299999999999  0.8644100000000003  0.99564  1.0000
  H   H287      1.0  0.7830899999999996  0.8263800000000003  0.98684  1.0000
  H   H288      1.0  0.6864700000000002  0.03681000000000009  0.8265699999999998  1.0000
  H   H289      1.0  0.45969  0.66724  0.95334  1.0000
  H   H290      1.0  0.4478099999999998  0.7672400000000001  0.79477  1.0000
  H   H291      1.0  0.5043599999999999  0.7013400000000004  0.95951  1.0000
  H   H292      1.0  0.5302800000000001  0.73618  0.90277  1.0000
  H   H293      1.0  0.50354  0.7560300000000002  0.9505299999999998  1.0000
  H   H294      1.0  0.38021999999999995  0.7710500000000001  0.96164  1.0000
  H   H295      1.0  0.41572000000000014  0.7245199999999999  0.99565  1.0000
  H   H296      1.0  0.40366  0.7834099999999999  0.98671  1.0000
  H   H297      1.0  0.45001  0.6866100000000005  0.8267499999999998  1.0000
  H   H298      1.0  0.9535400000000002  0.9197600000000001  0.4595899999999999  1.0000
  H   H299      1.0  0.79494  0.99019  0.44779  1.0000
  H   H300      1.0  0.9595399999999997  0.8346300000000003  0.50442  1.0000
  H   H301      1.0  0.9028299999999999  0.83059  0.53016  1.0000
  H   H302      1.0  0.9506900000000001  0.78987  0.50318  1.0000
  H   H303      1.0  0.9618800000000001  0.8871700000000001  0.38007  1.0000
  H   H304      1.0  0.99578  0.8641600000000002  0.4156499999999999  1.0000
  H   H305      1.0  0.9869000000000003  0.8262200000000001  0.40361999999999987  1.0000
  H   H306      1.0  0.82684  0.036680000000000004  0.45  1.0000
  H   H307      1.0  0.6671600000000001  0.45936  0.92011  1.0000
  H   H308      1.0  0.7669000000000001  0.44761  0.99065  1.0000
  H   H309      1.0  0.7011999999999999  0.5044900000000002  0.83501  1.0000
  H   H310      1.0  0.73604  0.53026  0.8311699999999997  1.0000
  H   H311      1.0  0.7560099999999998  0.50359  0.7901599999999999  1.0000
  H   H312      1.0  0.7709100000000001  0.3802400000000002  0.8872899999999998  1.0000
  H   H313      1.0  0.7244500000000001  0.4156500000000001  0.8642599999999999  1.0000
  H   H314      1.0  0.7833499999999999  0.4037400000000002  0.82636  1.0000
  H   H315      1.0  0.68634  0.44994  0.03692999999999999  1.0000
  H   H316      1.0  0.92001  0.95334  0.66704  1.0000
  H   H317      1.0  0.99034  0.7947  0.7671  1.0000
  H   H318      1.0  0.8349800000000002  0.95939  0.70118  1.0000
  H   H319      1.0  0.83075  0.9027600000000003  0.73621  1.0000
  H   H320      1.0  0.7900500000000001  0.95065  0.75594  1.0000
  H   H321      1.0  0.8872800000000001  0.9617800000000004  0.77077  1.0000
  H   H322      1.0  0.8643799999999999  0.9956300000000001  0.72422  1.0000
  H   H323      1.0  0.8263799999999999  0.9868400000000004  0.78309  1.0000
  H   H324      1.0  0.03679999999999992  0.8266000000000001  0.68646  1.0000
  H   H325      1.0  0.5803600000000001  0.54644  0.04035999999999999  1.0000
  H   H326      1.0  0.5098100000000001  0.70507  0.05217  1.0000
  H   H327      1.0  0.66536  0.54046  0.99559  1.0000
  H   H328      1.0  0.6694199999999999  0.5971900000000002  0.9697999999999998  1.0000
  H   H329      1.0  0.7101700000000002  0.54929  0.99678  1.0000
  H   H330      1.0  0.6128400000000002  0.53815  0.11990999999999997  1.0000
  H   H331      1.0  0.6358200000000004  0.50426  0.08432  1.0000
  H   H332      1.0  0.6738  0.5130900000000003  0.09636  1.0000
  H   H333      1.0  0.46341000000000004  0.6730900000000002  0.04993  1.0000
  H   H334      1.0  0.83272  0.04024999999999999  0.54661  1.0000
  H   H335      1.0  0.73275  0.052180000000000074  0.7051699999999997  1.0000
  H   H336      1.0  0.7986199999999999  0.9956400000000002  0.54043  1.0000
  H   H337      1.0  0.76382  0.9696800000000001  0.5971999999999997  1.0000
  H   H338      1.0  0.7439400000000002  0.99644  0.5494  1.0000
  H   H339      1.0  0.7289199999999999  0.11978000000000003  0.53836  1.0000
  H   H340      1.0  0.7754499999999996  0.08429000000000006  0.50434  1.0000
  H   H341      1.0  0.71656  0.09633  0.51327  1.0000
  H   H342      1.0  0.81341  0.049919999999999985  0.67316  1.0000
  H   H343      1.0  0.5466  0.58013  0.83289  1.0000
  H   H344      1.0  0.7052699999999998  0.5097000000000002  0.7329499999999999  1.0000
  H   H345      1.0  0.5406199999999999  0.6650500000000004  0.7987799999999998  1.0000
  H   H346      1.0  0.59723  0.6693000000000002  0.76377  1.0000
  H   H347      1.0  0.54932  0.71001  0.74404  1.0000
  H   H348      1.0  0.5382399999999999  0.6127400000000002  0.72919  1.0000
  H   H349      1.0  0.5044099999999999  0.6356300000000003  0.77574  1.0000
  H   H350      1.0  0.51315  0.6736500000000002  0.7168799999999997  1.0000
  H   H351      1.0  0.6733100000000001  0.46326000000000006  0.8135299999999999  1.0000
  H   H352      1.0  0.04072000000000002  0.8327  0.58005  1.0000
  H   H353      1.0  0.05230000000000006  0.7331599999999999  0.50936  1.0000
  H   H354      1.0  0.99555  0.7987600000000002  0.6649799999999999  1.0000
  H   H355      1.0  0.9697199999999999  0.7639500000000002  0.66886  1.0000
  H   H356      1.0  0.9964100000000002  0.74399  0.7098699999999999  1.0000
  H   H357      1.0  0.11974999999999994  0.72906  0.6127  1.0000
  H   H358      1.0  0.08433000000000007  0.77552  0.63573  1.0000
  H   H359      1.0  0.09628999999999985  0.7166200000000001  0.67365  1.0000
  H   H360      1.0  0.05028000000000003  0.81361  0.46307  1.0000
  H   H361      1.0  0.5800499999999996  0.040700000000000076  0.8327299999999997  1.0000
  H   H362      1.0  0.5093500000000001  0.052310000000000016  0.73317  1.0000
  H   H363      1.0  0.6649899999999999  0.9955500000000004  0.79876  1.0000
  H   H364      1.0  0.6688900000000002  0.96971  0.7639399999999997  1.0000
  H   H365      1.0  0.70987  0.99642  0.74397  1.0000
  H   H366      1.0  0.6127  0.11976000000000009  0.7290399999999998  1.0000
  H   H367      1.0  0.6357300000000001  0.08433000000000007  0.7755199999999998  1.0000
  H   H368      1.0  0.6736500000000002  0.09628000000000002  0.71662  1.0000
  H   H369      1.0  0.46305999999999997  0.05028000000000009  0.8136399999999998  1.0000
  H   H370      1.0  0.8329199999999999  0.5465799999999998  0.58013  1.0000
  H   H371      1.0  0.73296  0.70527  0.50969  1.0000
  H   H372      1.0  0.7987899999999999  0.5406200000000002  0.66503  1.0000
  H   H373      1.0  0.7637800000000002  0.59724  0.6692899999999998  1.0000
  H   H374      1.0  0.74405  0.54931  0.71  1.0000
  H   H375      1.0  0.7291999999999998  0.5382400000000003  0.61273  1.0000
  H   H376      1.0  0.7757600000000002  0.50439  0.63562  1.0000
  H   H377      1.0  0.7168999999999998  0.5131400000000003  0.67365  1.0000
  H   H378      1.0  0.81357  0.6733000000000001  0.46325999999999995  1.0000
  H   H379      1.0  0.5465999999999999  0.8327500000000002  0.04024  1.0000
  H   H380      1.0  0.7051800000000001  0.73274  0.05217  1.0000
  H   H381      1.0  0.54046  0.7986200000000001  0.99565  1.0000
  H   H382      1.0  0.5972  0.7638300000000005  0.9696999999999998  1.0000
  H   H383      1.0  0.5494199999999997  0.7439600000000004  0.99644  1.0000
  H   H384      1.0  0.5383500000000001  0.72892  0.1198  1.0000
  H   H385      1.0  0.50432  0.77545  0.08431  1.0000
  H   H386      1.0  0.51327  0.71657  0.09634  1.0000
  H   H387      1.0  0.67321  0.8134400000000002  0.04986  1.0000
  H   H388      1.0  0.040349999999999865  0.5803800000000002  0.54642  1.0000
  H   H389      1.0  0.052170000000000015  0.50982  0.70508  1.0000
  H   H390      1.0  0.9955999999999997  0.6653400000000003  0.54047  1.0000
  H   H391      1.0  0.9698200000000001  0.6694000000000001  0.59718  1.0000
  H   H392      1.0  0.9967700000000002  0.71016  0.54929  1.0000
  H   H393      1.0  0.11990999999999986  0.6128200000000003  0.53816  1.0000
  H   H394      1.0  0.08434000000000005  0.6358  0.50425  1.0000
  H   H395      1.0  0.09636999999999989  0.6737900000000001  0.51309  1.0000
  H   H396      1.0  0.049930000000000065  0.4633999999999999  0.67311  1.0000
  H   H397      1.0  0.5801399999999999  0.83291  0.54661  1.0000
  H   H398      1.0  0.50969  0.7329400000000003  0.70528  1.0000
  H   H399      1.0  0.66503  0.79879  0.5406  1.0000
  H   H400      1.0  0.6692999999999999  0.76378  0.59723  1.0000
  H   H401      1.0  0.71  0.74405  0.54932  1.0000
  H   H402      1.0  0.61276  0.7292  0.53822  1.0000
  H   H403      1.0  0.6356499999999998  0.7757500000000003  0.50439  1.0000
  H   H404      1.0  0.6736499999999999  0.7168900000000002  0.51314  1.0000
  H   H405      1.0  0.4632799999999998  0.8135500000000002  0.67332  1.0000
  H   H406      1.0  0.8327200000000001  0.58005  0.0407  1.0000
  H   H407      1.0  0.73317  0.50937  0.052299999999999985  1.0000
  H   H408      1.0  0.7987599999999999  0.6649900000000003  0.9955499999999998  1.0000
  H   H409      1.0  0.7639600000000001  0.6688900000000003  0.96971  1.0000
  H   H410      1.0  0.7439799999999999  0.70988  0.9963999999999997  1.0000
  H   H411      1.0  0.72905  0.6127200000000002  0.11975  1.0000
  H   H412      1.0  0.7755099999999999  0.6357600000000002  0.08432  1.0000
  H   H413      1.0  0.71662  0.67366  0.09628  1.0000
  H   H414      1.0  0.81362  0.4630700000000001  0.05027  1.0000
  H   H415      1.0  0.54642  0.04036000000000002  0.58037  1.0000
  H   H416      1.0  0.7050600000000002  0.05217999999999998  0.5098  1.0000
  H   H417      1.0  0.5404499999999998  0.9956200000000004  0.66534  1.0000
  H   H418      1.0  0.5971599999999999  0.9698200000000001  0.66941  1.0000
  H   H419      1.0  0.5492999999999999  0.99677  0.71015  1.0000
  H   H420      1.0  0.53813  0.11992  0.61286  1.0000
  H   H421      1.0  0.5042400000000001  0.08432000000000005  0.6358499999999998  1.0000
  H   H422      1.0  0.51309  0.09636000000000003  0.6738099999999999  1.0000
  H   H423      1.0  0.6730800000000001  0.04998000000000006  0.4633699999999999  1.0000
  H   H424      1.0  0.040239999999999804  0.5466200000000004  0.8327299999999997  1.0000
  H   H425      1.0  0.05219000000000005  0.7052  0.73272  1.0000
  H   H426      1.0  0.9956700000000006  0.54045  0.79864  1.0000
  H   H427      1.0  0.9696999999999998  0.5972000000000002  0.7638299999999998  1.0000
  H   H428      1.0  0.99643  0.5494200000000001  0.74397  1.0000
  H   H429      1.0  0.11977000000000003  0.53835  0.72893  1.0000
  H   H430      1.0  0.08428000000000001  0.5043400000000001  0.77545  1.0000
  H   H431      1.0  0.09634999999999991  0.5132700000000002  0.71657  1.0000
  H   H432      1.0  0.049930000000000065  0.67318  0.81341  1.0000
  C   C1        1.0  0.37712999999999997  0.09100999999999998  0.541  1.0000
  C   C2        1.0  0.32898  0.1083  0.54417  1.0000
  C   C3        1.0  0.31077000000000005  0.08121  0.54292  1.0000
  C   C4        1.0  0.26499999999999996  0.09907000000000003  0.545  1.0000
  C   C5        1.0  0.23953000000000002  0.07439000000000001  0.54555  1.0000
  C   C6        1.0  0.19113000000000005  0.11088000000000002  0.54895  1.0000
  C   C7        1.0  0.18955000000000005  0.1522  0.54913  1.0000
  C   C8        1.0  0.23541999999999996  0.14408000000000012  0.54793  1.0000
  C   C9        1.0  0.25374  0.17069999999999996  0.54958  1.0000
  C   C10       1.0  0.2628  0.06462000000000004  0.49913999999999986  1.0000
  C   C11       1.0  0.24002000000000004  0.029759999999999998  0.589  1.0000
  C   C12       1.0  0.29956  0.15287999999999996  0.54809  1.0000
  C   C13       1.0  0.99082  0.5412  0.09084  1.0000
  C   C14       1.0  0.018559999999999882  0.5442400000000002  0.10816  1.0000
  C   C15       1.0  0.06510000000000002  0.54302  0.08103  1.0000
  C   C16       1.0  0.09092000000000007  0.54513  0.09887999999999997  1.0000
  C   C17       1.0  0.14051000000000005  0.54568  0.07420999999999998  1.0000
  C   C18       1.0  0.1490399999999999  0.5490600000000002  0.11064999999999998  1.0000
  C   C19       1.0  0.10911000000000005  0.54923  0.15196999999999994  1.0000
  C   C20       1.0  0.07253000000000005  0.54806  0.14387999999999995  1.0000
  C   C21       1.0  0.025949999999999942  0.5496300000000001  0.17058  1.0000
  C   C22       1.0  0.17351  0.49924000000000013  0.06453  1.0000
  C   C23       1.0  0.14117999999999986  0.5891000000000002  0.029579999999999995  1.0000
  C   C24       1.0  0.9994399999999999  0.54813  0.15276  1.0000
  C   C25       1.0  0.54116  0.9906000000000005  0.37728  1.0000
  C   C26       1.0  0.5443200000000002  0.01825000000000002  0.32913  1.0000
  C   C27       1.0  0.54313  0.06476000000000001  0.31089  1.0000
  C   C28       1.0  0.54516  0.09062000000000005  0.26513  1.0000
  C   C29       1.0  0.5456000000000001  0.14025  0.23971  1.0000
  C   C30       1.0  0.54899  0.1488  0.19133  1.0000
  C   C31       1.0  0.54923  0.10887000000000005  0.18975  1.0000
  C   C32       1.0  0.5480699999999998  0.07225000000000006  0.23558999999999994  1.0000
  C   C33       1.0  0.54973  0.025630000000000007  0.25395  1.0000
  C   C34       1.0  0.49911  0.17311  0.26296  1.0000
  C   C35       1.0  0.58898  0.14104  0.24014999999999995  1.0000
  C   C36       1.0  0.5482099999999999  0.99915  0.29978  1.0000
  C   C37       1.0  0.0910999999999999  0.3771700000000002  0.9906299999999999  1.0000
  C   C38       1.0  0.10840000000000002  0.32906  0.01839  1.0000
  C   C39       1.0  0.08121999999999995  0.31091000000000013  0.06493  1.0000
  C   C40       1.0  0.09904999999999999  0.26509  0.09077999999999997  1.0000
  C   C41       1.0  0.07435000000000001  0.23966  0.14038  1.0000
  C   C42       1.0  0.11077999999999999  0.1912500000000001  0.14894999999999994  1.0000
  C   C43       1.0  0.15211  0.18965000000000007  0.10902  1.0000
  C   C44       1.0  0.14405  0.23552  0.07241  1.0000
  C   C45       1.0  0.17076999999999998  0.25383  0.02583  1.0000
  C   C46       1.0  0.06463  0.2629  0.17328  1.0000
  C   C47       1.0  0.02969000000000001  0.24027  0.14104  1.0000
  C   C48       1.0  0.15298999999999996  0.29968000000000017  0.9993099999999999  1.0000
  C   C49       1.0  0.09100000000000005  0.54099  0.37715  1.0000
  C   C50       1.0  0.1082999999999999  0.5441700000000004  0.3289899999999999  1.0000
  C   C51       1.0  0.08119999999999988  0.5429100000000002  0.31081  1.0000
  C   C52       1.0  0.09906999999999987  0.5450100000000002  0.26501  1.0000
  C   C53       1.0  0.0743899999999999  0.5455800000000002  0.23952999999999994  1.0000
  C   C54       1.0  0.11086999999999989  0.5489800000000002  0.19112999999999994  1.0000
  C   C55       1.0  0.1521899999999999  0.5491400000000001  0.18954999999999994  1.0000
  C   C56       1.0  0.1440799999999999  0.5479400000000003  0.23542999999999997  1.0000
  C   C57       1.0  0.17070000000000005  0.54958  0.25375  1.0000
  C   C58       1.0  0.06462000000000001  0.49917  0.26281  1.0000
  C   C59       1.0  0.029750000000000037  0.58901  0.24004  1.0000
  C   C60       1.0  0.15287999999999996  0.54811  0.29957  1.0000
  C   C61       1.0  0.54117  0.09084999999999999  0.99083  1.0000
  C   C62       1.0  0.54424  0.10817  0.018549999999999997  1.0000
  C   C63       1.0  0.54301  0.08103000000000002  0.06509  1.0000
  C   C64       1.0  0.54513  0.09887000000000004  0.09091  1.0000
  C   C65       1.0  0.54569  0.07421000000000004  0.14048999999999995  1.0000
  C   C66       1.0  0.54907  0.11064000000000006  0.14903  1.0000
  C   C67       1.0  0.54922  0.15197  0.10911999999999998  1.0000
  C   C68       1.0  0.54804  0.14388  0.07253  1.0000
  C   C69       1.0  0.54962  0.17059000000000005  0.025939999999999994  1.0000
  C   C70       1.0  0.4992499999999999  0.06453  0.1735  1.0000
  C   C71       1.0  0.5891  0.029580000000000006  0.14116999999999996  1.0000
  C   C72       1.0  0.54814  0.15277000000000004  0.99942  1.0000
  C   C73       1.0  0.9906199999999997  0.37728000000000017  0.54115  1.0000
  C   C74       1.0  0.01826  0.32913  0.54432  1.0000
  C   C75       1.0  0.06477999999999998  0.3109  0.54312  1.0000
  C   C76       1.0  0.09062999999999995  0.26513  0.54515  1.0000
  C   C77       1.0  0.14024999999999993  0.23971000000000003  0.5456  1.0000
  C   C78       1.0  0.14880999999999994  0.19132  0.549  1.0000
  C   C79       1.0  0.10886999999999993  0.1897500000000001  0.54923  1.0000
  C   C80       1.0  0.07224999999999993  0.2356000000000001  0.54806  1.0000
  C   C81       1.0  0.02563  0.25396  0.54972  1.0000
  C   C82       1.0  0.17311  0.26295000000000013  0.4991099999999999  1.0000
  C   C83       1.0  0.14103000000000002  0.24016  0.58899  1.0000
  C   C84       1.0  0.99915  0.29978000000000005  0.54821  1.0000
  C   C85       1.0  0.37716999999999995  0.99063  0.09111999999999998  1.0000
  C   C86       1.0  0.32905  0.018380000000000014  0.10840999999999998  1.0000
  C   C87       1.0  0.31092  0.06492  0.08122  1.0000
  C   C88       1.0  0.26511  0.09077  0.09904  1.0000
  C   C89       1.0  0.2396699999999999  0.14037000000000005  0.07434  1.0000
  C   C90       1.0  0.19125  0.14894  0.11078  1.0000
  C   C91       1.0  0.18966  0.10902000000000002  0.15211  1.0000
  C   C92       1.0  0.23552999999999993  0.07241  0.14405  1.0000
  C   C93       1.0  0.25383000000000006  0.025830000000000013  0.17077999999999993  1.0000
  C   C94       1.0  0.26291  0.17327  0.06464  1.0000
  C   C95       1.0  0.24027999999999997  0.14102  0.029679999999999995  1.0000
  C   C96       1.0  0.2996599999999998  0.9992900000000001  0.15301  1.0000
  C   C97       1.0  0.541  0.3771400000000001  0.09101  1.0000
  C   C98       1.0  0.54416  0.32899  0.10831  1.0000
  C   C99       1.0  0.54292  0.31078  0.08121  1.0000
  C   C100      1.0  0.54502  0.26499  0.09908  1.0000
  C   C101      1.0  0.5455699999999999  0.23952000000000012  0.0744  1.0000
  C   C102      1.0  0.54897  0.19112  0.11089  1.0000
  C   C103      1.0  0.54914  0.18955  0.1522  1.0000
  C   C104      1.0  0.54794  0.23542000000000002  0.1441  1.0000
  C   C105      1.0  0.5495799999999998  0.25374000000000013  0.17071999999999996  1.0000
  C   C106      1.0  0.49916  0.26282  0.06462  1.0000
  C   C107      1.0  0.5889899999999999  0.24003000000000005  0.029759999999999998  1.0000
  C   C108      1.0  0.54809  0.2995700000000001  0.15289  1.0000
  C   C109      1.0  0.09083999999999978  0.9908200000000004  0.54119  1.0000
  C   C110      1.0  0.10816  0.018560000000000004  0.54423  1.0000
  C   C111      1.0  0.08102000000000001  0.06511  0.54301  1.0000
  C   C112      1.0  0.09886999999999999  0.09091000000000003  0.54515  1.0000
  C   C113      1.0  0.07420999999999997  0.1405  0.54569  1.0000
  C   C114      1.0  0.11065000000000003  0.14903  0.54907  1.0000
  C   C115      1.0  0.15197000000000002  0.10911999999999998  0.54922  1.0000
  C   C116      1.0  0.14387999999999998  0.07253000000000005  0.54806  1.0000
  C   C117      1.0  0.17056999999999994  0.025950000000000004  0.54962  1.0000
  C   C118      1.0  0.06452000000000004  0.17349000000000006  0.4992699999999999  1.0000
  C   C119      1.0  0.02956999999999998  0.14119000000000004  0.5891  1.0000
  C   C120      1.0  0.15275000000000014  0.99944  0.54812  1.0000
  C   C121      1.0  0.37728999999999996  0.54115  0.99062  1.0000
  C   C122      1.0  0.32913999999999993  0.5443  0.018269999999999995  1.0000
  C   C123      1.0  0.31088999999999983  0.5431200000000003  0.06478  1.0000
  C   C124      1.0  0.26511999999999997  0.5451600000000002  0.09063  1.0000
  C   C125      1.0  0.23969999999999997  0.54559  0.14026  1.0000
  C   C126      1.0  0.19131999999999988  0.5489900000000002  0.14880999999999997  1.0000
  C   C127      1.0  0.18974999999999997  0.54922  0.10887  1.0000
  C   C128      1.0  0.23559999999999998  0.54806  0.07225  1.0000
  C   C129      1.0  0.25396  0.54971  0.02564  1.0000
  C   C130      1.0  0.2629599999999999  0.49910000000000015  0.17311999999999994  1.0000
  C   C131      1.0  0.24015000000000003  0.58898  0.14106  1.0000
  C   C132      1.0  0.29979000000000006  0.5481999999999999  0.99916  1.0000
  C   C133      1.0  0.99063  0.09111000000000001  0.37718  1.0000
  C   C134      1.0  0.01839  0.10839  0.32906  1.0000
  C   C135      1.0  0.06492999999999996  0.08122000000000001  0.31091  1.0000
  C   C136      1.0  0.09078  0.09906000000000001  0.2651  1.0000
  C   C137      1.0  0.14038  0.07436000000000001  0.23965999999999998  1.0000
  C   C138      1.0  0.14894000000000002  0.11079000000000004  0.19125  1.0000
  C   C139      1.0  0.10900999999999995  0.1521200000000001  0.18966  1.0000
  C   C140      1.0  0.07241000000000006  0.14407  0.23552999999999996  1.0000
  C   C141      1.0  0.025819999999999985  0.17079  0.25384  1.0000
  C   C142      1.0  0.17326999999999998  0.06463000000000002  0.26292  1.0000
  C   C143      1.0  0.14104000000000003  0.02970000000000001  0.24028  1.0000
  C   C144      1.0  0.99931  0.15299  0.29968  1.0000
  C   C145      1.0  0.5090799999999999  0.4091200000000002  0.9589899999999998  1.0000
  C   C146      1.0  0.4813700000000002  0.3918700000000001  0.9558399999999998  1.0000
  C   C147      1.0  0.43481000000000003  0.4189900000000002  0.9570599999999998  1.0000
  C   C148      1.0  0.4090499999999999  0.40114000000000005  0.95491  1.0000
  C   C149      1.0  0.35947000000000007  0.4258000000000001  0.9543399999999997  1.0000
  C   C150      1.0  0.35095  0.38936  0.95096  1.0000
  C   C151      1.0  0.39088  0.3480500000000002  0.9507899999999998  1.0000
  C   C152      1.0  0.42744999999999994  0.35613  0.95199  1.0000
  C   C153      1.0  0.47403  0.32944  0.95041  1.0000
  C   C154      1.0  0.32648  0.4354800000000001  0.00077  1.0000
  C   C155      1.0  0.35879999999999995  0.47042000000000017  0.91091  1.0000
  C   C156      1.0  0.5005000000000001  0.34728000000000014  0.95192  1.0000
  C   C157      1.0  0.1229199999999996  0.9590400000000004  0.40899  1.0000
  C   C158      1.0  0.1710499999999998  0.9558600000000005  0.3917499999999999  1.0000
  C   C159      1.0  0.18924999999999997  0.9571400000000001  0.41884  1.0000
  C   C160      1.0  0.23502  0.9550500000000001  0.40094999999999986  1.0000
  C   C161      1.0  0.2605099999999999  0.9544700000000004  0.4256299999999999  1.0000
  C   C162      1.0  0.30889  0.95107  0.38914  1.0000
  C   C163      1.0  0.31045999999999985  0.9508900000000003  0.34783999999999987  1.0000
  C   C164      1.0  0.2645900000000001  0.95212  0.3559399999999999  1.0000
  C   C165      1.0  0.24629999999999994  0.9504400000000001  0.3293199999999999  1.0000
  C   C166      1.0  0.23722  0.0008799999999999759  0.43542  1.0000
  C   C167      1.0  0.2600099999999998  0.9110100000000004  0.47026  1.0000
  C   C168      1.0  0.20046999999999995  0.95192  0.34717  1.0000
  C   C169      1.0  0.40895  0.50931  0.12272  1.0000
  C   C170      1.0  0.39168999999999987  0.4815900000000002  0.17087  1.0000
  C   C171      1.0  0.41882000000000014  0.43502000000000013  0.18907  1.0000
  C   C172      1.0  0.40096000000000015  0.4091900000000001  0.23488  1.0000
  C   C173      1.0  0.4256499999999999  0.35959000000000013  0.26035  1.0000
  C   C174      1.0  0.38922  0.35103  0.30874999999999997  1.0000
  C   C175      1.0  0.3479  0.39096  0.31033  1.0000
  C   C176      1.0  0.35595999999999994  0.42755  0.26445  1.0000
  C   C177      1.0  0.32926  0.47413999999999995  0.24613  1.0000
  C   C178      1.0  0.43537999999999993  0.3266700000000001  0.23710999999999993  1.0000
  C   C179      1.0  0.4703  0.35894  0.25976  1.0000
  C   C180      1.0  0.34711  0.50065  0.20028999999999994  1.0000
  C   C181      1.0  0.9587299999999999  0.12273  0.50941  1.0000
  C   C182      1.0  0.95559  0.17086000000000004  0.4817299999999999  1.0000
  C   C183      1.0  0.95685  0.18913  0.43517  1.0000
  C   C184      1.0  0.95487  0.23488  0.40934  1.0000
  C   C185      1.0  0.9544199999999998  0.2603400000000001  0.3597  1.0000
  C   C186      1.0  0.9510200000000002  0.30870000000000014  0.35116999999999987  1.0000
  C   C187      1.0  0.9508  0.31026  0.39111  1.0000
  C   C188      1.0  0.95198  0.2644000000000001  0.4277199999999999  1.0000
  C   C189      1.0  0.9502999999999999  0.24604000000000006  0.4743399999999999  1.0000
  C   C190      1.0  0.0009099999999999935  0.23708  0.32684  1.0000
  C   C191      1.0  0.9110200000000004  0.2599  0.3589299999999999  1.0000
  C   C192      1.0  0.9516900000000001  0.20023999999999997  0.50082  1.0000
  C   C193      1.0  0.5094000000000001  0.95875  0.1227  1.0000
  C   C194      1.0  0.4817199999999999  0.9555900000000003  0.17083999999999994  1.0000
  C   C195      1.0  0.4351499999999999  0.95687  0.18911  1.0000
  C   C196      1.0  0.40933999999999987  0.9548800000000002  0.23486999999999994  1.0000
  C   C197      1.0  0.35971  0.95442  0.26034  1.0000
  C   C198      1.0  0.35117999999999994  0.95101  0.30870999999999993  1.0000
  C   C199      1.0  0.39112000000000013  0.9508  0.31025999999999987  1.0000
  C   C200      1.0  0.42772  0.95199  0.26439  1.0000
  C   C201      1.0  0.47435000000000005  0.9503  0.24601  1.0000
  C   C202      1.0  0.3268400000000001  0.0009000000000000012  0.23708  1.0000
  C   C203      1.0  0.35893999999999987  0.9110200000000003  0.2599  1.0000
  C   C204      1.0  0.5008299999999999  0.9516800000000002  0.20020999999999997  1.0000
  C   C205      1.0  0.12269999999999988  0.4089500000000002  0.50928  1.0000
  C   C206      1.0  0.17085000000000003  0.39169000000000004  0.48157999999999995  1.0000
  C   C207      1.0  0.18906000000000006  0.4188299999999999  0.43501  1.0000
  C   C208      1.0  0.23487000000000002  0.40097000000000005  0.4091999999999999  1.0000
  C   C209      1.0  0.26035  0.42566000000000004  0.3595899999999999  1.0000
  C   C210      1.0  0.30876000000000003  0.38922  0.35103  1.0000
  C   C211      1.0  0.31033  0.34789999999999993  0.39096  1.0000
  C   C212      1.0  0.26443999999999995  0.3559600000000002  0.4275599999999999  1.0000
  C   C213      1.0  0.24612000000000006  0.32926000000000005  0.4741399999999999  1.0000
  C   C214      1.0  0.23710999999999988  0.4353800000000002  0.32668  1.0000
  C   C215      1.0  0.25975  0.47030999999999995  0.35895  1.0000
  C   C216      1.0  0.20027999999999996  0.34710000000000013  0.50065  1.0000
  C   C217      1.0  0.4090000000000001  0.12288999999999999  0.95911  1.0000
  C   C218      1.0  0.3917399999999999  0.17103000000000002  0.9558899999999999  1.0000
  C   C219      1.0  0.4188500000000001  0.18923000000000012  0.9571399999999998  1.0000
  C   C220      1.0  0.40096000000000004  0.23502000000000006  0.95503  1.0000
  C   C221      1.0  0.42564000000000013  0.2605100000000001  0.9544399999999997  1.0000
  C   C222      1.0  0.38916000000000023  0.30890000000000006  0.9510299999999998  1.0000
  C   C223      1.0  0.34785  0.31046  0.9508699999999999  1.0000
  C   C224      1.0  0.35594  0.26458  0.9521099999999999  1.0000
  C   C225      1.0  0.32931000000000005  0.24628000000000003  0.95046  1.0000
  C   C226      1.0  0.4354199999999999  0.23722000000000004  0.0008499999999999997  1.0000
  C   C227      1.0  0.47027000000000013  0.26000000000000006  0.91099  1.0000
  C   C228      1.0  0.3471600000000001  0.20044000000000015  0.9519599999999998  1.0000
  C   C229      1.0  0.959  0.50907  0.4091199999999999  1.0000
  C   C230      1.0  0.95585  0.48138000000000003  0.39186  1.0000
  C   C231      1.0  0.95707  0.43482000000000004  0.419  1.0000
  C   C232      1.0  0.9549099999999997  0.40906000000000003  0.40114  1.0000
  C   C233      1.0  0.95433  0.35948000000000013  0.4257999999999999  1.0000
  C   C234      1.0  0.9509499999999997  0.35096  0.3893599999999999  1.0000
  C   C235      1.0  0.9508  0.3908800000000001  0.3480499999999999  1.0000
  C   C236      1.0  0.9520100000000001  0.42745  0.35612  1.0000
  C   C237      1.0  0.95043  0.47403  0.32942  1.0000
  C   C238      1.0  0.0007599999999999637  0.3264900000000001  0.43548  1.0000
  C   C239      1.0  0.9109  0.35881  0.47042  1.0000
  C   C240      1.0  0.9519200000000002  0.5005200000000001  0.3472699999999999  1.0000
  C   C241      1.0  0.5092700000000001  0.12270000000000007  0.4089199999999999  1.0000
  C   C242      1.0  0.48156000000000004  0.1708500000000001  0.3916699999999999  1.0000
  C   C243      1.0  0.4350000000000001  0.18907000000000004  0.4188099999999999  1.0000
  C   C244      1.0  0.40918999999999994  0.23489000000000004  0.40094999999999986  1.0000
  C   C245      1.0  0.35958999999999997  0.26036000000000004  0.42563999999999996  1.0000
  C   C246      1.0  0.35102999999999995  0.30876  0.38920999999999994  1.0000
  C   C247      1.0  0.39096999999999993  0.31033000000000005  0.3478899999999999  1.0000
  C   C248      1.0  0.42755999999999994  0.26445000000000013  0.35593  1.0000
  C   C249      1.0  0.47414999999999996  0.2461300000000001  0.32923999999999987  1.0000
  C   C250      1.0  0.32668  0.23710000000000003  0.43538  1.0000
  C   C251      1.0  0.35892999999999997  0.2597500000000001  0.4703  1.0000
  C   C252      1.0  0.5006299999999999  0.20028  0.34708  1.0000
  C   C253      1.0  0.1227300000000001  0.5094200000000002  0.9587299999999997  1.0000
  C   C254      1.0  0.17085000000000009  0.48172000000000015  0.9556099999999997  1.0000
  C   C255      1.0  0.18913  0.43515  0.95686  1.0000
  C   C256      1.0  0.23488000000000006  0.40934000000000004  0.9548599999999999  1.0000
  C   C257      1.0  0.26034999999999986  0.3597000000000002  0.95442  1.0000
  C   C258      1.0  0.30871999999999994  0.35117  0.95102  1.0000
  C   C259      1.0  0.31026000000000004  0.39111000000000024  0.95081  1.0000
  C   C260      1.0  0.2644000000000001  0.42772  0.95199  1.0000
  C   C261      1.0  0.24603000000000014  0.47434  0.95031  1.0000
  C   C262      1.0  0.23707999999999999  0.32684000000000013  0.0009  1.0000
  C   C263      1.0  0.25991000000000014  0.35891  0.9110299999999998  1.0000
  C   C264      1.0  0.20021999999999995  0.50082  0.9517  1.0000
  C   C265      1.0  0.40915  0.9589400000000001  0.50911  1.0000
  C   C266      1.0  0.39188  0.95582  0.48139  1.0000
  C   C267      1.0  0.4190100000000001  0.95705  0.43482  1.0000
  C   C268      1.0  0.40114999999999984  0.9548900000000005  0.40906  1.0000
  C   C269      1.0  0.42580000000000007  0.95433  0.3594699999999999  1.0000
  C   C270      1.0  0.38935999999999976  0.9509500000000004  0.35095  1.0000
  C   C271      1.0  0.34803999999999996  0.9508000000000001  0.39088  1.0000
  C   C272      1.0  0.35613000000000006  0.95199  0.42745  1.0000
  C   C273      1.0  0.3294400000000001  0.95042  0.47403  1.0000
  C   C274      1.0  0.43550000000000005  0.0007400000000000029  0.3265  1.0000
  C   C275      1.0  0.47042999999999996  0.91092  0.35879  1.0000
  C   C276      1.0  0.34729999999999983  0.9519000000000002  0.50052  1.0000
  C   C277      1.0  0.9590200000000002  0.409  0.12291999999999999  1.0000
  C   C278      1.0  0.95587  0.39174  0.17104999999999998  1.0000
  C   C279      1.0  0.9571299999999999  0.41884000000000016  0.18923999999999994  1.0000
  C   C280      1.0  0.95503  0.40094  0.23502  1.0000
  C   C281      1.0  0.9544599999999996  0.4256200000000002  0.26051  1.0000
  C   C282      1.0  0.9510499999999998  0.3891400000000001  0.30889  1.0000
  C   C283      1.0  0.95088  0.34783  0.31046  1.0000
  C   C284      1.0  0.95211  0.3559300000000002  0.26458  1.0000
  C   C285      1.0  0.9504499999999999  0.32929000000000014  0.24628999999999995  1.0000
  C   C286      1.0  0.0008599999999998826  0.4354200000000002  0.2372  1.0000
  C   C287      1.0  0.9110199999999999  0.47026000000000007  0.26  1.0000
  C   C288      1.0  0.9519300000000002  0.34716  0.20046  1.0000
  C   C289      1.0  0.6228699999999998  0.9089900000000004  0.459  1.0000
  C   C290      1.0  0.67103  0.8917000000000002  0.45583  1.0000
  C   C291      1.0  0.6892299999999998  0.9187900000000001  0.45708  1.0000
  C   C292      1.0  0.7349999999999999  0.90093  0.4549999999999999  1.0000
  C   C293      1.0  0.7604800000000002  0.9256099999999999  0.45445  1.0000
  C   C294      1.0  0.80887  0.8891200000000002  0.4510499999999999  1.0000
  C   C295      1.0  0.81046  0.8478000000000002  0.45087  1.0000
  C   C296      1.0  0.76459  0.8559200000000001  0.45206  1.0000
  C   C297      1.0  0.7462700000000002  0.8293  0.45042  1.0000
  C   C298      1.0  0.7371999999999999  0.93538  0.50086  1.0000
  C   C299      1.0  0.75998  0.97024  0.411  1.0000
  C   C300      1.0  0.7004499999999999  0.8471200000000002  0.45190999999999987  1.0000
  C   C301      1.0  0.009180000000000072  0.4588000000000001  0.9091599999999997  1.0000
  C   C302      1.0  0.9814400000000001  0.45575999999999994  0.89183  1.0000
  C   C303      1.0  0.9349000000000002  0.45699000000000006  0.9189599999999999  1.0000
  C   C304      1.0  0.9090800000000001  0.45487000000000016  0.9011199999999998  1.0000
  C   C305      1.0  0.8594999999999999  0.45432000000000017  0.92579  1.0000
  C   C306      1.0  0.85097  0.4509400000000001  0.8893499999999999  1.0000
  C   C307      1.0  0.8908900000000002  0.4507700000000001  0.8480299999999998  1.0000
  C   C308      1.0  0.9274699999999998  0.45194000000000023  0.8561199999999999  1.0000
  C   C309      1.0  0.9740599999999998  0.45037000000000027  0.8294199999999998  1.0000
  C   C310      1.0  0.8264999999999999  0.5007600000000002  0.93547  1.0000
  C   C311      1.0  0.8588199999999997  0.4109  0.97042  1.0000
  C   C312      1.0  0.0005599999999999998  0.45187000000000016  0.8472399999999998  1.0000
  C   C313      1.0  0.4588400000000001  0.009399999999999993  0.62272  1.0000
  C   C314      1.0  0.45569000000000004  0.9817500000000001  0.67086  1.0000
  C   C315      1.0  0.45687  0.93524  0.6891  1.0000
  C   C316      1.0  0.4548399999999998  0.9093800000000004  0.73487  1.0000
  C   C317      1.0  0.4544100000000001  0.8597500000000005  0.7602899999999998  1.0000
  C   C318      1.0  0.4510100000000002  0.8512000000000001  0.8086699999999998  1.0000
  C   C319      1.0  0.4507699999999999  0.8911300000000004  0.8102499999999999  1.0000
  C   C320      1.0  0.45192999999999967  0.9277500000000004  0.7644099999999998  1.0000
  C   C321      1.0  0.45028000000000007  0.97437  0.74605  1.0000
  C   C322      1.0  0.50089  0.8268900000000005  0.73704  1.0000
  C   C323      1.0  0.41102  0.8589600000000001  0.7598399999999997  1.0000
  C   C324      1.0  0.45179000000000014  0.0008499999999999816  0.70022  1.0000
  C   C325      1.0  0.9089  0.62283  0.00937  1.0000
  C   C326      1.0  0.8916099999999999  0.6709500000000002  0.98161  1.0000
  C   C327      1.0  0.9187800000000002  0.6890999999999999  0.93507  1.0000
  C   C328      1.0  0.90095  0.7349099999999998  0.90922  1.0000
  C   C329      1.0  0.9256599999999999  0.7603400000000001  0.85962  1.0000
  C   C330      1.0  0.8892199999999998  0.8087500000000004  0.8510499999999998  1.0000
  C   C331      1.0  0.8479  0.81035  0.89098  1.0000
  C   C332      1.0  0.8559500000000001  0.76448  0.92759  1.0000
  C   C333      1.0  0.82923  0.7461700000000003  0.9741599999999999  1.0000
  C   C334      1.0  0.93537  0.7371000000000001  0.82671  1.0000
  C   C335      1.0  0.97031  0.7597300000000001  0.85896  1.0000
  C   C336      1.0  0.84701  0.70033  0.00069  1.0000
  C   C337      1.0  0.9089999999999998  0.45901  0.62285  1.0000
  C   C338      1.0  0.8917  0.45583  0.671  1.0000
  C   C339      1.0  0.9187999999999998  0.45710000000000023  0.68919  1.0000
  C   C340      1.0  0.9009400000000001  0.45499000000000017  0.7349899999999998  1.0000
  C   C341      1.0  0.92562  0.4544300000000001  0.7604699999999999  1.0000
  C   C342      1.0  0.88913  0.45102  0.80887  1.0000
  C   C343      1.0  0.84782  0.45086000000000004  0.81045  1.0000
  C   C344      1.0  0.8559200000000002  0.45206000000000013  0.7645699999999999  1.0000
  C   C345      1.0  0.8293000000000003  0.4504200000000002  0.7462499999999997  1.0000
  C   C346      1.0  0.93538  0.5008400000000002  0.73719  1.0000
  C   C347      1.0  0.9702500000000003  0.41099000000000024  0.75996  1.0000
  C   C348      1.0  0.84713  0.45188999999999996  0.70042  1.0000
  C   C349      1.0  0.4588300000000001  0.90915  0.00917  1.0000
  C   C350      1.0  0.45576000000000005  0.89183  0.98145  1.0000
  C   C351      1.0  0.4569899999999999  0.9189700000000004  0.93491  1.0000
  C   C352      1.0  0.45487  0.90113  0.90909  1.0000
  C   C353      1.0  0.4543200000000001  0.9258000000000003  0.8595  1.0000
  C   C354      1.0  0.4509299999999998  0.8893600000000005  0.8509699999999998  1.0000
  C   C355      1.0  0.45078000000000007  0.84804  0.89088  1.0000
  C   C356      1.0  0.4519599999999997  0.8561200000000004  0.92747  1.0000
  C   C357      1.0  0.45038  0.82941  0.97405  1.0000
  C   C358      1.0  0.50075  0.9354700000000001  0.8265  1.0000
  C   C359      1.0  0.4108999999999997  0.9704200000000004  0.85883  1.0000
  C   C360      1.0  0.45186  0.84723  0.00057  1.0000
  C   C361      1.0  0.009389999999999902  0.6227200000000004  0.45884999999999987  1.0000
  C   C362      1.0  0.98174  0.67087  0.45568  1.0000
  C   C363      1.0  0.93522  0.6890999999999999  0.45688  1.0000
  C   C364      1.0  0.9093799999999999  0.7348700000000002  0.45485  1.0000
  C   C365      1.0  0.85975  0.7603  0.4544  1.0000
  C   C366      1.0  0.8512000000000001  0.8086800000000002  0.451  1.0000
  C   C367      1.0  0.8911299999999999  0.8102500000000001  0.4507699999999999  1.0000
  C   C368      1.0  0.9277599999999999  0.7644000000000002  0.45194  1.0000
  C   C369      1.0  0.97438  0.7460400000000003  0.4502799999999999  1.0000
  C   C370      1.0  0.82689  0.7370500000000002  0.50089  1.0000
  C   C371      1.0  0.8589799999999997  0.7598400000000003  0.4110099999999999  1.0000
  C   C372      1.0  0.0008499999999999665  0.7002200000000002  0.4517899999999999  1.0000
  C   C373      1.0  0.6228400000000001  0.009370000000000028  0.90888  1.0000
  C   C374      1.0  0.6709599999999999  0.98162  0.89159  1.0000
  C   C375      1.0  0.68909  0.9350800000000005  0.9187799999999998  1.0000
  C   C376      1.0  0.7348899999999998  0.9092300000000002  0.9009599999999998  1.0000
  C   C377      1.0  0.7603400000000002  0.85963  0.92566  1.0000
  C   C378      1.0  0.8087599999999999  0.8510600000000001  0.8892199999999998  1.0000
  C   C379      1.0  0.8103400000000001  0.8909800000000001  0.84789  1.0000
  C   C380      1.0  0.76447  0.9275900000000004  0.8559399999999998  1.0000
  C   C381      1.0  0.74618  0.9741700000000001  0.82922  1.0000
  C   C382      1.0  0.7371  0.8267300000000004  0.9353599999999997  1.0000
  C   C383      1.0  0.7597200000000001  0.85898  0.97031  1.0000
  C   C384      1.0  0.7003399999999999  0.0007099999999999504  0.84699  1.0000
  C   C385      1.0  0.4590000000000001  0.6228700000000001  0.90899  1.0000
  C   C386      1.0  0.45584999999999987  0.67102  0.89169  1.0000
  C   C387      1.0  0.45709  0.68922  0.91879  1.0000
  C   C388      1.0  0.4549799999999999  0.7350100000000003  0.90092  1.0000
  C   C389      1.0  0.4544399999999999  0.7604800000000004  0.92559  1.0000
  C   C390      1.0  0.4510399999999998  0.8088800000000004  0.88911  1.0000
  C   C391      1.0  0.4508599999999999  0.8104599999999998  0.8478  1.0000
  C   C392      1.0  0.45205999999999985  0.7645800000000003  0.8559  1.0000
  C   C393      1.0  0.4504199999999999  0.7462600000000003  0.82928  1.0000
  C   C394      1.0  0.5008399999999997  0.7371800000000003  0.9353799999999998  1.0000
  C   C395      1.0  0.41101000000000004  0.75997  0.97024  1.0000
  C   C396      1.0  0.4519099999999999  0.7004400000000002  0.8471099999999998  1.0000
  C   C397      1.0  0.9091600000000001  0.009179999999999976  0.4588  1.0000
  C   C398      1.0  0.89184  0.98144  0.45577  1.0000
  C   C399      1.0  0.9189799999999997  0.9349  0.45699  1.0000
  C   C400      1.0  0.9011399999999999  0.9090900000000001  0.45485  1.0000
  C   C401      1.0  0.9258000000000001  0.8595  0.45429999999999987  1.0000
  C   C402      1.0  0.88936  0.85097  0.45092  1.0000
  C   C403      1.0  0.8480299999999998  0.8908800000000002  0.4507699999999999  1.0000
  C   C404      1.0  0.85613  0.92748  0.45194  1.0000
  C   C405      1.0  0.82944  0.9740500000000003  0.45038  1.0000
  C   C406      1.0  0.9354800000000001  0.8265100000000001  0.50073  1.0000
  C   C407      1.0  0.97044  0.85881  0.4109  1.0000
  C   C408      1.0  0.84725  0.0005600000000000377  0.4518799999999999  1.0000
  C   C409      1.0  0.62272  0.4588500000000001  0.009379999999999996  1.0000
  C   C410      1.0  0.6708600000000001  0.45570000000000016  0.9817299999999998  1.0000
  C   C411      1.0  0.68911  0.45688000000000006  0.93521  1.0000
  C   C412      1.0  0.7348799999999999  0.45484000000000024  0.9093699999999998  1.0000
  C   C413      1.0  0.76031  0.45441  0.85973  1.0000
  C   C414      1.0  0.8086900000000005  0.45101000000000024  0.85119  1.0000
  C   C415      1.0  0.8102600000000001  0.45078  0.8911199999999999  1.0000
  C   C416      1.0  0.7644100000000001  0.4519400000000002  0.9277399999999998  1.0000
  C   C417      1.0  0.74604  0.45028999999999997  0.97436  1.0000
  C   C418      1.0  0.7370499999999996  0.5009  0.82687  1.0000
  C   C419      1.0  0.7598600000000001  0.41103000000000023  0.85894  1.0000
  C   C420      1.0  0.7002099999999999  0.4518000000000001  0.00084  1.0000
  C   C421      1.0  0.009369999999999766  0.9089000000000005  0.62282  1.0000
  C   C422      1.0  0.9816099999999996  0.8916100000000005  0.67094  1.0000
  C   C423      1.0  0.9350700000000001  0.9187799999999999  0.6890899999999999  1.0000
  C   C424      1.0  0.9092300000000001  0.9009399999999999  0.7349  1.0000
  C   C425      1.0  0.8596299999999998  0.9256400000000005  0.7603399999999998  1.0000
  C   C426      1.0  0.8510600000000005  0.88921  0.8087499999999997  1.0000
  C   C427      1.0  0.89099  0.84788  0.8103299999999999  1.0000
  C   C428      1.0  0.9276  0.8559300000000001  0.7644699999999998  1.0000
  C   C429      1.0  0.9741799999999999  0.8292099999999999  0.74616  1.0000
  C   C430      1.0  0.82673  0.9353700000000001  0.7370799999999997  1.0000
  C   C431      1.0  0.8589700000000001  0.9703100000000003  0.7597099999999998  1.0000
  C   C432      1.0  0.0006999999999999367  0.84701  0.70032  1.0000
  C   C433      1.0  0.49092  0.59088  0.041  1.0000
  C   C434      1.0  0.5186399999999999  0.6081300000000002  0.04416  1.0000
  C   C435      1.0  0.56519  0.5810100000000002  0.04294  1.0000
  C   C436      1.0  0.59096  0.5988700000000002  0.04508  1.0000
  C   C437      1.0  0.64054  0.5742  0.04566  1.0000
  C   C438      1.0  0.6490499999999999  0.6106400000000002  0.049039999999999986  1.0000
  C   C439      1.0  0.6091199999999999  0.6519600000000001  0.04920999999999998  1.0000
  C   C440      1.0  0.57256  0.64387  0.04801  1.0000
  C   C441      1.0  0.52598  0.6705600000000003  0.04958999999999999  1.0000
  C   C442      1.0  0.67352  0.56452  0.9992299999999998  1.0000
  C   C443      1.0  0.6412  0.5295799999999999  0.08909  1.0000
  C   C444      1.0  0.4994999999999999  0.6527200000000002  0.048079999999999984  1.0000
  C   C445      1.0  0.87708  0.04096000000000005  0.5910099999999999  1.0000
  C   C446      1.0  0.8289499999999999  0.04414000000000008  0.6082499999999997  1.0000
  C   C447      1.0  0.8107500000000002  0.042870000000000005  0.58116  1.0000
  C   C448      1.0  0.76498  0.04495000000000001  0.59904  1.0000
  C   C449      1.0  0.7395000000000003  0.04553000000000007  0.5743599999999998  1.0000
  C   C450      1.0  0.69112  0.04893000000000003  0.61085  1.0000
  C   C451      1.0  0.68954  0.04911000000000002  0.6521599999999999  1.0000
  C   C452      1.0  0.73541  0.04788  0.64406  1.0000
  C   C453      1.0  0.75371  0.04955999999999999  0.67068  1.0000
  C   C454      1.0  0.76278  0.9991200000000002  0.56458  1.0000
  C   C455      1.0  0.73999  0.08899000000000003  0.52974  1.0000
  C   C456      1.0  0.7995300000000001  0.048080000000000046  0.6528199999999998  1.0000
  C   C457      1.0  0.5910599999999999  0.4907000000000002  0.8772699999999998  1.0000
  C   C458      1.0  0.6083100000000001  0.51841  0.8291299999999998  1.0000
  C   C459      1.0  0.58118  0.56499  0.81093  1.0000
  C   C460      1.0  0.5990400000000003  0.59081  0.76511  1.0000
  C   C461      1.0  0.5743499999999999  0.6404100000000001  0.73965  1.0000
  C   C462      1.0  0.6107900000000002  0.64897  0.69125  1.0000
  C   C463      1.0  0.65211  0.6090400000000002  0.68967  1.0000
  C   C464      1.0  0.64405  0.5724500000000001  0.73555  1.0000
  C   C465      1.0  0.67075  0.52586  0.75387  1.0000
  C   C466      1.0  0.5646200000000001  0.67333  0.7628799999999998  1.0000
  C   C467      1.0  0.5297100000000001  0.6410600000000001  0.74024  1.0000
  C   C468      1.0  0.65289  0.4993500000000002  0.79971  1.0000
  C   C469      1.0  0.041280000000000074  0.87727  0.49059  1.0000
  C   C470      1.0  0.044410000000000054  0.8291399999999999  0.51827  1.0000
  C   C471      1.0  0.04316000000000006  0.81087  0.56483  1.0000
  C   C472      1.0  0.04514000000000002  0.76512  0.59065  1.0000
  C   C473      1.0  0.04558000000000016  0.73967  0.6402899999999998  1.0000
  C   C474      1.0  0.04897999999999998  0.6913000000000002  0.6488299999999998  1.0000
  C   C475      1.0  0.04920999999999989  0.6897400000000002  0.60889  1.0000
  C   C476      1.0  0.04802  0.7356  0.57228  1.0000
  C   C477      1.0  0.04970999999999999  0.75397  0.52566  1.0000
  C   C478      1.0  0.9990999999999998  0.7629200000000005  0.67316  1.0000
  C   C479      1.0  0.08897999999999998  0.7401000000000002  0.64107  1.0000
  C   C480      1.0  0.04831999999999996  0.7997700000000001  0.49918  1.0000
  C   C481      1.0  0.49060000000000004  0.041249999999999995  0.87729  1.0000
  C   C482      1.0  0.51828  0.04441000000000009  0.8291599999999998  1.0000
  C   C483      1.0  0.5648500000000002  0.04313000000000004  0.8108899999999998  1.0000
  C   C484      1.0  0.5906600000000001  0.04512000000000006  0.7651299999999998  1.0000
  C   C485      1.0  0.64029  0.04558000000000004  0.73966  1.0000
  C   C486      1.0  0.6488300000000002  0.048990000000000075  0.6912899999999997  1.0000
  C   C487      1.0  0.6088900000000002  0.049210000000000004  0.68974  1.0000
  C   C488      1.0  0.57228  0.048009999999999976  0.73561  1.0000
  C   C489      1.0  0.5256499999999998  0.04970000000000003  0.75398  1.0000
  C   C490      1.0  0.67316  0.9991000000000001  0.76292  1.0000
  C   C491      1.0  0.64106  0.08897999999999999  0.7401  1.0000
  C   C492      1.0  0.49916999999999995  0.04832  0.79979  1.0000
  C   C493      1.0  0.8772999999999996  0.5910500000000002  0.49072  1.0000
  C   C494      1.0  0.8291499999999999  0.60831  0.51842  1.0000
  C   C495      1.0  0.8109499999999998  0.5811700000000001  0.56499  1.0000
  C   C496      1.0  0.76514  0.59903  0.5907999999999999  1.0000
  C   C497      1.0  0.7396599999999999  0.57434  0.64041  1.0000
  C   C498      1.0  0.6912499999999999  0.6107800000000002  0.6489599999999999  1.0000
  C   C499      1.0  0.68968  0.6521  0.6090399999999999  1.0000
  C   C500      1.0  0.7355699999999998  0.64404  0.57244  1.0000
  C   C501      1.0  0.7538800000000001  0.67074  0.52586  1.0000
  C   C502      1.0  0.7628899999999998  0.5646200000000002  0.67332  1.0000
  C   C503      1.0  0.7402499999999999  0.52969  0.64105  1.0000
  C   C504      1.0  0.7997200000000001  0.6529  0.4993499999999999  1.0000
  C   C505      1.0  0.59101  0.8771100000000002  0.04089  1.0000
  C   C506      1.0  0.60827  0.8289700000000002  0.04411  1.0000
  C   C507      1.0  0.5811499999999999  0.8107700000000002  0.042859999999999995  1.0000
  C   C508      1.0  0.5990399999999999  0.76498  0.04496999999999999  1.0000
  C   C509      1.0  0.5743600000000001  0.7394900000000002  0.04555999999999999  1.0000
  C   C510      1.0  0.6108399999999999  0.69111  0.04897  1.0000
  C   C511      1.0  0.6521499999999999  0.6895400000000003  0.04913  1.0000
  C   C512      1.0  0.64406  0.73542  0.04788999999999999  1.0000
  C   C513      1.0  0.6706999999999997  0.7537200000000002  0.04953  1.0000
  C   C514      1.0  0.5645899999999999  0.7627800000000003  0.9991499999999999  1.0000
  C   C515      1.0  0.5297299999999999  0.74  0.08901  1.0000
  C   C516      1.0  0.65284  0.79956  0.04803999999999999  1.0000
  C   C517      1.0  0.040999999999999946  0.49093000000000014  0.59087  1.0000
  C   C518      1.0  0.044159999999999956  0.5186200000000001  0.6081399999999999  1.0000
  C   C519      1.0  0.04293999999999994  0.5651800000000002  0.581  1.0000
  C   C520      1.0  0.045090000000000005  0.59094  0.59886  1.0000
  C   C521      1.0  0.04567999999999993  0.6405200000000002  0.5741999999999998  1.0000
  C   C522      1.0  0.049059999999999965  0.64905  0.61064  1.0000
  C   C523      1.0  0.049200000000000056  0.6091300000000001  0.6519499999999998  1.0000
  C   C524      1.0  0.04800000000000002  0.57255  0.64387  1.0000
  C   C525      1.0  0.04957000000000001  0.52597  0.67058  1.0000
  C   C526      1.0  0.99925  0.6735100000000003  0.5645199999999999  1.0000
  C   C527      1.0  0.08909999999999978  0.6411900000000004  0.52957  1.0000
  C   C528      1.0  0.04809000000000005  0.49948000000000015  0.65273  1.0000
  C   C529      1.0  0.49073999999999995  0.8773000000000001  0.59108  1.0000
  C   C530      1.0  0.5184500000000001  0.82915  0.6083299999999998  1.0000
  C   C531      1.0  0.565  0.81093  0.58119  1.0000
  C   C532      1.0  0.5908100000000001  0.7651100000000001  0.5990499999999997  1.0000
  C   C533      1.0  0.6404099999999997  0.7396400000000001  0.57435  1.0000
  C   C534      1.0  0.6489699999999998  0.6912400000000001  0.61079  1.0000
  C   C535      1.0  0.60904  0.6896700000000003  0.6521099999999997  1.0000
  C   C536      1.0  0.5724400000000001  0.73555  0.64406  1.0000
  C   C537      1.0  0.5258599999999999  0.7538700000000002  0.67076  1.0000
  C   C538      1.0  0.67332  0.7629  0.56461  1.0000
  C   C539      1.0  0.64107  0.7402500000000002  0.5297  1.0000
  C   C540      1.0  0.49937000000000004  0.79972  0.65291  1.0000
  C   C541      1.0  0.87727  0.4905800000000001  0.04127  1.0000
  C   C542      1.0  0.8291499999999999  0.51828  0.04438999999999999  1.0000
  C   C543      1.0  0.81088  0.56485  0.04314  1.0000
  C   C544      1.0  0.76512  0.59066  0.04513  1.0000
  C   C545      1.0  0.7396599999999999  0.6403000000000002  0.04557999999999999  1.0000
  C   C546      1.0  0.69129  0.64883  0.048979999999999996  1.0000
  C   C547      1.0  0.6897400000000001  0.60889  0.04918999999999999  1.0000
  C   C548      1.0  0.7355999999999999  0.5722900000000002  0.04801  1.0000
  C   C549      1.0  0.75398  0.52567  0.04969  1.0000
  C   C550      1.0  0.7629200000000002  0.6731600000000001  0.9991  1.0000
  C   C551      1.0  0.74009  0.6410900000000002  0.08897  1.0000
  C   C552      1.0  0.7997800000000002  0.49918000000000007  0.0483  1.0000
  C   C553      1.0  0.5908600000000002  0.04107000000000006  0.4908899999999999  1.0000
  C   C554      1.0  0.6081200000000001  0.04417999999999998  0.51861  1.0000
  C   C555      1.0  0.5809900000000001  0.042950000000000044  0.5651799999999999  1.0000
  C   C556      1.0  0.59886  0.04511000000000001  0.59094  1.0000
  C   C557      1.0  0.5742  0.045679999999999985  0.64052  1.0000
  C   C558      1.0  0.6106500000000001  0.049050000000000066  0.6490399999999998  1.0000
  C   C559      1.0  0.65196  0.049200000000000035  0.6091199999999999  1.0000
  C   C560      1.0  0.64387  0.048010000000000004  0.57254  1.0000
  C   C561      1.0  0.6705600000000003  0.04957999999999999  0.52597  1.0000
  C   C562      1.0  0.5645099999999997  0.9992600000000003  0.6734999999999998  1.0000
  C   C563      1.0  0.52957  0.08909  0.64121  1.0000
  C   C564      1.0  0.6527100000000001  0.048100000000000045  0.49947999999999987  1.0000
  C   C565      1.0  0.04098000000000006  0.5909999999999999  0.87708  1.0000
  C   C566      1.0  0.044140000000000124  0.60826  0.8289499999999997  1.0000
  C   C567      1.0  0.042880000000000036  0.5811600000000001  0.8107599999999998  1.0000
  C   C568      1.0  0.044969999999999954  0.5990600000000004  0.7649699999999998  1.0000
  C   C569      1.0  0.04554999999999989  0.5743800000000002  0.73949  1.0000
  C   C570      1.0  0.04895999999999995  0.6108600000000002  0.6910999999999999  1.0000
  C   C571      1.0  0.04913000000000001  0.65217  0.6895399999999999  1.0000
  C   C572      1.0  0.04788999999999981  0.6440700000000005  0.73542  1.0000
  C   C573      1.0  0.04954999999999987  0.6707100000000004  0.7537099999999998  1.0000
  C   C574      1.0  0.9991400000000004  0.56459  0.7627999999999998  1.0000
  C   C575      1.0  0.08897999999999982  0.5297400000000004  0.74  1.0000
  C   C576      1.0  0.04807999999999985  0.6528400000000002  0.79954  1.0000
  O   O1        1.0  0.39643999999999996  0.11570000000000003  0.53807  1.0000
  O   O2        1.0  0.40375  0.048049999999999995  0.5403  1.0000
  O   O3        1.0  0.9497499999999999  0.5382500000000001  0.11559  1.0000
  O   O4        1.0  0.007770000000000004  0.54065  0.04783  1.0000
  O   O5        1.0  0.5381899999999998  0.94955  0.39663999999999994  1.0000
  O   O6        1.0  0.54057  0.007670000000000007  0.4038  1.0000
  O   O7        1.0  0.11580999999999994  0.3964300000000001  0.94951  1.0000
  O   O8        1.0  0.04810999999999995  0.4037900000000001  0.007639999999999998  1.0000
  O   O9        1.0  0.11565999999999993  0.53814  0.39645  1.0000
  O   O10       1.0  0.04806999999999986  0.5402000000000002  0.40379  1.0000
  O   O11       1.0  0.53818  0.11562000000000001  0.94978  1.0000
  O   O12       1.0  0.54066  0.047840000000000014  0.00777  1.0000
  O   O13       1.0  0.94958  0.39666  0.53813  1.0000
  O   O14       1.0  0.007680000000000052  0.40379999999999994  0.54059  1.0000
  O   O15       1.0  0.39643999999999996  0.9495300000000001  0.11584  1.0000
  O   O16       1.0  0.40378  0.007640000000000001  0.04813  1.0000
  O   O17       1.0  0.5380999999999999  0.3964300000000001  0.11569999999999997  1.0000
  O   O18       1.0  0.5403000000000001  0.40377  0.04804999999999999  1.0000
  O   O19       1.0  0.11559999999999998  0.9497400000000001  0.53825  1.0000
  O   O20       1.0  0.047829999999999956  0.00775000000000002  0.54068  1.0000
  O   O21       1.0  0.3966400000000001  0.5382  0.9495499999999998  1.0000
  O   O22       1.0  0.4038199999999999  0.5405400000000002  0.007689999999999998  1.0000
  O   O23       1.0  0.9495099999999999  0.11582  0.39642  1.0000
  O   O24       1.0  0.007620000000000057  0.04812000000000004  0.4038199999999999  1.0000
  O   O25       1.0  0.5502799999999999  0.38446000000000025  0.96165  1.0000
  O   O26       1.0  0.4919999999999998  0.4519800000000002  0.95998  1.0000
  O   O27       1.0  0.10368999999999985  0.9617000000000003  0.38437  1.0000
  O   O28       1.0  0.09614999999999982  0.9600700000000001  0.45185  1.0000
  O   O29       1.0  0.38437  0.55058  0.10352  1.0000
  O   O30       1.0  0.45176  0.49214  0.09589  1.0000
  O   O31       1.0  0.9614300000000001  0.10341999999999998  0.5506  1.0000
  O   O32       1.0  0.95971  0.09605  0.49224  1.0000
  O   O33       1.0  0.5506  0.9614500000000002  0.10337999999999997  1.0000
  O   O34       1.0  0.49220999999999987  0.9597700000000002  0.09602  1.0000
  O   O35       1.0  0.10346999999999998  0.38437000000000004  0.55053  1.0000
  O   O36       1.0  0.09589000000000003  0.4517800000000001  0.49211  1.0000
  O   O37       1.0  0.38436000000000003  0.10361000000000002  0.96185  1.0000
  O   O38       1.0  0.4518800000000002  0.09616000000000004  0.9600699999999999  1.0000
  O   O39       1.0  0.96163  0.55029  0.38449  1.0000
  O   O40       1.0  0.9600000000000002  0.49197  0.45198  1.0000
  O   O41       1.0  0.5504899999999999  0.10346000000000004  0.3843099999999999  1.0000
  O   O42       1.0  0.4921499999999999  0.09589  0.45178  1.0000
  O   O43       1.0  0.10341999999999997  0.55061  0.96143  1.0000
  O   O44       1.0  0.09604  0.4922700000000002  0.9596999999999998  1.0000
  O   O45       1.0  0.38450999999999974  0.9615000000000004  0.55035  1.0000
  O   O46       1.0  0.4519899999999998  0.9599800000000004  0.4919999999999999  1.0000
  O   O47       1.0  0.9616600000000001  0.38437  0.1037  1.0000
  O   O48       1.0  0.9600399999999999  0.45186  0.09614999999999997  1.0000
  O   O49       1.0  0.6035600000000001  0.8843000000000002  0.46193  1.0000
  O   O50       1.0  0.5962599999999999  0.9519500000000003  0.4597  1.0000
  O   O51       1.0  0.05025000000000006  0.46176000000000006  0.8844099999999998  1.0000
  O   O52       1.0  0.99223  0.4593500000000001  0.9521699999999997  1.0000
  O   O53       1.0  0.4618100000000002  0.05046000000000008  0.6033599999999998  1.0000
  O   O54       1.0  0.45942999999999984  0.9923300000000005  0.5962  1.0000
  O   O55       1.0  0.8841899999999999  0.60357  0.05049  1.0000
  O   O56       1.0  0.95189  0.59621  0.99236  1.0000
  O   O57       1.0  0.8843499999999999  0.46186  0.60355  1.0000
  O   O58       1.0  0.95194  0.4598000000000002  0.59621  1.0000
  O   O59       1.0  0.4618199999999999  0.8843800000000002  0.05022  1.0000
  O   O60       1.0  0.4593499999999997  0.95216  0.99223  1.0000
  O   O61       1.0  0.050429999999999864  0.6033400000000001  0.46187  1.0000
  O   O62       1.0  0.9923299999999997  0.5962000000000002  0.45941  1.0000
  O   O63       1.0  0.6035600000000001  0.05047000000000002  0.88416  1.0000
  O   O64       1.0  0.59622  0.99236  0.95187  1.0000
  O   O65       1.0  0.4619100000000001  0.60357  0.8842999999999999  1.0000
  O   O66       1.0  0.4597000000000002  0.5962299999999999  0.95195  1.0000
  O   O67       1.0  0.8843999999999999  0.050260000000000034  0.46175  1.0000
  O   O68       1.0  0.95218  0.99225  0.45932  1.0000
  O   O69       1.0  0.60336  0.4618  0.05044  1.0000
  O   O70       1.0  0.5961899999999999  0.45946  0.99231  1.0000
  O   O71       1.0  0.05048999999999981  0.8841800000000001  0.60358  1.0000
  O   O72       1.0  0.9923800000000004  0.95188  0.59618  1.0000
  O   O73       1.0  0.4497199999999999  0.6155400000000002  0.03834  1.0000
  O   O74       1.0  0.5080099999999999  0.5480200000000002  0.04000999999999998  1.0000
  O   O75       1.0  0.89631  0.03830000000000004  0.61563  1.0000
  O   O76       1.0  0.9038500000000002  0.03993000000000005  0.54815  1.0000
  O   O77       1.0  0.6156300000000001  0.44941999999999993  0.89648  1.0000
  O   O78       1.0  0.54824  0.5078600000000002  0.9040999999999999  1.0000
  O   O79       1.0  0.0385700000000001  0.89659  0.44939  1.0000
  O   O80       1.0  0.040289999999999965  0.90395  0.50775  1.0000
  O   O81       1.0  0.4494  0.03855000000000005  0.8966199999999999  1.0000
  O   O82       1.0  0.50779  0.040230000000000016  0.90398  1.0000
  O   O83       1.0  0.89653  0.61563  0.44947  1.0000
  O   O84       1.0  0.9041099999999996  0.5482200000000004  0.50788  1.0000
  O   O85       1.0  0.61564  0.89639  0.03815  1.0000
  O   O86       1.0  0.5481199999999998  0.9038400000000002  0.03993  1.0000
  O   O87       1.0  0.03836999999999998  0.44972000000000006  0.61551  1.0000
  O   O88       1.0  0.04  0.50803  0.54802  1.0000
  O   O89       1.0  0.44951000000000013  0.89654  0.61569  1.0000
  O   O90       1.0  0.5078499999999999  0.9041100000000001  0.54822  1.0000
  O   O91       1.0  0.8965799999999999  0.4493900000000001  0.03857  1.0000
  O   O92       1.0  0.90396  0.50773  0.0403  1.0000
  O   O93       1.0  0.61549  0.0385  0.44965  1.0000
  O   O94       1.0  0.5480200000000001  0.04002  0.50799  1.0000
  O   O95       1.0  0.038339999999999985  0.61563  0.89629  1.0000
  O   O96       1.0  0.03995999999999993  0.5481400000000002  0.90385  1.0000
