data_image0
_chemical_formula_structural       Cu48H192C408O240
_chemical_formula_sum              "Cu48 H192 C408 O240"
_cell_length_a       23.91242
_cell_length_b       23.91242
_cell_length_c       47.37539
_cell_angle_alpha    90.0
_cell_angle_beta     90.0
_cell_angle_gamma    90.0

_symmetry_space_group_name_H-M    'P 1'
_symmetry_Int_Tables_number       1

loop_
  _symmetry_equiv_pos_as_xyz
  'x,y,z'

loop_
  _atom_site_type_symbol
  _atom_site_label
  _atom_site_symmetry_multiplicity
  _atom_site_fract_x
  _atom_site_fract_y
  _atom_site_fract_z
  _atom_site_occupancy
  Cu  Cu1       1.0  0.6885300000000002  0.9608300000000002  0.15691  1.0000
  Cu  Cu2       1.0  0.7601200000000001  0.9694  0.12037000000000002  1.0000
  Cu  Cu3       1.0  0.31148  0.03917  0.15691  1.0000
  Cu  Cu4       1.0  0.23989000000000005  0.030600000000000006  0.12037000000000002  1.0000
  Cu  Cu5       1.0  0.03917  0.6885300000000002  0.15691  1.0000
  Cu  Cu6       1.0  0.030600000000000006  0.7601200000000001  0.12037000000000002  1.0000
  Cu  Cu7       1.0  0.9608300000000002  0.31148  0.15691  1.0000
  Cu  Cu8       1.0  0.9694  0.23989000000000005  0.12037000000000002  1.0000
  Cu  Cu9       1.0  0.31148  0.9609700000000001  0.3430400000000001  1.0000
  Cu  Cu10      1.0  0.24005  0.9694300000000002  0.37966000000000005  1.0000
  Cu  Cu11      1.0  0.68852  0.03903  0.3430400000000001  1.0000
  Cu  Cu12      1.0  0.75995  0.030580000000000006  0.37966000000000005  1.0000
  Cu  Cu13      1.0  0.9609700000000001  0.68852  0.3430400000000001  1.0000
  Cu  Cu14      1.0  0.9694300000000002  0.75995  0.37966000000000005  1.0000
  Cu  Cu15      1.0  0.03903  0.31148  0.3430400000000001  1.0000
  Cu  Cu16      1.0  0.030580000000000006  0.24005  0.37966000000000005  1.0000
  Cu  Cu17      1.0  0.31148  0.03917  0.8430900000000001  1.0000
  Cu  Cu18      1.0  0.23989000000000005  0.030600000000000006  0.87962  1.0000
  Cu  Cu19      1.0  0.6885300000000002  0.9608300000000002  0.8430900000000001  1.0000
  Cu  Cu20      1.0  0.7601200000000001  0.9694  0.87962  1.0000
  Cu  Cu21      1.0  0.9608300000000002  0.31148  0.8430900000000001  1.0000
  Cu  Cu22      1.0  0.9694  0.23989000000000005  0.87962  1.0000
  Cu  Cu23      1.0  0.03917  0.6885300000000002  0.8430900000000001  1.0000
  Cu  Cu24      1.0  0.030600000000000006  0.7601200000000001  0.87962  1.0000
  Cu  Cu25      1.0  0.68852  0.03903  0.65696  1.0000
  Cu  Cu26      1.0  0.75995  0.030580000000000006  0.62034  1.0000
  Cu  Cu27      1.0  0.31148  0.9609700000000001  0.65696  1.0000
  Cu  Cu28      1.0  0.24005  0.9694300000000002  0.62034  1.0000
  Cu  Cu29      1.0  0.03903  0.31148  0.65696  1.0000
  Cu  Cu30      1.0  0.030580000000000006  0.24005  0.62034  1.0000
  Cu  Cu31      1.0  0.9609700000000001  0.68852  0.65696  1.0000
  Cu  Cu32      1.0  0.9694300000000002  0.75995  0.62034  1.0000
  Cu  Cu33      1.0  0.7845800000000003  0.7325  0.0  1.0000
  Cu  Cu34      1.0  0.7202800000000003  0.653  0.0  1.0000
  Cu  Cu35      1.0  0.21542000000000006  0.26751  0.0  1.0000
  Cu  Cu36      1.0  0.27972  0.34701000000000004  0.0  1.0000
  Cu  Cu37      1.0  0.26751  0.7845800000000003  0.0  1.0000
  Cu  Cu38      1.0  0.34701000000000004  0.7202800000000003  0.0  1.0000
  Cu  Cu39      1.0  0.7325  0.21542000000000006  0.0  1.0000
  Cu  Cu40      1.0  0.653  0.27972  0.0  1.0000
  Cu  Cu41      1.0  0.21563000000000002  0.73303  0.5  1.0000
  Cu  Cu42      1.0  0.27965000000000007  0.65331  0.5  1.0000
  Cu  Cu43      1.0  0.7843700000000001  0.26698  0.5  1.0000
  Cu  Cu44      1.0  0.7203500000000002  0.3466900000000001  0.5  1.0000
  Cu  Cu45      1.0  0.73303  0.7843700000000001  0.5  1.0000
  Cu  Cu46      1.0  0.65331  0.7203500000000002  0.5  1.0000
  Cu  Cu47      1.0  0.26698  0.21563000000000002  0.5  1.0000
  Cu  Cu48      1.0  0.3466900000000001  0.27965000000000007  0.5  1.0000
  H   H1        1.0  0.7216200000000003  0.82969  0.06843  1.0000
  H   H2        1.0  0.58824  0.71049  0.0568  1.0000
  H   H3        1.0  0.57625  0.83709  0.12168  1.0000
  H   H4        1.0  0.52268  0.75714  0.13805  1.0000
  H   H5        1.0  0.4582400000000001  0.7370500000000002  0.12058000000000002  1.0000
  H   H6        1.0  0.42257000000000006  0.9074600000000002  0.13538  1.0000
  H   H7        1.0  0.43708  0.77747  0.07251  1.0000
  H   H8        1.0  0.30807000000000007  0.9022600000000002  0.06512000000000001  1.0000
  H   H9        1.0  0.9048500000000002  0.7294200000000001  0.21277000000000001  1.0000
  H   H10       1.0  0.75848  0.8356100000000002  0.21096  1.0000
  H   H11       1.0  0.8841600000000001  0.85135  0.14657  1.0000
  H   H12       1.0  0.75469  0.72752  0.26645  1.0000
  H   H13       1.0  0.27838  0.17032  0.06843  1.0000
  H   H14       1.0  0.41176000000000007  0.28951000000000005  0.0568  1.0000
  H   H15       1.0  0.42376000000000014  0.16291  0.12168  1.0000
  H   H16       1.0  0.47732000000000013  0.24286  0.13805  1.0000
  H   H17       1.0  0.54177  0.2629600000000001  0.12058000000000002  1.0000
  H   H18       1.0  0.57743  0.09254000000000003  0.13538  1.0000
  H   H19       1.0  0.56292  0.22253000000000006  0.07251  1.0000
  H   H20       1.0  0.6919300000000002  0.09774  0.06512000000000001  1.0000
  H   H21       1.0  0.09515  0.27059  0.21277000000000001  1.0000
  H   H22       1.0  0.24152000000000004  0.16439000000000004  0.21096  1.0000
  H   H23       1.0  0.11584  0.14865000000000003  0.14657  1.0000
  H   H24       1.0  0.24531000000000006  0.27248000000000006  0.26645  1.0000
  H   H25       1.0  0.17032  0.7216200000000003  0.06843  1.0000
  H   H26       1.0  0.28951000000000005  0.58824  0.0568  1.0000
  H   H27       1.0  0.16291  0.57625  0.12168  1.0000
  H   H28       1.0  0.24286  0.52268  0.13805  1.0000
  H   H29       1.0  0.2629600000000001  0.4582400000000001  0.12058000000000002  1.0000
  H   H30       1.0  0.09254000000000003  0.42257000000000006  0.13538  1.0000
  H   H31       1.0  0.22253000000000006  0.43708  0.07251  1.0000
  H   H32       1.0  0.09774  0.30807000000000007  0.06512000000000001  1.0000
  H   H33       1.0  0.27059  0.9048500000000002  0.21277000000000001  1.0000
  H   H34       1.0  0.16439000000000004  0.75848  0.21096  1.0000
  H   H35       1.0  0.14865000000000003  0.8841600000000001  0.14657  1.0000
  H   H36       1.0  0.27248000000000006  0.75469  0.26645  1.0000
  H   H37       1.0  0.82969  0.27838  0.06843  1.0000
  H   H38       1.0  0.71049  0.41176000000000007  0.0568  1.0000
  H   H39       1.0  0.83709  0.42376000000000014  0.12168  1.0000
  H   H40       1.0  0.75714  0.47732000000000013  0.13805  1.0000
  H   H41       1.0  0.7370500000000002  0.54177  0.12058000000000002  1.0000
  H   H42       1.0  0.9074600000000002  0.57743  0.13538  1.0000
  H   H43       1.0  0.77747  0.56292  0.07251  1.0000
  H   H44       1.0  0.9022600000000002  0.6919300000000002  0.06512000000000001  1.0000
  H   H45       1.0  0.7294200000000001  0.09515  0.21277000000000001  1.0000
  H   H46       1.0  0.8356100000000002  0.24152000000000004  0.21096  1.0000
  H   H47       1.0  0.85135  0.11584  0.14657  1.0000
  H   H48       1.0  0.72752  0.24531000000000006  0.26645  1.0000
  H   H49       1.0  0.2786  0.8298200000000001  0.43156000000000005  1.0000
  H   H50       1.0  0.4118900000000001  0.7104700000000003  0.44304  1.0000
  H   H51       1.0  0.4238400000000001  0.8371500000000001  0.37821000000000005  1.0000
  H   H52       1.0  0.47736  0.75701  0.3618100000000001  1.0000
  H   H53       1.0  0.54174  0.73662  0.37926  1.0000
  H   H54       1.0  0.57746  0.9071500000000002  0.3645900000000001  1.0000
  H   H55       1.0  0.563  0.77727  0.4275300000000001  1.0000
  H   H56       1.0  0.6918900000000001  0.9022400000000002  0.43487000000000003  1.0000
  H   H57       1.0  0.09516000000000002  0.72952  0.28724  1.0000
  H   H58       1.0  0.24149000000000007  0.83578  0.28909  1.0000
  H   H59       1.0  0.11587  0.85134  0.35351  1.0000
  H   H60       1.0  0.24527  0.7275000000000003  0.23359  1.0000
  H   H61       1.0  0.7214000000000003  0.17019000000000004  0.43156000000000005  1.0000
  H   H62       1.0  0.58811  0.28953  0.44304  1.0000
  H   H63       1.0  0.57616  0.16286000000000003  0.37821000000000005  1.0000
  H   H64       1.0  0.52265  0.24299000000000004  0.3618100000000001  1.0000
  H   H65       1.0  0.4582600000000001  0.26338  0.37926  1.0000
  H   H66       1.0  0.42254  0.09285000000000003  0.3645900000000001  1.0000
  H   H67       1.0  0.437  0.22273  0.4275300000000001  1.0000
  H   H68       1.0  0.30811  0.09776000000000003  0.43487000000000003  1.0000
  H   H69       1.0  0.90484  0.27048  0.28724  1.0000
  H   H70       1.0  0.7585100000000002  0.16423  0.28909  1.0000
  H   H71       1.0  0.8841300000000002  0.14866  0.35351  1.0000
  H   H72       1.0  0.7547400000000002  0.2725  0.23359  1.0000
  H   H73       1.0  0.8298200000000001  0.7214000000000003  0.43156000000000005  1.0000
  H   H74       1.0  0.7104700000000003  0.58811  0.44304  1.0000
  H   H75       1.0  0.8371500000000001  0.57616  0.37821000000000005  1.0000
  H   H76       1.0  0.75701  0.52265  0.3618100000000001  1.0000
  H   H77       1.0  0.73662  0.4582600000000001  0.37926  1.0000
  H   H78       1.0  0.9071500000000002  0.42254  0.3645900000000001  1.0000
  H   H79       1.0  0.77727  0.437  0.4275300000000001  1.0000
  H   H80       1.0  0.9022400000000002  0.30811  0.43487000000000003  1.0000
  H   H81       1.0  0.72952  0.90484  0.28724  1.0000
  H   H82       1.0  0.83578  0.7585100000000002  0.28909  1.0000
  H   H83       1.0  0.85134  0.8841300000000002  0.35351  1.0000
  H   H84       1.0  0.7275000000000003  0.7547400000000002  0.23359  1.0000
  H   H85       1.0  0.17019000000000004  0.2786  0.43156000000000005  1.0000
  H   H86       1.0  0.28953  0.4118900000000001  0.44304  1.0000
  H   H87       1.0  0.16286000000000003  0.4238400000000001  0.37821000000000005  1.0000
  H   H88       1.0  0.24299000000000004  0.47736  0.3618100000000001  1.0000
  H   H89       1.0  0.26338  0.54174  0.37926  1.0000
  H   H90       1.0  0.09285000000000003  0.57746  0.3645900000000001  1.0000
  H   H91       1.0  0.22273  0.563  0.4275300000000001  1.0000
  H   H92       1.0  0.09776000000000003  0.6918900000000001  0.43487000000000003  1.0000
  H   H93       1.0  0.27048  0.09516000000000002  0.28724  1.0000
  H   H94       1.0  0.16423  0.24149000000000007  0.28909  1.0000
  H   H95       1.0  0.14866  0.11587  0.35351  1.0000
  H   H96       1.0  0.2725  0.24527  0.23359  1.0000
  H   H97       1.0  0.27838  0.17032  0.93156  1.0000
  H   H98       1.0  0.41176000000000007  0.28951000000000005  0.9432  1.0000
  H   H99       1.0  0.42376000000000014  0.16291  0.87832  1.0000
  H   H100      1.0  0.47732000000000013  0.24286  0.86195  1.0000
  H   H101      1.0  0.54177  0.2629600000000001  0.8794200000000001  1.0000
  H   H102      1.0  0.57743  0.09254000000000003  0.86462  1.0000
  H   H103      1.0  0.56292  0.22253000000000006  0.9274900000000003  1.0000
  H   H104      1.0  0.6919300000000002  0.09774  0.9348800000000003  1.0000
  H   H105      1.0  0.09515  0.27059  0.78723  1.0000
  H   H106      1.0  0.24152000000000004  0.16439000000000004  0.78904  1.0000
  H   H107      1.0  0.11584  0.14865000000000003  0.85343  1.0000
  H   H108      1.0  0.24531000000000006  0.27248000000000006  0.73355  1.0000
  H   H109      1.0  0.7216200000000003  0.82969  0.93156  1.0000
  H   H110      1.0  0.58824  0.71049  0.9432  1.0000
  H   H111      1.0  0.57625  0.83709  0.87832  1.0000
  H   H112      1.0  0.52268  0.75714  0.86195  1.0000
  H   H113      1.0  0.4582400000000001  0.7370500000000002  0.8794200000000001  1.0000
  H   H114      1.0  0.42257000000000006  0.9074600000000002  0.86462  1.0000
  H   H115      1.0  0.43708  0.77747  0.9274900000000003  1.0000
  H   H116      1.0  0.30807000000000007  0.9022600000000002  0.9348800000000003  1.0000
  H   H117      1.0  0.9048500000000002  0.7294200000000001  0.78723  1.0000
  H   H118      1.0  0.75848  0.8356100000000002  0.78904  1.0000
  H   H119      1.0  0.8841600000000001  0.85135  0.85343  1.0000
  H   H120      1.0  0.75469  0.72752  0.73355  1.0000
  H   H121      1.0  0.82969  0.27838  0.93156  1.0000
  H   H122      1.0  0.71049  0.41176000000000007  0.9432  1.0000
  H   H123      1.0  0.83709  0.42376000000000014  0.87832  1.0000
  H   H124      1.0  0.75714  0.47732000000000013  0.86195  1.0000
  H   H125      1.0  0.7370500000000002  0.54177  0.8794200000000001  1.0000
  H   H126      1.0  0.9074600000000002  0.57743  0.86462  1.0000
  H   H127      1.0  0.77747  0.56292  0.9274900000000003  1.0000
  H   H128      1.0  0.9022600000000002  0.6919300000000002  0.9348800000000003  1.0000
  H   H129      1.0  0.7294200000000001  0.09515  0.78723  1.0000
  H   H130      1.0  0.8356100000000002  0.24152000000000004  0.78904  1.0000
  H   H131      1.0  0.85135  0.11584  0.85343  1.0000
  H   H132      1.0  0.72752  0.24531000000000006  0.73355  1.0000
  H   H133      1.0  0.17032  0.7216200000000003  0.93156  1.0000
  H   H134      1.0  0.28951000000000005  0.58824  0.9432  1.0000
  H   H135      1.0  0.16291  0.57625  0.87832  1.0000
  H   H136      1.0  0.24286  0.52268  0.86195  1.0000
  H   H137      1.0  0.2629600000000001  0.4582400000000001  0.8794200000000001  1.0000
  H   H138      1.0  0.09254000000000003  0.42257000000000006  0.86462  1.0000
  H   H139      1.0  0.22253000000000006  0.43708  0.9274900000000003  1.0000
  H   H140      1.0  0.09774  0.30807000000000007  0.9348800000000003  1.0000
  H   H141      1.0  0.27059  0.9048500000000002  0.78723  1.0000
  H   H142      1.0  0.16439000000000004  0.75848  0.78904  1.0000
  H   H143      1.0  0.14865000000000003  0.8841600000000001  0.85343  1.0000
  H   H144      1.0  0.27248000000000006  0.75469  0.73355  1.0000
  H   H145      1.0  0.7214000000000003  0.17019000000000004  0.5684400000000001  1.0000
  H   H146      1.0  0.58811  0.28953  0.55696  1.0000
  H   H147      1.0  0.57616  0.16286000000000003  0.6217900000000001  1.0000
  H   H148      1.0  0.52265  0.24299000000000004  0.63819  1.0000
  H   H149      1.0  0.4582600000000001  0.26338  0.62074  1.0000
  H   H150      1.0  0.42254  0.09285000000000003  0.6354  1.0000
  H   H151      1.0  0.437  0.22273  0.57247  1.0000
  H   H152      1.0  0.30811  0.09776000000000003  0.56513  1.0000
  H   H153      1.0  0.90484  0.27048  0.71276  1.0000
  H   H154      1.0  0.7585100000000002  0.16423  0.7109100000000003  1.0000
  H   H155      1.0  0.8841300000000002  0.14866  0.64649  1.0000
  H   H156      1.0  0.7547400000000002  0.2725  0.7664100000000001  1.0000
  H   H157      1.0  0.2786  0.8298200000000001  0.5684400000000001  1.0000
  H   H158      1.0  0.4118900000000001  0.7104700000000003  0.55696  1.0000
  H   H159      1.0  0.4238400000000001  0.8371500000000001  0.6217900000000001  1.0000
  H   H160      1.0  0.47736  0.75701  0.63819  1.0000
  H   H161      1.0  0.54174  0.73662  0.62074  1.0000
  H   H162      1.0  0.57746  0.9071500000000002  0.6354  1.0000
  H   H163      1.0  0.563  0.77727  0.57247  1.0000
  H   H164      1.0  0.6918900000000001  0.9022400000000002  0.56513  1.0000
  H   H165      1.0  0.09516000000000002  0.72952  0.71276  1.0000
  H   H166      1.0  0.24149000000000007  0.83578  0.7109100000000003  1.0000
  H   H167      1.0  0.11587  0.85134  0.64649  1.0000
  H   H168      1.0  0.24527  0.7275000000000003  0.7664100000000001  1.0000
  H   H169      1.0  0.17019000000000004  0.2786  0.5684400000000001  1.0000
  H   H170      1.0  0.28953  0.4118900000000001  0.55696  1.0000
  H   H171      1.0  0.16286000000000003  0.4238400000000001  0.6217900000000001  1.0000
  H   H172      1.0  0.24299000000000004  0.47736  0.63819  1.0000
  H   H173      1.0  0.26338  0.54174  0.62074  1.0000
  H   H174      1.0  0.09285000000000003  0.57746  0.6354  1.0000
  H   H175      1.0  0.22273  0.563  0.57247  1.0000
  H   H176      1.0  0.09776000000000003  0.6918900000000001  0.56513  1.0000
  H   H177      1.0  0.27048  0.09516000000000002  0.71276  1.0000
  H   H178      1.0  0.16423  0.24149000000000007  0.7109100000000003  1.0000
  H   H179      1.0  0.14866  0.11587  0.64649  1.0000
  H   H180      1.0  0.2725  0.24527  0.7664100000000001  1.0000
  H   H181      1.0  0.8298200000000001  0.7214000000000003  0.5684400000000001  1.0000
  H   H182      1.0  0.7104700000000003  0.58811  0.55696  1.0000
  H   H183      1.0  0.8371500000000001  0.57616  0.6217900000000001  1.0000
  H   H184      1.0  0.75701  0.52265  0.63819  1.0000
  H   H185      1.0  0.73662  0.4582600000000001  0.62074  1.0000
  H   H186      1.0  0.9071500000000002  0.42254  0.6354  1.0000
  H   H187      1.0  0.77727  0.437  0.57247  1.0000
  H   H188      1.0  0.9022400000000002  0.30811  0.56513  1.0000
  H   H189      1.0  0.72952  0.90484  0.71276  1.0000
  H   H190      1.0  0.83578  0.7585100000000002  0.7109100000000003  1.0000
  H   H191      1.0  0.85134  0.8841300000000002  0.64649  1.0000
  H   H192      1.0  0.7275000000000003  0.7547400000000002  0.7664100000000001  1.0000
  C   C1        1.0  0.67628  0.88543  0.11245000000000001  1.0000
  C   C2        1.0  0.65142  0.8372400000000001  0.09679000000000001  1.0000
  C   C3        1.0  0.6811400000000001  0.81311  0.07455  1.0000
  C   C4        1.0  0.65862  0.76684  0.06045  1.0000
  C   C5        1.0  0.6921100000000001  0.73884  0.0379  1.0000
  C   C6        1.0  0.60583  0.74626  0.06782000000000002  1.0000
  C   C7        1.0  0.5756500000000001  0.77189  0.08958  1.0000
  C   C8        1.0  0.59856  0.8167200000000001  0.10459000000000003  1.0000
  C   C9        1.0  0.49511000000000005  0.7643500000000002  0.11988  1.0000
  C   C10       1.0  0.33281  0.9601  0.11328000000000002  1.0000
  C   C11       1.0  0.3628300000000001  0.91074  0.10117000000000002  1.0000
  C   C12       1.0  0.40837000000000007  0.8882800000000002  0.11587000000000003  1.0000
  C   C13       1.0  0.43474  0.84012  0.10578  1.0000
  C   C14       1.0  0.41665000000000013  0.8144100000000002  0.08093  1.0000
  C   C15       1.0  0.37089  0.83729  0.06634  1.0000
  C   C16       1.0  0.3498500000000001  0.80876  0.04036  1.0000
  C   C17       1.0  0.34381  0.88524  0.07634000000000002  1.0000
  C   C18       1.0  0.9530700000000001  0.7686300000000003  0.16490000000000002  1.0000
  C   C19       1.0  0.90021  0.78859  0.17843000000000006  1.0000
  C   C20       1.0  0.88065  0.76263  0.203  1.0000
  C   C21       1.0  0.82948  0.7790400000000001  0.21470000000000006  1.0000
  C   C22       1.0  0.7978800000000003  0.8214  0.20215000000000005  1.0000
  C   C23       1.0  0.86909  0.8313500000000003  0.16569  1.0000
  C   C24       1.0  0.81813  0.8474400000000002  0.17759000000000003  1.0000
  C   C25       1.0  0.7841700000000001  0.89235  0.16388  1.0000
  C   C26       1.0  0.32372  0.11458  0.11245000000000001  1.0000
  C   C27       1.0  0.34859000000000007  0.16276  0.09679000000000001  1.0000
  C   C28       1.0  0.31886  0.18689000000000006  0.07455  1.0000
  C   C29       1.0  0.3413800000000001  0.23317000000000002  0.06045  1.0000
  C   C30       1.0  0.30789000000000005  0.26116  0.0379  1.0000
  C   C31       1.0  0.3941700000000001  0.25375  0.06782000000000002  1.0000
  C   C32       1.0  0.42435  0.22811000000000006  0.08958  1.0000
  C   C33       1.0  0.40144  0.18328000000000005  0.10459000000000003  1.0000
  C   C34       1.0  0.5048900000000001  0.23565000000000003  0.11988  1.0000
  C   C35       1.0  0.6671900000000001  0.0399  0.11328000000000002  1.0000
  C   C36       1.0  0.63718  0.08926  0.10117000000000002  1.0000
  C   C37       1.0  0.59163  0.11172  0.11587000000000003  1.0000
  C   C38       1.0  0.5652600000000001  0.15989  0.10578  1.0000
  C   C39       1.0  0.58336  0.18559000000000006  0.08093  1.0000
  C   C40       1.0  0.62911  0.16271  0.06634  1.0000
  C   C41       1.0  0.65015  0.19124  0.04036  1.0000
  C   C42       1.0  0.6561900000000002  0.11476000000000003  0.07634000000000002  1.0000
  C   C43       1.0  0.04694  0.23137000000000002  0.16490000000000002  1.0000
  C   C44       1.0  0.0998  0.21141000000000004  0.17843000000000006  1.0000
  C   C45       1.0  0.11935000000000001  0.23738  0.203  1.0000
  C   C46       1.0  0.17053  0.22097  0.21470000000000006  1.0000
  C   C47       1.0  0.20213  0.17860000000000006  0.20215000000000005  1.0000
  C   C48       1.0  0.13091000000000003  0.16866000000000003  0.16569  1.0000
  C   C49       1.0  0.18188  0.15257000000000004  0.17759000000000003  1.0000
  C   C50       1.0  0.21583  0.10765000000000002  0.16388  1.0000
  C   C51       1.0  0.11458  0.67628  0.11245000000000001  1.0000
  C   C52       1.0  0.16276  0.65142  0.09679000000000001  1.0000
  C   C53       1.0  0.18689000000000006  0.6811400000000001  0.07455  1.0000
  C   C54       1.0  0.23317000000000002  0.65862  0.06045  1.0000
  C   C55       1.0  0.26116  0.6921100000000001  0.0379  1.0000
  C   C56       1.0  0.25375  0.60583  0.06782000000000002  1.0000
  C   C57       1.0  0.22811000000000006  0.5756500000000001  0.08958  1.0000
  C   C58       1.0  0.18328000000000005  0.59856  0.10459000000000003  1.0000
  C   C59       1.0  0.23565000000000003  0.49511000000000005  0.11988  1.0000
  C   C60       1.0  0.0399  0.33281  0.11328000000000002  1.0000
  C   C61       1.0  0.08926  0.3628300000000001  0.10117000000000002  1.0000
  C   C62       1.0  0.11172  0.40837000000000007  0.11587000000000003  1.0000
  C   C63       1.0  0.15989  0.43474  0.10578  1.0000
  C   C64       1.0  0.18559000000000006  0.41665000000000013  0.08093  1.0000
  C   C65       1.0  0.16271  0.37089  0.06634  1.0000
  C   C66       1.0  0.19124  0.3498500000000001  0.04036  1.0000
  C   C67       1.0  0.11476000000000003  0.34381  0.07634000000000002  1.0000
  C   C68       1.0  0.23137000000000002  0.9530700000000001  0.16490000000000002  1.0000
  C   C69       1.0  0.21141000000000004  0.90021  0.17843000000000006  1.0000
  C   C70       1.0  0.23738  0.88065  0.203  1.0000
  C   C71       1.0  0.22097  0.82948  0.21470000000000006  1.0000
  C   C72       1.0  0.17860000000000006  0.7978800000000003  0.20215000000000005  1.0000
  C   C73       1.0  0.16866000000000003  0.86909  0.16569  1.0000
  C   C74       1.0  0.15257000000000004  0.81813  0.17759000000000003  1.0000
  C   C75       1.0  0.10765000000000002  0.7841700000000001  0.16388  1.0000
  C   C76       1.0  0.88543  0.32372  0.11245000000000001  1.0000
  C   C77       1.0  0.8372400000000001  0.34859000000000007  0.09679000000000001  1.0000
  C   C78       1.0  0.81311  0.31886  0.07455  1.0000
  C   C79       1.0  0.76684  0.3413800000000001  0.06045  1.0000
  C   C80       1.0  0.73884  0.30789000000000005  0.0379  1.0000
  C   C81       1.0  0.74626  0.3941700000000001  0.06782000000000002  1.0000
  C   C82       1.0  0.77189  0.42435  0.08958  1.0000
  C   C83       1.0  0.8167200000000001  0.40144  0.10459000000000003  1.0000
  C   C84       1.0  0.7643500000000002  0.5048900000000001  0.11988  1.0000
  C   C85       1.0  0.9601  0.6671900000000001  0.11328000000000002  1.0000
  C   C86       1.0  0.91074  0.63718  0.10117000000000002  1.0000
  C   C87       1.0  0.8882800000000002  0.59163  0.11587000000000003  1.0000
  C   C88       1.0  0.84012  0.5652600000000001  0.10578  1.0000
  C   C89       1.0  0.8144100000000002  0.58336  0.08093  1.0000
  C   C90       1.0  0.83729  0.62911  0.06634  1.0000
  C   C91       1.0  0.80876  0.65015  0.04036  1.0000
  C   C92       1.0  0.88524  0.6561900000000002  0.07634000000000002  1.0000
  C   C93       1.0  0.7686300000000003  0.04694  0.16490000000000002  1.0000
  C   C94       1.0  0.78859  0.0998  0.17843000000000006  1.0000
  C   C95       1.0  0.76263  0.11935000000000001  0.203  1.0000
  C   C96       1.0  0.7790400000000001  0.17053  0.21470000000000006  1.0000
  C   C97       1.0  0.8214  0.20213  0.20215000000000005  1.0000
  C   C98       1.0  0.8313500000000003  0.13091000000000003  0.16569  1.0000
  C   C99       1.0  0.8474400000000002  0.18188  0.17759000000000003  1.0000
  C   C100      1.0  0.89235  0.21583  0.16388  1.0000
  C   C101      1.0  0.32378  0.8855100000000002  0.38752  1.0000
  C   C102      1.0  0.34870000000000007  0.83731  0.40313  1.0000
  C   C103      1.0  0.31904  0.8132000000000003  0.4254000000000001  1.0000
  C   C104      1.0  0.34153  0.7669400000000002  0.4395  1.0000
  C   C105      1.0  0.30801000000000006  0.73923  0.46212  1.0000
  C   C106      1.0  0.39427000000000006  0.74626  0.4320600000000001  1.0000
  C   C107      1.0  0.42444  0.77191  0.41029  1.0000
  C   C108      1.0  0.40154  0.81677  0.39529  1.0000
  C   C109      1.0  0.5050300000000001  0.76412  0.37994  1.0000
  C   C110      1.0  0.6670300000000001  0.95996  0.38662  1.0000
  C   C111      1.0  0.6371000000000001  0.9106500000000001  0.3988200000000001  1.0000
  C   C112      1.0  0.59166  0.88807  0.3841200000000001  1.0000
  C   C113      1.0  0.56544  0.83979  0.39416  1.0000
  C   C114      1.0  0.58342  0.8142100000000002  0.4190800000000001  1.0000
  C   C115      1.0  0.62919  0.8372100000000002  0.43369  1.0000
  C   C116      1.0  0.65047  0.80878  0.45969  1.0000
  C   C117      1.0  0.6561600000000001  0.8852  0.42366  1.0000
  C   C118      1.0  0.046930000000000006  0.7685900000000001  0.33508  1.0000
  C   C119      1.0  0.0998  0.78864  0.3216  1.0000
  C   C120      1.0  0.11935000000000001  0.76272  0.29702000000000006  1.0000
  C   C121      1.0  0.17054  0.77913  0.28533  1.0000
  C   C122      1.0  0.20211000000000004  0.82151  0.29789  1.0000
  C   C123      1.0  0.13091000000000003  0.8313700000000003  0.33437  1.0000
  C   C124      1.0  0.18186000000000005  0.8474900000000001  0.32247000000000003  1.0000
  C   C125      1.0  0.21585000000000001  0.89239  0.33616  1.0000
  C   C126      1.0  0.67623  0.11449  0.38752  1.0000
  C   C127      1.0  0.6513  0.16270000000000004  0.40313  1.0000
  C   C128      1.0  0.68097  0.1868  0.4254000000000001  1.0000
  C   C129      1.0  0.65848  0.23307000000000005  0.4395  1.0000
  C   C130      1.0  0.6920000000000002  0.26078  0.46212  1.0000
  C   C131      1.0  0.60573  0.25374  0.4320600000000001  1.0000
  C   C132      1.0  0.57556  0.22809000000000001  0.41029  1.0000
  C   C133      1.0  0.59846  0.18324  0.39529  1.0000
  C   C134      1.0  0.49497  0.23589000000000004  0.37994  1.0000
  C   C135      1.0  0.33298  0.04005  0.38662  1.0000
  C   C136      1.0  0.36291000000000007  0.08935000000000001  0.3988200000000001  1.0000
  C   C137      1.0  0.40834  0.11194000000000003  0.3841200000000001  1.0000
  C   C138      1.0  0.4345600000000001  0.16021  0.39416  1.0000
  C   C139      1.0  0.41658  0.18579  0.4190800000000001  1.0000
  C   C140      1.0  0.3708200000000001  0.16279  0.43369  1.0000
  C   C141      1.0  0.34954  0.19123000000000007  0.45969  1.0000
  C   C142      1.0  0.34385000000000004  0.1148  0.42366  1.0000
  C   C143      1.0  0.9530700000000001  0.23141  0.33508  1.0000
  C   C144      1.0  0.90021  0.21136000000000005  0.3216  1.0000
  C   C145      1.0  0.88065  0.23728000000000002  0.29702000000000006  1.0000
  C   C146      1.0  0.82947  0.22087  0.28533  1.0000
  C   C147      1.0  0.7978900000000001  0.17849000000000007  0.29789  1.0000
  C   C148      1.0  0.86909  0.16864  0.33437  1.0000
  C   C149      1.0  0.8181400000000002  0.15251  0.32247000000000003  1.0000
  C   C150      1.0  0.78416  0.10761  0.33616  1.0000
  C   C151      1.0  0.8855100000000002  0.67623  0.38752  1.0000
  C   C152      1.0  0.83731  0.6513  0.40313  1.0000
  C   C153      1.0  0.8132000000000003  0.68097  0.4254000000000001  1.0000
  C   C154      1.0  0.7669400000000002  0.65848  0.4395  1.0000
  C   C155      1.0  0.73923  0.6920000000000002  0.46212  1.0000
  C   C156      1.0  0.74626  0.60573  0.4320600000000001  1.0000
  C   C157      1.0  0.77191  0.57556  0.41029  1.0000
  C   C158      1.0  0.81677  0.59846  0.39529  1.0000
  C   C159      1.0  0.76412  0.49497  0.37994  1.0000
  C   C160      1.0  0.95996  0.33298  0.38662  1.0000
  C   C161      1.0  0.9106500000000001  0.36291000000000007  0.3988200000000001  1.0000
  C   C162      1.0  0.88807  0.40834  0.3841200000000001  1.0000
  C   C163      1.0  0.83979  0.4345600000000001  0.39416  1.0000
  C   C164      1.0  0.8142100000000002  0.41658  0.4190800000000001  1.0000
  C   C165      1.0  0.8372100000000002  0.3708200000000001  0.43369  1.0000
  C   C166      1.0  0.80878  0.34954  0.45969  1.0000
  C   C167      1.0  0.8852  0.34385000000000004  0.42366  1.0000
  C   C168      1.0  0.7685900000000001  0.9530700000000001  0.33508  1.0000
  C   C169      1.0  0.78864  0.90021  0.3216  1.0000
  C   C170      1.0  0.76272  0.88065  0.29702000000000006  1.0000
  C   C171      1.0  0.77913  0.82947  0.28533  1.0000
  C   C172      1.0  0.82151  0.7978900000000001  0.29789  1.0000
  C   C173      1.0  0.8313700000000003  0.86909  0.33437  1.0000
  C   C174      1.0  0.8474900000000001  0.8181400000000002  0.32247000000000003  1.0000
  C   C175      1.0  0.89239  0.78416  0.33616  1.0000
  C   C176      1.0  0.11449  0.32378  0.38752  1.0000
  C   C177      1.0  0.16270000000000004  0.34870000000000007  0.40313  1.0000
  C   C178      1.0  0.18681  0.31904  0.4254000000000001  1.0000
  C   C179      1.0  0.23307000000000005  0.34153  0.4395  1.0000
  C   C180      1.0  0.26078  0.30801000000000006  0.46212  1.0000
  C   C181      1.0  0.25374  0.39427000000000006  0.4320600000000001  1.0000
  C   C182      1.0  0.22810000000000002  0.42444  0.41029  1.0000
  C   C183      1.0  0.18324  0.40154  0.39529  1.0000
  C   C184      1.0  0.23589000000000004  0.5050300000000001  0.37994  1.0000
  C   C185      1.0  0.04005  0.6670300000000001  0.38662  1.0000
  C   C186      1.0  0.08935000000000001  0.6371000000000001  0.3988200000000001  1.0000
  C   C187      1.0  0.11194000000000003  0.59166  0.3841200000000001  1.0000
  C   C188      1.0  0.16021  0.56544  0.39416  1.0000
  C   C189      1.0  0.18579  0.58342  0.4190800000000001  1.0000
  C   C190      1.0  0.16279  0.62919  0.43369  1.0000
  C   C191      1.0  0.19123000000000007  0.65047  0.45969  1.0000
  C   C192      1.0  0.1148  0.6561600000000001  0.42366  1.0000
  C   C193      1.0  0.23141  0.046930000000000006  0.33508  1.0000
  C   C194      1.0  0.21136000000000005  0.0998  0.3216  1.0000
  C   C195      1.0  0.23728000000000002  0.11935000000000001  0.29702000000000006  1.0000
  C   C196      1.0  0.22087  0.17054  0.28533  1.0000
  C   C197      1.0  0.17849000000000007  0.20211000000000004  0.29789  1.0000
  C   C198      1.0  0.16864  0.13091000000000003  0.33437  1.0000
  C   C199      1.0  0.15251  0.18186000000000005  0.32247000000000003  1.0000
  C   C200      1.0  0.10761  0.21585000000000001  0.33616  1.0000
  C   C201      1.0  0.32372  0.11458  0.88754  1.0000
  C   C202      1.0  0.34859000000000007  0.16276  0.90321  1.0000
  C   C203      1.0  0.31886  0.18689000000000006  0.92545  1.0000
  C   C204      1.0  0.3413800000000001  0.23317000000000002  0.93955  1.0000
  C   C205      1.0  0.30789000000000005  0.26116  0.9621  1.0000
  C   C206      1.0  0.3941700000000001  0.25375  0.93218  1.0000
  C   C207      1.0  0.42435  0.22811000000000006  0.9104200000000001  1.0000
  C   C208      1.0  0.40144  0.18328000000000005  0.8954000000000001  1.0000
  C   C209      1.0  0.5048900000000001  0.23565000000000003  0.8801200000000002  1.0000
  C   C210      1.0  0.6671900000000001  0.0399  0.8867200000000001  1.0000
  C   C211      1.0  0.63718  0.08926  0.89883  1.0000
  C   C212      1.0  0.59163  0.11172  0.88412  1.0000
  C   C213      1.0  0.5652600000000001  0.15989  0.89422  1.0000
  C   C214      1.0  0.58336  0.18559000000000006  0.91907  1.0000
  C   C215      1.0  0.62911  0.16271  0.9336600000000003  1.0000
  C   C216      1.0  0.65015  0.19124  0.9596400000000003  1.0000
  C   C217      1.0  0.6561900000000002  0.11476000000000003  0.9236500000000001  1.0000
  C   C218      1.0  0.04694  0.23137000000000002  0.8351000000000002  1.0000
  C   C219      1.0  0.0998  0.21141000000000004  0.82157  1.0000
  C   C220      1.0  0.11935000000000001  0.23738  0.797  1.0000
  C   C221      1.0  0.17053  0.22097  0.7853000000000002  1.0000
  C   C222      1.0  0.20213  0.17860000000000006  0.7978500000000001  1.0000
  C   C223      1.0  0.13091000000000003  0.16866000000000003  0.83431  1.0000
  C   C224      1.0  0.18188  0.15257000000000004  0.82241  1.0000
  C   C225      1.0  0.21583  0.10765000000000002  0.8361100000000002  1.0000
  C   C226      1.0  0.67628  0.88543  0.88754  1.0000
  C   C227      1.0  0.65142  0.8372400000000001  0.90321  1.0000
  C   C228      1.0  0.6811400000000001  0.81311  0.92545  1.0000
  C   C229      1.0  0.65862  0.76684  0.93955  1.0000
  C   C230      1.0  0.6921100000000001  0.73884  0.9621  1.0000
  C   C231      1.0  0.60583  0.74626  0.93218  1.0000
  C   C232      1.0  0.5756500000000001  0.77189  0.9104200000000001  1.0000
  C   C233      1.0  0.59856  0.8167200000000001  0.8954000000000001  1.0000
  C   C234      1.0  0.49511000000000005  0.7643500000000002  0.8801200000000002  1.0000
  C   C235      1.0  0.33281  0.9601  0.8867200000000001  1.0000
  C   C236      1.0  0.3628300000000001  0.91074  0.89883  1.0000
  C   C237      1.0  0.40837000000000007  0.8882800000000002  0.88412  1.0000
  C   C238      1.0  0.43474  0.84012  0.89422  1.0000
  C   C239      1.0  0.41665000000000013  0.8144100000000002  0.91907  1.0000
  C   C240      1.0  0.37089  0.83729  0.9336600000000003  1.0000
  C   C241      1.0  0.3498500000000001  0.80876  0.9596400000000003  1.0000
  C   C242      1.0  0.34381  0.88524  0.9236500000000001  1.0000
  C   C243      1.0  0.9530700000000001  0.7686300000000003  0.8351000000000002  1.0000
  C   C244      1.0  0.90021  0.78859  0.82157  1.0000
  C   C245      1.0  0.88065  0.76263  0.797  1.0000
  C   C246      1.0  0.82948  0.7790400000000001  0.7853000000000002  1.0000
  C   C247      1.0  0.7978800000000003  0.8214  0.7978500000000001  1.0000
  C   C248      1.0  0.86909  0.8313500000000003  0.83431  1.0000
  C   C249      1.0  0.81813  0.8474400000000002  0.82241  1.0000
  C   C250      1.0  0.7841700000000001  0.89235  0.8361100000000002  1.0000
  C   C251      1.0  0.88543  0.32372  0.88754  1.0000
  C   C252      1.0  0.8372400000000001  0.34859000000000007  0.90321  1.0000
  C   C253      1.0  0.81311  0.31886  0.92545  1.0000
  C   C254      1.0  0.76684  0.3413800000000001  0.93955  1.0000
  C   C255      1.0  0.73884  0.30789000000000005  0.9621  1.0000
  C   C256      1.0  0.74626  0.3941700000000001  0.93218  1.0000
  C   C257      1.0  0.77189  0.42435  0.9104200000000001  1.0000
  C   C258      1.0  0.8167200000000001  0.40144  0.8954000000000001  1.0000
  C   C259      1.0  0.7643500000000002  0.5048900000000001  0.8801200000000002  1.0000
  C   C260      1.0  0.9601  0.6671900000000001  0.8867200000000001  1.0000
  C   C261      1.0  0.91074  0.63718  0.89883  1.0000
  C   C262      1.0  0.8882800000000002  0.59163  0.88412  1.0000
  C   C263      1.0  0.84012  0.5652600000000001  0.89422  1.0000
  C   C264      1.0  0.8144100000000002  0.58336  0.91907  1.0000
  C   C265      1.0  0.83729  0.62911  0.9336600000000003  1.0000
  C   C266      1.0  0.80876  0.65015  0.9596400000000003  1.0000
  C   C267      1.0  0.88524  0.6561900000000002  0.9236500000000001  1.0000
  C   C268      1.0  0.7686300000000003  0.04694  0.8351000000000002  1.0000
  C   C269      1.0  0.78859  0.0998  0.82157  1.0000
  C   C270      1.0  0.76263  0.11935000000000001  0.797  1.0000
  C   C271      1.0  0.7790400000000001  0.17053  0.7853000000000002  1.0000
  C   C272      1.0  0.8214  0.20213  0.7978500000000001  1.0000
  C   C273      1.0  0.8313500000000003  0.13091000000000003  0.83431  1.0000
  C   C274      1.0  0.8474400000000002  0.18188  0.82241  1.0000
  C   C275      1.0  0.89235  0.21583  0.8361100000000002  1.0000
  C   C276      1.0  0.11458  0.67628  0.88754  1.0000
  C   C277      1.0  0.16276  0.65142  0.90321  1.0000
  C   C278      1.0  0.18689000000000006  0.6811400000000001  0.92545  1.0000
  C   C279      1.0  0.23317000000000002  0.65862  0.93955  1.0000
  C   C280      1.0  0.26116  0.6921100000000001  0.9621  1.0000
  C   C281      1.0  0.25375  0.60583  0.93218  1.0000
  C   C282      1.0  0.22811000000000006  0.5756500000000001  0.9104200000000001  1.0000
  C   C283      1.0  0.18328000000000005  0.59856  0.8954000000000001  1.0000
  C   C284      1.0  0.23565000000000003  0.49511000000000005  0.8801200000000002  1.0000
  C   C285      1.0  0.0399  0.33281  0.8867200000000001  1.0000
  C   C286      1.0  0.08926  0.3628300000000001  0.89883  1.0000
  C   C287      1.0  0.11172  0.40837000000000007  0.88412  1.0000
  C   C288      1.0  0.15989  0.43474  0.89422  1.0000
  C   C289      1.0  0.18559000000000006  0.41665000000000013  0.91907  1.0000
  C   C290      1.0  0.16271  0.37089  0.9336600000000003  1.0000
  C   C291      1.0  0.19124  0.3498500000000001  0.9596400000000003  1.0000
  C   C292      1.0  0.11476000000000003  0.34381  0.9236500000000001  1.0000
  C   C293      1.0  0.23137000000000002  0.9530700000000001  0.8351000000000002  1.0000
  C   C294      1.0  0.21141000000000004  0.90021  0.82157  1.0000
  C   C295      1.0  0.23738  0.88065  0.797  1.0000
  C   C296      1.0  0.22097  0.82948  0.7853000000000002  1.0000
  C   C297      1.0  0.17860000000000006  0.7978800000000003  0.7978500000000001  1.0000
  C   C298      1.0  0.16866000000000003  0.86909  0.83431  1.0000
  C   C299      1.0  0.15257000000000004  0.81813  0.82241  1.0000
  C   C300      1.0  0.10765000000000002  0.7841700000000001  0.8361100000000002  1.0000
  C   C301      1.0  0.67623  0.11449  0.61247  1.0000
  C   C302      1.0  0.6513  0.16270000000000004  0.59686  1.0000
  C   C303      1.0  0.68097  0.18681  0.5746  1.0000
  C   C304      1.0  0.65848  0.23307000000000005  0.5605  1.0000
  C   C305      1.0  0.6920000000000002  0.26078  0.53788  1.0000
  C   C306      1.0  0.60573  0.25374  0.56794  1.0000
  C   C307      1.0  0.57556  0.22810000000000002  0.58971  1.0000
  C   C308      1.0  0.59846  0.18324  0.6047000000000001  1.0000
  C   C309      1.0  0.49497  0.23589000000000004  0.62006  1.0000
  C   C310      1.0  0.33298  0.04005  0.61338  1.0000
  C   C311      1.0  0.36291000000000007  0.08935000000000001  0.60118  1.0000
  C   C312      1.0  0.40834  0.11194000000000003  0.61588  1.0000
  C   C313      1.0  0.4345600000000001  0.16021  0.60584  1.0000
  C   C314      1.0  0.41658  0.18579  0.58092  1.0000
  C   C315      1.0  0.3708200000000001  0.16279  0.5663100000000001  1.0000
  C   C316      1.0  0.34954  0.19123000000000007  0.54031  1.0000
  C   C317      1.0  0.34385000000000004  0.1148  0.57634  1.0000
  C   C318      1.0  0.9530700000000001  0.23141  0.66492  1.0000
  C   C319      1.0  0.90021  0.21136000000000005  0.6784  1.0000
  C   C320      1.0  0.88065  0.23728000000000002  0.7029700000000001  1.0000
  C   C321      1.0  0.82947  0.22087  0.71467  1.0000
  C   C322      1.0  0.7978900000000001  0.17849000000000007  0.70211  1.0000
  C   C323      1.0  0.86909  0.16864  0.6656200000000001  1.0000
  C   C324      1.0  0.8181400000000002  0.15251  0.6775300000000001  1.0000
  C   C325      1.0  0.78416  0.10761  0.66384  1.0000
  C   C326      1.0  0.32378  0.8855100000000002  0.61247  1.0000
  C   C327      1.0  0.34870000000000007  0.83731  0.59686  1.0000
  C   C328      1.0  0.31904  0.8132000000000003  0.5746  1.0000
  C   C329      1.0  0.34153  0.7669400000000002  0.5605  1.0000
  C   C330      1.0  0.30801000000000006  0.73923  0.53788  1.0000
  C   C331      1.0  0.39427000000000006  0.74626  0.56794  1.0000
  C   C332      1.0  0.42444  0.77191  0.58971  1.0000
  C   C333      1.0  0.40154  0.81677  0.6047000000000001  1.0000
  C   C334      1.0  0.5050300000000001  0.76412  0.62006  1.0000
  C   C335      1.0  0.6670300000000001  0.95996  0.61338  1.0000
  C   C336      1.0  0.6371000000000001  0.9106500000000001  0.60118  1.0000
  C   C337      1.0  0.59166  0.88807  0.61588  1.0000
  C   C338      1.0  0.56544  0.83979  0.60584  1.0000
  C   C339      1.0  0.58342  0.8142100000000002  0.58092  1.0000
  C   C340      1.0  0.62919  0.8372100000000002  0.5663100000000001  1.0000
  C   C341      1.0  0.65047  0.80878  0.54031  1.0000
  C   C342      1.0  0.6561600000000001  0.8852  0.57634  1.0000
  C   C343      1.0  0.046930000000000006  0.7685900000000001  0.66492  1.0000
  C   C344      1.0  0.0998  0.78864  0.6784  1.0000
  C   C345      1.0  0.11935000000000001  0.76272  0.7029700000000001  1.0000
  C   C346      1.0  0.17054  0.77913  0.71467  1.0000
  C   C347      1.0  0.20211000000000004  0.82151  0.70211  1.0000
  C   C348      1.0  0.13091000000000003  0.8313700000000003  0.6656200000000001  1.0000
  C   C349      1.0  0.18186000000000005  0.8474900000000001  0.6775300000000001  1.0000
  C   C350      1.0  0.21585000000000001  0.89239  0.66384  1.0000
  C   C351      1.0  0.11449  0.32378  0.61247  1.0000
  C   C352      1.0  0.16270000000000004  0.34870000000000007  0.59686  1.0000
  C   C353      1.0  0.18681  0.31904  0.5746  1.0000
  C   C354      1.0  0.23307000000000005  0.34153  0.5605  1.0000
  C   C355      1.0  0.26078  0.30801000000000006  0.53788  1.0000
  C   C356      1.0  0.25374  0.39427000000000006  0.56794  1.0000
  C   C357      1.0  0.22809000000000001  0.42444  0.58971  1.0000
  C   C358      1.0  0.18324  0.40154  0.6047000000000001  1.0000
  C   C359      1.0  0.23589000000000004  0.5050300000000001  0.62006  1.0000
  C   C360      1.0  0.04005  0.6670300000000001  0.61338  1.0000
  C   C361      1.0  0.08935000000000001  0.6371000000000001  0.60118  1.0000
  C   C362      1.0  0.11194000000000003  0.59166  0.61588  1.0000
  C   C363      1.0  0.16021  0.56544  0.60584  1.0000
  C   C364      1.0  0.18579  0.58342  0.58092  1.0000
  C   C365      1.0  0.16279  0.62919  0.5663100000000001  1.0000
  C   C366      1.0  0.19123000000000007  0.65047  0.54031  1.0000
  C   C367      1.0  0.1148  0.6561600000000001  0.57634  1.0000
  C   C368      1.0  0.23141  0.046930000000000006  0.66492  1.0000
  C   C369      1.0  0.21136000000000005  0.0998  0.6784  1.0000
  C   C370      1.0  0.23728000000000002  0.11935000000000001  0.7029700000000001  1.0000
  C   C371      1.0  0.22087  0.17054  0.71467  1.0000
  C   C372      1.0  0.17849000000000007  0.20211000000000004  0.70211  1.0000
  C   C373      1.0  0.16864  0.13091000000000003  0.6656200000000001  1.0000
  C   C374      1.0  0.15251  0.18186000000000005  0.6775300000000001  1.0000
  C   C375      1.0  0.10761  0.21585000000000001  0.66384  1.0000
  C   C376      1.0  0.8855100000000002  0.6762200000000002  0.61247  1.0000
  C   C377      1.0  0.83731  0.6513  0.59686  1.0000
  C   C378      1.0  0.8132000000000003  0.68097  0.5746  1.0000
  C   C379      1.0  0.7669400000000002  0.65848  0.5605  1.0000
  C   C380      1.0  0.73923  0.6920000000000002  0.53788  1.0000
  C   C381      1.0  0.7462700000000001  0.60573  0.56794  1.0000
  C   C382      1.0  0.77191  0.57556  0.58971  1.0000
  C   C383      1.0  0.81677  0.59846  0.6047000000000001  1.0000
  C   C384      1.0  0.76412  0.49497  0.62006  1.0000
  C   C385      1.0  0.95996  0.33298  0.61338  1.0000
  C   C386      1.0  0.9106500000000001  0.36291000000000007  0.60118  1.0000
  C   C387      1.0  0.88807  0.40834  0.61588  1.0000
  C   C388      1.0  0.83979  0.4345600000000001  0.60584  1.0000
  C   C389      1.0  0.8142100000000002  0.41658  0.58092  1.0000
  C   C390      1.0  0.8372100000000002  0.3708200000000001  0.5663100000000001  1.0000
  C   C391      1.0  0.80878  0.34954  0.54031  1.0000
  C   C392      1.0  0.8852  0.34385000000000004  0.57634  1.0000
  C   C393      1.0  0.7685900000000001  0.9530700000000001  0.66492  1.0000
  C   C394      1.0  0.78864  0.90021  0.6784  1.0000
  C   C395      1.0  0.76272  0.88065  0.7029700000000001  1.0000
  C   C396      1.0  0.77913  0.82947  0.71467  1.0000
  C   C397      1.0  0.82151  0.7978900000000001  0.70211  1.0000
  C   C398      1.0  0.8313700000000003  0.86909  0.6656200000000001  1.0000
  C   C399      1.0  0.8474900000000001  0.8181400000000002  0.6775300000000001  1.0000
  C   C400      1.0  0.89239  0.78416  0.66384  1.0000
  C   C401      1.0  0.75947  0.7594800000000002  0.25002  1.0000
  C   C402      1.0  0.24054  0.24053  0.25002  1.0000
  C   C403      1.0  0.24053  0.75947  0.25002  1.0000
  C   C404      1.0  0.7594800000000002  0.24054  0.25002  1.0000
  C   C405      1.0  0.24054  0.24053  0.74998  1.0000
  C   C406      1.0  0.75947  0.7594800000000002  0.74998  1.0000
  C   C407      1.0  0.7594800000000002  0.24054  0.74998  1.0000
  C   C408      1.0  0.24053  0.75947  0.74998  1.0000
  O   O1        1.0  0.65021  0.9029  0.13438  1.0000
  O   O2        1.0  0.72218  0.90521  0.10276000000000002  1.0000
  O   O3        1.0  0.73629  0.7643  0.02973  1.0000
  O   O4        1.0  0.6746600000000001  0.69155  0.028800000000000003  1.0000
  O   O5        1.0  0.35249  0.9801400000000002  0.13635  1.0000
  O   O6        1.0  0.28938  0.9777  0.10020000000000003  1.0000
  O   O7        1.0  0.37788  0.76696  0.031000000000000007  1.0000
  O   O8        1.0  0.3045300000000001  0.8279700000000002  0.02979  1.0000
  O   O9        1.0  0.5228400000000001  0.74986  0.09435  1.0000
  O   O10       1.0  0.47916  0.8214500000000002  0.12206  1.0000
  O   O11       1.0  0.97998  0.7293500000000002  0.17735  1.0000
  O   O12       1.0  0.9666500000000001  0.7915000000000002  0.14146  1.0000
  O   O13       1.0  0.73583  0.9025200000000002  0.17438  1.0000
  O   O14       1.0  0.80584  0.9169000000000002  0.14254000000000003  1.0000
  O   O15       1.0  0.81387  0.7502200000000001  0.23883  1.0000
  O   O16       1.0  0.34979  0.09711000000000003  0.13438  1.0000
  O   O17       1.0  0.27783  0.09479000000000001  0.10276000000000002  1.0000
  O   O18       1.0  0.26372  0.2357  0.02973  1.0000
  O   O19       1.0  0.3253400000000001  0.30846000000000007  0.028800000000000003  1.0000
  O   O20       1.0  0.6475100000000001  0.019860000000000003  0.13635  1.0000
  O   O21       1.0  0.7106300000000002  0.0223  0.10020000000000003  1.0000
  O   O22       1.0  0.6221200000000001  0.23305  0.031000000000000007  1.0000
  O   O23       1.0  0.69547  0.17204000000000003  0.02979  1.0000
  O   O24       1.0  0.47716000000000003  0.25014  0.09435  1.0000
  O   O25       1.0  0.52084  0.17856  0.12206  1.0000
  O   O26       1.0  0.02003  0.27065  0.17735  1.0000
  O   O27       1.0  0.03335  0.2085  0.14146  1.0000
  O   O28       1.0  0.26417  0.09749000000000001  0.17438  1.0000
  O   O29       1.0  0.19417000000000006  0.08311000000000002  0.14254000000000003  1.0000
  O   O30       1.0  0.18613000000000002  0.24979  0.23883  1.0000
  O   O31       1.0  0.09711000000000003  0.65021  0.13438  1.0000
  O   O32       1.0  0.09479000000000001  0.72218  0.10276000000000002  1.0000
  O   O33       1.0  0.2357  0.73629  0.02973  1.0000
  O   O34       1.0  0.30846000000000007  0.6746600000000001  0.028800000000000003  1.0000
  O   O35       1.0  0.019860000000000003  0.35249  0.13635  1.0000
  O   O36       1.0  0.0223  0.28938  0.10020000000000003  1.0000
  O   O37       1.0  0.23305  0.37788  0.031000000000000007  1.0000
  O   O38       1.0  0.17204000000000003  0.3045300000000001  0.02979  1.0000
  O   O39       1.0  0.25014  0.5228400000000001  0.09435  1.0000
  O   O40       1.0  0.17856  0.47916  0.12206  1.0000
  O   O41       1.0  0.27065  0.97998  0.17735  1.0000
  O   O42       1.0  0.2085  0.9666500000000001  0.14146  1.0000
  O   O43       1.0  0.09749000000000001  0.73583  0.17438  1.0000
  O   O44       1.0  0.08311000000000002  0.80584  0.14254000000000003  1.0000
  O   O45       1.0  0.24979  0.81387  0.23883  1.0000
  O   O46       1.0  0.9029  0.34979  0.13438  1.0000
  O   O47       1.0  0.90521  0.27783  0.10276000000000002  1.0000
  O   O48       1.0  0.7643  0.26372  0.02973  1.0000
  O   O49       1.0  0.69155  0.3253400000000001  0.028800000000000003  1.0000
  O   O50       1.0  0.9801400000000002  0.6475100000000001  0.13635  1.0000
  O   O51       1.0  0.9777  0.7106300000000002  0.10020000000000003  1.0000
  O   O52       1.0  0.76696  0.6221200000000001  0.031000000000000007  1.0000
  O   O53       1.0  0.8279700000000002  0.69547  0.02979  1.0000
  O   O54       1.0  0.74986  0.47716000000000003  0.09435  1.0000
  O   O55       1.0  0.8214500000000002  0.52084  0.12206  1.0000
  O   O56       1.0  0.7293500000000002  0.02003  0.17735  1.0000
  O   O57       1.0  0.7915000000000002  0.03335  0.14146  1.0000
  O   O58       1.0  0.9025200000000002  0.26417  0.17438  1.0000
  O   O59       1.0  0.9169000000000002  0.19417000000000006  0.14254000000000003  1.0000
  O   O60       1.0  0.7502200000000001  0.18613000000000002  0.23883  1.0000
  O   O61       1.0  0.3498  0.90304  0.3656  1.0000
  O   O62       1.0  0.27786  0.90521  0.39724  1.0000
  O   O63       1.0  0.26404  0.765  0.47035  1.0000
  O   O64       1.0  0.32524  0.6918000000000002  0.47118  1.0000
  O   O65       1.0  0.64757  0.97963  0.36340000000000006  1.0000
  O   O66       1.0  0.7102400000000001  0.9778200000000001  0.39978000000000014  1.0000
  O   O67       1.0  0.6222600000000001  0.76718  0.46917  1.0000
  O   O68       1.0  0.69605  0.82776  0.47013000000000005  1.0000
  O   O69       1.0  0.47730000000000006  0.74994  0.40555  1.0000
  O   O70       1.0  0.52155  0.8209900000000002  0.3775300000000001  1.0000
  O   O71       1.0  0.01995  0.72952  0.32252  1.0000
  O   O72       1.0  0.03339  0.79125  0.35858  1.0000
  O   O73       1.0  0.26416  0.9025600000000003  0.32564  1.0000
  O   O74       1.0  0.19421000000000005  0.9169200000000002  0.35753  1.0000
  O   O75       1.0  0.18612  0.75025  0.26121  1.0000
  O   O76       1.0  0.6502000000000001  0.09696000000000002  0.3656  1.0000
  O   O77       1.0  0.7221500000000002  0.09479000000000001  0.39724  1.0000
  O   O78       1.0  0.73597  0.235  0.47035  1.0000
  O   O79       1.0  0.6747700000000002  0.30821  0.47118  1.0000
  O   O80       1.0  0.3524300000000001  0.02037  0.36340000000000006  1.0000
  O   O81       1.0  0.28977  0.022190000000000005  0.39978000000000014  1.0000
  O   O82       1.0  0.37774000000000013  0.23282  0.46917  1.0000
  O   O83       1.0  0.30395000000000005  0.17224  0.47013000000000005  1.0000
  O   O84       1.0  0.5227  0.25006  0.40555  1.0000
  O   O85       1.0  0.4784600000000001  0.17902  0.3775300000000001  1.0000
  O   O86       1.0  0.98005  0.27048  0.32252  1.0000
  O   O87       1.0  0.9666200000000003  0.20875000000000002  0.35858  1.0000
  O   O88       1.0  0.7358500000000001  0.09745  0.32564  1.0000
  O   O89       1.0  0.8057900000000001  0.08308000000000001  0.35753  1.0000
  O   O90       1.0  0.8138800000000003  0.24975000000000003  0.26121  1.0000
  O   O91       1.0  0.90304  0.6502000000000001  0.3656  1.0000
  O   O92       1.0  0.90521  0.7221500000000002  0.39724  1.0000
  O   O93       1.0  0.765  0.73597  0.47035  1.0000
  O   O94       1.0  0.6918000000000002  0.6747700000000002  0.47118  1.0000
  O   O95       1.0  0.97963  0.3524300000000001  0.36340000000000006  1.0000
  O   O96       1.0  0.9778200000000001  0.28977  0.39978000000000014  1.0000
  O   O97       1.0  0.76718  0.37774000000000013  0.46917  1.0000
  O   O98       1.0  0.82776  0.30395000000000005  0.47013000000000005  1.0000
  O   O99       1.0  0.74994  0.5227  0.40555  1.0000
  O   O100      1.0  0.8209900000000002  0.4784600000000001  0.3775300000000001  1.0000
  O   O101      1.0  0.72952  0.98005  0.32252  1.0000
  O   O102      1.0  0.79125  0.9666200000000003  0.35858  1.0000
  O   O103      1.0  0.9025600000000003  0.7358500000000001  0.32564  1.0000
  O   O104      1.0  0.9169200000000002  0.8057900000000001  0.35753  1.0000
  O   O105      1.0  0.75025  0.8138800000000003  0.26121  1.0000
  O   O106      1.0  0.09696000000000002  0.3498  0.3656  1.0000
  O   O107      1.0  0.09479000000000001  0.27786  0.39724  1.0000
  O   O108      1.0  0.235  0.26404  0.47035  1.0000
  O   O109      1.0  0.30821  0.32524  0.47118  1.0000
  O   O110      1.0  0.02037  0.64757  0.36340000000000006  1.0000
  O   O111      1.0  0.022190000000000005  0.7102400000000001  0.39978000000000014  1.0000
  O   O112      1.0  0.23282  0.6222600000000001  0.46917  1.0000
  O   O113      1.0  0.17224  0.69605  0.47013000000000005  1.0000
  O   O114      1.0  0.25006  0.47730000000000006  0.40555  1.0000
  O   O115      1.0  0.17902  0.52155  0.3775300000000001  1.0000
  O   O116      1.0  0.27048  0.01995  0.32252  1.0000
  O   O117      1.0  0.20875000000000002  0.03339  0.35858  1.0000
  O   O118      1.0  0.09745  0.26416  0.32564  1.0000
  O   O119      1.0  0.08308000000000001  0.19421000000000005  0.35753  1.0000
  O   O120      1.0  0.24975000000000003  0.18612  0.26121  1.0000
  O   O121      1.0  0.34979  0.09711000000000003  0.8656200000000001  1.0000
  O   O122      1.0  0.27783  0.09479000000000001  0.8972400000000001  1.0000
  O   O123      1.0  0.26372  0.2357  0.9702700000000001  1.0000
  O   O124      1.0  0.3253400000000001  0.30846000000000007  0.9712000000000002  1.0000
  O   O125      1.0  0.6475100000000001  0.019860000000000003  0.8636500000000001  1.0000
  O   O126      1.0  0.7106300000000002  0.0223  0.89979  1.0000
  O   O127      1.0  0.6221200000000001  0.23305  0.969  1.0000
  O   O128      1.0  0.69547  0.17204000000000003  0.9702000000000002  1.0000
  O   O129      1.0  0.47716000000000003  0.25014  0.90565  1.0000
  O   O130      1.0  0.52084  0.17856  0.87794  1.0000
  O   O131      1.0  0.02003  0.27065  0.82265  1.0000
  O   O132      1.0  0.03335  0.2085  0.8585400000000001  1.0000
  O   O133      1.0  0.26417  0.09749000000000001  0.82562  1.0000
  O   O134      1.0  0.19417000000000006  0.08311000000000002  0.85746  1.0000
  O   O135      1.0  0.18613000000000002  0.24979  0.76116  1.0000
  O   O136      1.0  0.65021  0.9029  0.8656200000000001  1.0000
  O   O137      1.0  0.72218  0.90521  0.8972400000000001  1.0000
  O   O138      1.0  0.73629  0.7643  0.9702700000000001  1.0000
  O   O139      1.0  0.6746600000000001  0.69155  0.9712000000000002  1.0000
  O   O140      1.0  0.35249  0.9801400000000002  0.8636500000000001  1.0000
  O   O141      1.0  0.28938  0.9777  0.89979  1.0000
  O   O142      1.0  0.37788  0.76696  0.969  1.0000
  O   O143      1.0  0.3045300000000001  0.8279700000000002  0.9702000000000002  1.0000
  O   O144      1.0  0.5228400000000001  0.74986  0.90565  1.0000
  O   O145      1.0  0.47916  0.8214500000000002  0.87794  1.0000
  O   O146      1.0  0.97998  0.7293500000000002  0.82265  1.0000
  O   O147      1.0  0.9666500000000001  0.7915000000000002  0.8585400000000001  1.0000
  O   O148      1.0  0.73583  0.9025200000000002  0.82562  1.0000
  O   O149      1.0  0.80584  0.9169000000000002  0.85746  1.0000
  O   O150      1.0  0.81387  0.7502200000000001  0.76116  1.0000
  O   O151      1.0  0.9029  0.34979  0.8656200000000001  1.0000
  O   O152      1.0  0.90521  0.27783  0.8972400000000001  1.0000
  O   O153      1.0  0.7643  0.26372  0.9702700000000001  1.0000
  O   O154      1.0  0.69155  0.3253400000000001  0.9712000000000002  1.0000
  O   O155      1.0  0.9801400000000002  0.6475100000000001  0.8636500000000001  1.0000
  O   O156      1.0  0.9777  0.7106300000000002  0.89979  1.0000
  O   O157      1.0  0.76696  0.6221200000000001  0.969  1.0000
  O   O158      1.0  0.8279700000000002  0.69547  0.9702000000000002  1.0000
  O   O159      1.0  0.74986  0.47716000000000003  0.90565  1.0000
  O   O160      1.0  0.8214500000000002  0.52084  0.87794  1.0000
  O   O161      1.0  0.7293500000000002  0.02003  0.82265  1.0000
  O   O162      1.0  0.7915000000000002  0.03335  0.8585400000000001  1.0000
  O   O163      1.0  0.9025200000000002  0.26417  0.82562  1.0000
  O   O164      1.0  0.9169000000000002  0.19417000000000006  0.85746  1.0000
  O   O165      1.0  0.7502200000000001  0.18613000000000002  0.76116  1.0000
  O   O166      1.0  0.09711000000000003  0.65021  0.8656200000000001  1.0000
  O   O167      1.0  0.09479000000000001  0.72218  0.8972400000000001  1.0000
  O   O168      1.0  0.2357  0.73629  0.9702700000000001  1.0000
  O   O169      1.0  0.30846000000000007  0.6746600000000001  0.9712000000000002  1.0000
  O   O170      1.0  0.019860000000000003  0.35249  0.8636500000000001  1.0000
  O   O171      1.0  0.0223  0.28938  0.89979  1.0000
  O   O172      1.0  0.23305  0.37788  0.969  1.0000
  O   O173      1.0  0.17204000000000003  0.3045300000000001  0.9702000000000002  1.0000
  O   O174      1.0  0.25014  0.5228400000000001  0.90565  1.0000
  O   O175      1.0  0.17856  0.47916  0.87794  1.0000
  O   O176      1.0  0.27065  0.97998  0.82265  1.0000
  O   O177      1.0  0.2085  0.9666500000000001  0.8585400000000001  1.0000
  O   O178      1.0  0.09749000000000001  0.73583  0.82562  1.0000
  O   O179      1.0  0.08311000000000002  0.80584  0.85746  1.0000
  O   O180      1.0  0.24979  0.81387  0.76116  1.0000
  O   O181      1.0  0.6502000000000001  0.09696000000000002  0.6344  1.0000
  O   O182      1.0  0.7221500000000002  0.09479000000000001  0.60276  1.0000
  O   O183      1.0  0.73597  0.235  0.52965  1.0000
  O   O184      1.0  0.6747700000000002  0.30821  0.52882  1.0000
  O   O185      1.0  0.3524300000000001  0.02037  0.6366  1.0000
  O   O186      1.0  0.28977  0.022190000000000005  0.60022  1.0000
  O   O187      1.0  0.37774000000000013  0.23282  0.5308300000000001  1.0000
  O   O188      1.0  0.30395000000000005  0.17224  0.52987  1.0000
  O   O189      1.0  0.5227  0.25006  0.59445  1.0000
  O   O190      1.0  0.4784600000000001  0.17902  0.62246  1.0000
  O   O191      1.0  0.98005  0.27048  0.67748  1.0000
  O   O192      1.0  0.9666200000000003  0.20875000000000002  0.64142  1.0000
  O   O193      1.0  0.7358500000000001  0.09745  0.67436  1.0000
  O   O194      1.0  0.8057900000000001  0.08308000000000001  0.6424700000000001  1.0000
  O   O195      1.0  0.8138800000000003  0.24975000000000003  0.73879  1.0000
  O   O196      1.0  0.3498  0.90304  0.6344  1.0000
  O   O197      1.0  0.27786  0.90521  0.60276  1.0000
  O   O198      1.0  0.26404  0.765  0.52965  1.0000
  O   O199      1.0  0.32524  0.6918000000000002  0.52882  1.0000
  O   O200      1.0  0.64757  0.97963  0.6366  1.0000
  O   O201      1.0  0.7102400000000001  0.9778200000000001  0.60022  1.0000
  O   O202      1.0  0.6222600000000001  0.76718  0.5308300000000001  1.0000
  O   O203      1.0  0.6960600000000001  0.82776  0.52987  1.0000
  O   O204      1.0  0.47730000000000006  0.74994  0.59445  1.0000
  O   O205      1.0  0.52155  0.8209900000000002  0.62246  1.0000
  O   O206      1.0  0.01995  0.72952  0.67748  1.0000
  O   O207      1.0  0.03339  0.79125  0.64142  1.0000
  O   O208      1.0  0.26416  0.9025600000000003  0.67436  1.0000
  O   O209      1.0  0.19421000000000005  0.9169200000000002  0.6424700000000001  1.0000
  O   O210      1.0  0.18612  0.75025  0.73879  1.0000
  O   O211      1.0  0.09696000000000002  0.3498  0.6344  1.0000
  O   O212      1.0  0.09479000000000001  0.27786  0.60276  1.0000
  O   O213      1.0  0.235  0.26404  0.52965  1.0000
  O   O214      1.0  0.30821  0.32524  0.52882  1.0000
  O   O215      1.0  0.02037  0.64757  0.6366  1.0000
  O   O216      1.0  0.022190000000000005  0.7102400000000001  0.60022  1.0000
  O   O217      1.0  0.23282  0.6222600000000001  0.5308300000000001  1.0000
  O   O218      1.0  0.17224  0.69605  0.52987  1.0000
  O   O219      1.0  0.25006  0.47730000000000006  0.59445  1.0000
  O   O220      1.0  0.17902  0.52155  0.62246  1.0000
  O   O221      1.0  0.27048  0.01995  0.67748  1.0000
  O   O222      1.0  0.20875000000000002  0.03339  0.64142  1.0000
  O   O223      1.0  0.09745  0.26416  0.67436  1.0000
  O   O224      1.0  0.08308000000000001  0.19421000000000005  0.6424700000000001  1.0000
  O   O225      1.0  0.24975000000000003  0.18612  0.73879  1.0000
  O   O226      1.0  0.90304  0.6502000000000001  0.6344  1.0000
  O   O227      1.0  0.90521  0.7221500000000002  0.60276  1.0000
  O   O228      1.0  0.765  0.73597  0.52965  1.0000
  O   O229      1.0  0.69179  0.6747700000000002  0.52882  1.0000
  O   O230      1.0  0.97963  0.3524300000000001  0.6366  1.0000
  O   O231      1.0  0.9778200000000001  0.28977  0.60022  1.0000
  O   O232      1.0  0.76718  0.37774000000000013  0.5308300000000001  1.0000
  O   O233      1.0  0.82776  0.30395000000000005  0.52987  1.0000
  O   O234      1.0  0.74994  0.5227  0.59445  1.0000
  O   O235      1.0  0.8209900000000002  0.4784600000000001  0.62246  1.0000
  O   O236      1.0  0.72952  0.98005  0.67748  1.0000
  O   O237      1.0  0.79125  0.9666200000000003  0.64142  1.0000
  O   O238      1.0  0.9025600000000003  0.7358500000000001  0.67436  1.0000
  O   O239      1.0  0.9169200000000002  0.8057900000000001  0.6424700000000001  1.0000
  O   O240      1.0  0.75025  0.8138800000000003  0.73879  1.0000
