data_image0
_chemical_formula_structural       Cu48H480C960N48O192
_chemical_formula_sum              "Cu48 H480 C960 N48 O192"
_cell_length_a       36.6496
_cell_length_b       36.6496
_cell_length_c       36.6496
_cell_angle_alpha    90.0
_cell_angle_beta     90.0
_cell_angle_gamma    90.0

_space_group_name_H-M_alt    "P 1"
_space_group_IT_number       1

loop_
  _space_group_symop_operation_xyz
  'x, y, z'

loop_
  _atom_site_type_symbol
  _atom_site_label
  _atom_site_symmetry_multiplicity
  _atom_site_fract_x
  _atom_site_fract_y
  _atom_site_fract_z
  _atom_site_occupancy
  Cu  Cu1       1.0  0.08462000000000001  0.67373  0.32827000000000006  1.0000
  Cu  Cu2       1.0  0.062400000000000004  0.6300700000000002  0.37270000000000003  1.0000
  Cu  Cu3       1.0  0.41538  0.32627  0.8282700000000001  1.0000
  Cu  Cu4       1.0  0.43760000000000004  0.36993  0.8727  1.0000
  Cu  Cu5       1.0  0.9153800000000001  0.17373000000000002  0.17173  1.0000
  Cu  Cu6       1.0  0.9376  0.13007  0.12730000000000002  1.0000
  Cu  Cu7       1.0  0.58462  0.82627  0.67173  1.0000
  Cu  Cu8       1.0  0.5624  0.86993  0.6273  1.0000
  Cu  Cu9       1.0  0.32827000000000006  0.08462000000000001  0.67373  1.0000
  Cu  Cu10      1.0  0.37270000000000003  0.062400000000000004  0.6300700000000002  1.0000
  Cu  Cu11      1.0  0.8282700000000001  0.41538  0.32627  1.0000
  Cu  Cu12      1.0  0.8727  0.43760000000000004  0.36993  1.0000
  Cu  Cu13      1.0  0.17173  0.9153800000000001  0.17373000000000002  1.0000
  Cu  Cu14      1.0  0.12730000000000002  0.9376  0.13007  1.0000
  Cu  Cu15      1.0  0.67173  0.58462  0.82627  1.0000
  Cu  Cu16      1.0  0.6273  0.5624  0.86993  1.0000
  Cu  Cu17      1.0  0.67373  0.32827000000000006  0.08462000000000001  1.0000
  Cu  Cu18      1.0  0.6300700000000002  0.37270000000000003  0.062400000000000004  1.0000
  Cu  Cu19      1.0  0.32627  0.8282700000000001  0.41538  1.0000
  Cu  Cu20      1.0  0.36993  0.8727  0.43760000000000004  1.0000
  Cu  Cu21      1.0  0.17373000000000002  0.17173  0.9153800000000001  1.0000
  Cu  Cu22      1.0  0.13007  0.12730000000000002  0.9376  1.0000
  Cu  Cu23      1.0  0.82627  0.67173  0.58462  1.0000
  Cu  Cu24      1.0  0.86993  0.6273  0.5624  1.0000
  Cu  Cu25      1.0  0.9153800000000001  0.32627  0.67173  1.0000
  Cu  Cu26      1.0  0.9376  0.36993  0.6273  1.0000
  Cu  Cu27      1.0  0.58462  0.67373  0.17173  1.0000
  Cu  Cu28      1.0  0.5624  0.6300700000000002  0.12730000000000002  1.0000
  Cu  Cu29      1.0  0.08462000000000001  0.82627  0.8282700000000001  1.0000
  Cu  Cu30      1.0  0.062400000000000004  0.86993  0.8727  1.0000
  Cu  Cu31      1.0  0.41538  0.17373000000000002  0.32827000000000006  1.0000
  Cu  Cu32      1.0  0.43760000000000004  0.13007  0.37270000000000003  1.0000
  Cu  Cu33      1.0  0.67173  0.9153800000000001  0.32627  1.0000
  Cu  Cu34      1.0  0.6273  0.9376  0.36993  1.0000
  Cu  Cu35      1.0  0.17173  0.58462  0.67373  1.0000
  Cu  Cu36      1.0  0.12730000000000002  0.5624  0.6300700000000002  1.0000
  Cu  Cu37      1.0  0.8282700000000001  0.08462000000000001  0.82627  1.0000
  Cu  Cu38      1.0  0.8727  0.062400000000000004  0.86993  1.0000
  Cu  Cu39      1.0  0.32827000000000006  0.41538  0.17373000000000002  1.0000
  Cu  Cu40      1.0  0.37270000000000003  0.43760000000000004  0.13007  1.0000
  Cu  Cu41      1.0  0.32627  0.67173  0.9153800000000001  1.0000
  Cu  Cu42      1.0  0.36993  0.6273  0.9376  1.0000
  Cu  Cu43      1.0  0.67373  0.17173  0.58462  1.0000
  Cu  Cu44      1.0  0.6300700000000002  0.12730000000000002  0.5624  1.0000
  Cu  Cu45      1.0  0.82627  0.8282700000000001  0.08462000000000001  1.0000
  Cu  Cu46      1.0  0.86993  0.8727  0.062400000000000004  1.0000
  Cu  Cu47      1.0  0.17373000000000002  0.32827000000000006  0.41538  1.0000
  Cu  Cu48      1.0  0.13007  0.37270000000000003  0.43760000000000004  1.0000
  H   H1        1.0  0.13516000000000006  0.53757  0.34859  1.0000
  H   H2        1.0  0.15599  0.54816  0.21343000000000004  1.0000
  H   H3        1.0  0.12991  0.59994  0.24933  1.0000
  H   H4        1.0  0.15304  0.46648  0.36738  1.0000
  H   H5        1.0  0.19918  0.40693  0.25295  1.0000
  H   H6        1.0  0.19516  0.37231  0.31154000000000004  1.0000
  H   H7        1.0  0.07476  0.1906  0.01933  1.0000
  H   H8        1.0  0.15557000000000004  0.29783  0.047750000000000015  1.0000
  H   H9        1.0  0.1721  0.25284  0.99925  1.0000
  H   H10       1.0  0.01857  0.19238  0.07092  1.0000
  H   H11       1.0  0.03688  0.3073900000000001  0.14344  1.0000
  H   H12       1.0  0.98419  0.2658  0.15581  1.0000
  H   H13       1.0  0.10986000000000001  0.29549  0.15735  1.0000
  H   H14       1.0  0.1364  0.35076  0.18703  1.0000
  H   H15       1.0  0.1324  0.4080000000000001  0.08470000000000003  1.0000
  H   H16       1.0  0.11136  0.47878000000000004  0.21622  1.0000
  H   H17       1.0  0.09402000000000003  0.43521  0.16708  1.0000
  H   H18       1.0  0.20651  0.40351  0.15538  1.0000
  H   H19       1.0  0.22395  0.44792000000000004  0.20353000000000004  1.0000
  H   H20       1.0  0.10505  0.35291  0.05523000000000001  1.0000
  H   H21       1.0  0.36484000000000005  0.46243  0.84859  1.0000
  H   H22       1.0  0.34401  0.45184  0.71343  1.0000
  H   H23       1.0  0.37009  0.40006000000000014  0.74933  1.0000
  H   H24       1.0  0.34696  0.53352  0.86738  1.0000
  H   H25       1.0  0.30082  0.59307  0.75295  1.0000
  H   H26       1.0  0.30484  0.6276900000000002  0.81154  1.0000
  H   H27       1.0  0.42524000000000006  0.8094  0.51933  1.0000
  H   H28       1.0  0.34443  0.70217  0.54775  1.0000
  H   H29       1.0  0.3279  0.74716  0.49925  1.0000
  H   H30       1.0  0.4814300000000001  0.80762  0.57092  1.0000
  H   H31       1.0  0.46312000000000003  0.6926100000000001  0.64344  1.0000
  H   H32       1.0  0.51581  0.7342  0.65581  1.0000
  H   H33       1.0  0.39014  0.7045100000000001  0.65735  1.0000
  H   H34       1.0  0.3636  0.64924  0.68703  1.0000
  H   H35       1.0  0.3676  0.5920000000000001  0.5847  1.0000
  H   H36       1.0  0.38864000000000004  0.52122  0.71622  1.0000
  H   H37       1.0  0.4059800000000001  0.56479  0.6670800000000001  1.0000
  H   H38       1.0  0.29349  0.59649  0.65538  1.0000
  H   H39       1.0  0.27605  0.55208  0.70353  1.0000
  H   H40       1.0  0.39495  0.6470900000000002  0.55523  1.0000
  H   H41       1.0  0.86484  0.03757  0.15141  1.0000
  H   H42       1.0  0.84401  0.048160000000000015  0.28657  1.0000
  H   H43       1.0  0.8700900000000001  0.09994  0.25067000000000006  1.0000
  H   H44       1.0  0.84696  0.9664800000000001  0.13262000000000002  1.0000
  H   H45       1.0  0.80082  0.90693  0.24705  1.0000
  H   H46       1.0  0.80484  0.87231  0.18846000000000002  1.0000
  H   H47       1.0  0.92524  0.6906  0.48067  1.0000
  H   H48       1.0  0.84443  0.7978300000000002  0.45225  1.0000
  H   H49       1.0  0.8279000000000002  0.75284  0.50074  1.0000
  H   H50       1.0  0.9814300000000001  0.6923800000000002  0.42908  1.0000
  H   H51       1.0  0.96312  0.80739  0.35656  1.0000
  H   H52       1.0  0.01581  0.7658000000000003  0.34419  1.0000
  H   H53       1.0  0.8901400000000002  0.79549  0.34265  1.0000
  H   H54       1.0  0.8636000000000001  0.8507600000000002  0.31297  1.0000
  H   H55       1.0  0.8676  0.9080000000000001  0.4153  1.0000
  H   H56       1.0  0.88864  0.9787800000000001  0.28378  1.0000
  H   H57       1.0  0.90598  0.9352100000000001  0.3329200000000001  1.0000
  H   H58       1.0  0.7934900000000003  0.9035100000000001  0.34462  1.0000
  H   H59       1.0  0.7760500000000001  0.94792  0.29647  1.0000
  H   H60       1.0  0.8949500000000001  0.8529  0.44477  1.0000
  H   H61       1.0  0.63516  0.9624300000000001  0.6514100000000003  1.0000
  H   H62       1.0  0.65599  0.95184  0.7865700000000002  1.0000
  H   H63       1.0  0.62991  0.9000600000000001  0.7506700000000001  1.0000
  H   H64       1.0  0.65304  0.03352000000000001  0.63262  1.0000
  H   H65       1.0  0.69918  0.09307  0.7470500000000002  1.0000
  H   H66       1.0  0.69516  0.12769  0.68846  1.0000
  H   H67       1.0  0.5747600000000002  0.3094  0.98067  1.0000
  H   H68       1.0  0.65557  0.20217  0.9522400000000001  1.0000
  H   H69       1.0  0.6721  0.24716  0.00074  1.0000
  H   H70       1.0  0.51857  0.30762  0.9290800000000001  1.0000
  H   H71       1.0  0.53688  0.19261  0.85656  1.0000
  H   H72       1.0  0.48419000000000006  0.2342  0.8441900000000002  1.0000
  H   H73       1.0  0.60986  0.20451  0.84265  1.0000
  H   H74       1.0  0.6364  0.14924000000000007  0.8129700000000002  1.0000
  H   H75       1.0  0.6324  0.092  0.9153000000000001  1.0000
  H   H76       1.0  0.61136  0.021220000000000006  0.78378  1.0000
  H   H77       1.0  0.5940200000000001  0.06479  0.83292  1.0000
  H   H78       1.0  0.70651  0.09649000000000003  0.8446200000000003  1.0000
  H   H79       1.0  0.72395  0.05208  0.79647  1.0000
  H   H80       1.0  0.6050500000000001  0.14709  0.94477  1.0000
  H   H81       1.0  0.34859  0.13516000000000006  0.53757  1.0000
  H   H82       1.0  0.21343000000000004  0.15599  0.54816  1.0000
  H   H83       1.0  0.24933  0.12991  0.59994  1.0000
  H   H84       1.0  0.36738  0.15304  0.46648  1.0000
  H   H85       1.0  0.25295  0.19918  0.40693  1.0000
  H   H86       1.0  0.31154000000000004  0.19516  0.37231  1.0000
  H   H87       1.0  0.01933  0.07476  0.1906  1.0000
  H   H88       1.0  0.047750000000000015  0.15557000000000004  0.29783  1.0000
  H   H89       1.0  0.99925  0.1721  0.25284  1.0000
  H   H90       1.0  0.07092  0.01857  0.19238  1.0000
  H   H91       1.0  0.14344  0.03688  0.3073900000000001  1.0000
  H   H92       1.0  0.15581  0.98419  0.2658  1.0000
  H   H93       1.0  0.15735  0.10986000000000001  0.29549  1.0000
  H   H94       1.0  0.18703  0.1364  0.35076  1.0000
  H   H95       1.0  0.08470000000000003  0.1324  0.4080000000000001  1.0000
  H   H96       1.0  0.21622  0.11136  0.47878000000000004  1.0000
  H   H97       1.0  0.16708  0.09402000000000003  0.43521  1.0000
  H   H98       1.0  0.15538  0.20651  0.40351  1.0000
  H   H99       1.0  0.20353000000000004  0.22395  0.44792000000000004  1.0000
  H   H100      1.0  0.05523000000000001  0.10505  0.35291  1.0000
  H   H101      1.0  0.84859  0.36484000000000005  0.46243  1.0000
  H   H102      1.0  0.71343  0.34401  0.45184  1.0000
  H   H103      1.0  0.74933  0.37009  0.40006000000000014  1.0000
  H   H104      1.0  0.86738  0.34696  0.53352  1.0000
  H   H105      1.0  0.75295  0.30082  0.59307  1.0000
  H   H106      1.0  0.81154  0.30484  0.6276900000000002  1.0000
  H   H107      1.0  0.51933  0.42524000000000006  0.8094  1.0000
  H   H108      1.0  0.54775  0.34443  0.70217  1.0000
  H   H109      1.0  0.49925  0.3279  0.74716  1.0000
  H   H110      1.0  0.57092  0.4814300000000001  0.80762  1.0000
  H   H111      1.0  0.64344  0.46312000000000003  0.6926100000000001  1.0000
  H   H112      1.0  0.65581  0.51581  0.7342  1.0000
  H   H113      1.0  0.65735  0.39014  0.7045100000000001  1.0000
  H   H114      1.0  0.68703  0.3636  0.64924  1.0000
  H   H115      1.0  0.5847  0.3676  0.5920000000000001  1.0000
  H   H116      1.0  0.71622  0.38864000000000004  0.52122  1.0000
  H   H117      1.0  0.6670800000000001  0.4059800000000001  0.56479  1.0000
  H   H118      1.0  0.65538  0.29349  0.59649  1.0000
  H   H119      1.0  0.70353  0.27605  0.55208  1.0000
  H   H120      1.0  0.55523  0.39495  0.6470900000000002  1.0000
  H   H121      1.0  0.15141  0.86484  0.03757  1.0000
  H   H122      1.0  0.28657  0.84401  0.048160000000000015  1.0000
  H   H123      1.0  0.25067000000000006  0.8700900000000001  0.09994  1.0000
  H   H124      1.0  0.13262000000000002  0.84696  0.9664800000000001  1.0000
  H   H125      1.0  0.24705  0.80082  0.90693  1.0000
  H   H126      1.0  0.18846000000000002  0.80484  0.87231  1.0000
  H   H127      1.0  0.48067  0.92524  0.6906  1.0000
  H   H128      1.0  0.45225  0.84443  0.7978300000000002  1.0000
  H   H129      1.0  0.50075  0.8279000000000002  0.75284  1.0000
  H   H130      1.0  0.42908  0.9814300000000001  0.6923800000000002  1.0000
  H   H131      1.0  0.35656  0.96312  0.80739  1.0000
  H   H132      1.0  0.34419  0.01581  0.7658000000000003  1.0000
  H   H133      1.0  0.34265  0.8901400000000002  0.79549  1.0000
  H   H134      1.0  0.31297  0.8636000000000001  0.8507600000000002  1.0000
  H   H135      1.0  0.4153  0.8676  0.9080000000000001  1.0000
  H   H136      1.0  0.28378  0.88864  0.9787800000000001  1.0000
  H   H137      1.0  0.3329200000000001  0.90598  0.9352100000000001  1.0000
  H   H138      1.0  0.34462  0.7934900000000003  0.9035100000000001  1.0000
  H   H139      1.0  0.29647  0.7760500000000001  0.94792  1.0000
  H   H140      1.0  0.44477  0.8949500000000001  0.8529  1.0000
  H   H141      1.0  0.6514100000000003  0.63516  0.9624300000000001  1.0000
  H   H142      1.0  0.7865700000000002  0.65599  0.95184  1.0000
  H   H143      1.0  0.7506700000000001  0.62991  0.9000600000000001  1.0000
  H   H144      1.0  0.63262  0.65304  0.03352000000000001  1.0000
  H   H145      1.0  0.7470500000000002  0.69918  0.09307  1.0000
  H   H146      1.0  0.68846  0.69516  0.12769  1.0000
  H   H147      1.0  0.98067  0.5747600000000002  0.3094  1.0000
  H   H148      1.0  0.9522400000000001  0.65557  0.20217  1.0000
  H   H149      1.0  0.00074  0.6721  0.24716  1.0000
  H   H150      1.0  0.9290800000000001  0.51857  0.30762  1.0000
  H   H151      1.0  0.85656  0.53688  0.19261  1.0000
  H   H152      1.0  0.8441900000000002  0.48419000000000006  0.2342  1.0000
  H   H153      1.0  0.84265  0.60986  0.20451  1.0000
  H   H154      1.0  0.8129700000000002  0.6364  0.14924000000000007  1.0000
  H   H155      1.0  0.9153000000000001  0.6324  0.092  1.0000
  H   H156      1.0  0.78378  0.61136  0.021220000000000006  1.0000
  H   H157      1.0  0.83292  0.5940200000000001  0.06479  1.0000
  H   H158      1.0  0.8446200000000003  0.70651  0.09649000000000003  1.0000
  H   H159      1.0  0.79647  0.72395  0.05208  1.0000
  H   H160      1.0  0.94477  0.6050500000000001  0.14709  1.0000
  H   H161      1.0  0.53757  0.34859  0.13516000000000006  1.0000
  H   H162      1.0  0.54816  0.21343000000000004  0.15599  1.0000
  H   H163      1.0  0.59994  0.24933  0.12991  1.0000
  H   H164      1.0  0.46648  0.36738  0.15304  1.0000
  H   H165      1.0  0.40693  0.25295  0.19918  1.0000
  H   H166      1.0  0.37231  0.31154000000000004  0.19516  1.0000
  H   H167      1.0  0.1906  0.01933  0.07476  1.0000
  H   H168      1.0  0.29783  0.047750000000000015  0.15557000000000004  1.0000
  H   H169      1.0  0.25284  0.99925  0.1721  1.0000
  H   H170      1.0  0.19238  0.07092  0.01857  1.0000
  H   H171      1.0  0.3073900000000001  0.14344  0.03688  1.0000
  H   H172      1.0  0.2658  0.15581  0.98419  1.0000
  H   H173      1.0  0.29549  0.15735  0.10986000000000001  1.0000
  H   H174      1.0  0.35076  0.18703  0.1364  1.0000
  H   H175      1.0  0.4080000000000001  0.08470000000000003  0.1324  1.0000
  H   H176      1.0  0.47878000000000004  0.21622  0.11136  1.0000
  H   H177      1.0  0.43521  0.16708  0.09402000000000003  1.0000
  H   H178      1.0  0.40351  0.15538  0.20651  1.0000
  H   H179      1.0  0.44792000000000004  0.20353000000000004  0.22395  1.0000
  H   H180      1.0  0.35291  0.05523000000000001  0.10505  1.0000
  H   H181      1.0  0.46243  0.84859  0.36484000000000005  1.0000
  H   H182      1.0  0.45184  0.71343  0.34401  1.0000
  H   H183      1.0  0.40006000000000014  0.74933  0.37009  1.0000
  H   H184      1.0  0.53352  0.86738  0.34696  1.0000
  H   H185      1.0  0.59307  0.75295  0.30082  1.0000
  H   H186      1.0  0.6276900000000002  0.81154  0.30484  1.0000
  H   H187      1.0  0.8094  0.51933  0.42524000000000006  1.0000
  H   H188      1.0  0.70217  0.54775  0.34443  1.0000
  H   H189      1.0  0.74716  0.49925  0.3279  1.0000
  H   H190      1.0  0.80762  0.57092  0.4814300000000001  1.0000
  H   H191      1.0  0.6926100000000001  0.64344  0.46312000000000003  1.0000
  H   H192      1.0  0.7342  0.65581  0.51581  1.0000
  H   H193      1.0  0.7045100000000001  0.65735  0.39014  1.0000
  H   H194      1.0  0.64924  0.68703  0.3636  1.0000
  H   H195      1.0  0.5920000000000001  0.5847  0.3676  1.0000
  H   H196      1.0  0.52122  0.71622  0.38864000000000004  1.0000
  H   H197      1.0  0.56479  0.6670800000000001  0.4059800000000001  1.0000
  H   H198      1.0  0.59649  0.65538  0.29349  1.0000
  H   H199      1.0  0.55208  0.70353  0.27605  1.0000
  H   H200      1.0  0.6470900000000002  0.55523  0.39495  1.0000
  H   H201      1.0  0.03757  0.15141  0.86484  1.0000
  H   H202      1.0  0.048160000000000015  0.28657  0.84401  1.0000
  H   H203      1.0  0.09994  0.25067000000000006  0.8700900000000001  1.0000
  H   H204      1.0  0.9664800000000001  0.13262000000000002  0.84696  1.0000
  H   H205      1.0  0.90693  0.24705  0.80082  1.0000
  H   H206      1.0  0.87231  0.18846000000000002  0.80484  1.0000
  H   H207      1.0  0.6906  0.48067  0.92524  1.0000
  H   H208      1.0  0.7978300000000002  0.45225  0.84443  1.0000
  H   H209      1.0  0.75284  0.50074  0.8279000000000002  1.0000
  H   H210      1.0  0.6923800000000002  0.42908  0.9814300000000001  1.0000
  H   H211      1.0  0.80739  0.35656  0.96312  1.0000
  H   H212      1.0  0.7658000000000003  0.34419  0.01581  1.0000
  H   H213      1.0  0.79549  0.34265  0.8901400000000002  1.0000
  H   H214      1.0  0.8507600000000002  0.31297  0.8636000000000001  1.0000
  H   H215      1.0  0.9080000000000001  0.4153  0.8676  1.0000
  H   H216      1.0  0.9787800000000001  0.28378  0.88864  1.0000
  H   H217      1.0  0.9352100000000001  0.3329200000000001  0.90598  1.0000
  H   H218      1.0  0.9035100000000001  0.34462  0.7934900000000003  1.0000
  H   H219      1.0  0.94792  0.29647  0.7760500000000001  1.0000
  H   H220      1.0  0.8529  0.44477  0.8949500000000001  1.0000
  H   H221      1.0  0.9624300000000001  0.6514100000000003  0.63516  1.0000
  H   H222      1.0  0.95184  0.7865700000000002  0.65599  1.0000
  H   H223      1.0  0.9000600000000001  0.7506700000000001  0.62991  1.0000
  H   H224      1.0  0.03352000000000001  0.63262  0.65304  1.0000
  H   H225      1.0  0.09307  0.7470500000000002  0.69918  1.0000
  H   H226      1.0  0.12769  0.68846  0.69516  1.0000
  H   H227      1.0  0.3094  0.98067  0.5747600000000002  1.0000
  H   H228      1.0  0.20217  0.9522400000000001  0.65557  1.0000
  H   H229      1.0  0.24716  0.00074  0.6721  1.0000
  H   H230      1.0  0.30762  0.9290800000000001  0.51857  1.0000
  H   H231      1.0  0.19261  0.85656  0.53688  1.0000
  H   H232      1.0  0.2342  0.8441900000000002  0.48419000000000006  1.0000
  H   H233      1.0  0.20451  0.84265  0.60986  1.0000
  H   H234      1.0  0.14924000000000007  0.8129700000000002  0.6364  1.0000
  H   H235      1.0  0.092  0.9153000000000001  0.6324  1.0000
  H   H236      1.0  0.021220000000000006  0.78378  0.61136  1.0000
  H   H237      1.0  0.06479  0.83292  0.5940200000000001  1.0000
  H   H238      1.0  0.09649000000000003  0.8446200000000003  0.70651  1.0000
  H   H239      1.0  0.05208  0.79647  0.72395  1.0000
  H   H240      1.0  0.14709  0.94477  0.6050500000000001  1.0000
  H   H241      1.0  0.86484  0.46243  0.6514100000000003  1.0000
  H   H242      1.0  0.84401  0.45184  0.7865700000000002  1.0000
  H   H243      1.0  0.8700900000000001  0.40006000000000014  0.7506700000000001  1.0000
  H   H244      1.0  0.84696  0.53352  0.63262  1.0000
  H   H245      1.0  0.80082  0.59307  0.7470500000000002  1.0000
  H   H246      1.0  0.80484  0.6276900000000002  0.68846  1.0000
  H   H247      1.0  0.92524  0.8094  0.98067  1.0000
  H   H248      1.0  0.84443  0.70217  0.9522400000000001  1.0000
  H   H249      1.0  0.8279000000000002  0.74716  0.00074  1.0000
  H   H250      1.0  0.9814300000000001  0.80762  0.9290800000000001  1.0000
  H   H251      1.0  0.96312  0.6926100000000001  0.85656  1.0000
  H   H252      1.0  0.01581  0.7342  0.8441900000000002  1.0000
  H   H253      1.0  0.8901400000000002  0.7045100000000001  0.84265  1.0000
  H   H254      1.0  0.8636000000000001  0.64924  0.8129700000000002  1.0000
  H   H255      1.0  0.8676  0.5920000000000001  0.9153000000000001  1.0000
  H   H256      1.0  0.88864  0.52122  0.78378  1.0000
  H   H257      1.0  0.90598  0.56479  0.83292  1.0000
  H   H258      1.0  0.7934900000000003  0.59649  0.8446200000000003  1.0000
  H   H259      1.0  0.7760500000000001  0.55208  0.79647  1.0000
  H   H260      1.0  0.8949500000000001  0.6470900000000002  0.94477  1.0000
  H   H261      1.0  0.63516  0.53757  0.15141  1.0000
  H   H262      1.0  0.65599  0.54816  0.28657  1.0000
  H   H263      1.0  0.62991  0.59994  0.25067000000000006  1.0000
  H   H264      1.0  0.65304  0.46648  0.13262000000000002  1.0000
  H   H265      1.0  0.69918  0.40693  0.24705  1.0000
  H   H266      1.0  0.69516  0.37231  0.18846000000000002  1.0000
  H   H267      1.0  0.5747600000000002  0.1906  0.48067  1.0000
  H   H268      1.0  0.65557  0.29783  0.45224000000000003  1.0000
  H   H269      1.0  0.6721  0.25284  0.50074  1.0000
  H   H270      1.0  0.51857  0.19238  0.42908  1.0000
  H   H271      1.0  0.53688  0.3073900000000001  0.35656  1.0000
  H   H272      1.0  0.48419000000000006  0.2658  0.34419  1.0000
  H   H273      1.0  0.60986  0.29549  0.34265  1.0000
  H   H274      1.0  0.6364  0.35076  0.31297  1.0000
  H   H275      1.0  0.6324  0.4080000000000001  0.4153  1.0000
  H   H276      1.0  0.61136  0.47878000000000004  0.28378  1.0000
  H   H277      1.0  0.5940200000000001  0.43521  0.3329200000000001  1.0000
  H   H278      1.0  0.70651  0.40351  0.34462  1.0000
  H   H279      1.0  0.72395  0.44792000000000004  0.29647  1.0000
  H   H280      1.0  0.6050500000000001  0.35291  0.44477  1.0000
  H   H281      1.0  0.13516000000000006  0.9624300000000001  0.84859  1.0000
  H   H282      1.0  0.15599  0.95184  0.71343  1.0000
  H   H283      1.0  0.12991  0.9000600000000001  0.74933  1.0000
  H   H284      1.0  0.15304  0.03352000000000001  0.86738  1.0000
  H   H285      1.0  0.19918  0.09307  0.75295  1.0000
  H   H286      1.0  0.19516  0.12769  0.81154  1.0000
  H   H287      1.0  0.07476  0.3094  0.51933  1.0000
  H   H288      1.0  0.15557000000000004  0.20217  0.54775  1.0000
  H   H289      1.0  0.1721  0.24716  0.49925  1.0000
  H   H290      1.0  0.01857  0.30762  0.57092  1.0000
  H   H291      1.0  0.03688  0.19261  0.64344  1.0000
  H   H292      1.0  0.98419  0.2342  0.65581  1.0000
  H   H293      1.0  0.10986000000000001  0.20451  0.65735  1.0000
  H   H294      1.0  0.1364  0.14924000000000007  0.68703  1.0000
  H   H295      1.0  0.1324  0.092  0.5847  1.0000
  H   H296      1.0  0.11136  0.021220000000000006  0.71622  1.0000
  H   H297      1.0  0.09402000000000003  0.06479  0.6670800000000001  1.0000
  H   H298      1.0  0.20651  0.09649000000000003  0.65538  1.0000
  H   H299      1.0  0.22395  0.05208  0.70353  1.0000
  H   H300      1.0  0.10505  0.14709  0.55523  1.0000
  H   H301      1.0  0.36484000000000005  0.03757  0.34859  1.0000
  H   H302      1.0  0.34401  0.048160000000000015  0.21343000000000004  1.0000
  H   H303      1.0  0.37009  0.09994  0.24933  1.0000
  H   H304      1.0  0.34696  0.9664800000000001  0.36738  1.0000
  H   H305      1.0  0.30082  0.90693  0.25295  1.0000
  H   H306      1.0  0.30484  0.87231  0.31154000000000004  1.0000
  H   H307      1.0  0.42524000000000006  0.6906  0.01933  1.0000
  H   H308      1.0  0.34443  0.7978300000000002  0.047750000000000015  1.0000
  H   H309      1.0  0.3279  0.75284  0.99925  1.0000
  H   H310      1.0  0.4814300000000001  0.6923800000000002  0.07092  1.0000
  H   H311      1.0  0.46312000000000003  0.80739  0.14344  1.0000
  H   H312      1.0  0.51581  0.7658000000000003  0.15581  1.0000
  H   H313      1.0  0.39014  0.79549  0.15735  1.0000
  H   H314      1.0  0.3636  0.8507600000000002  0.18703  1.0000
  H   H315      1.0  0.3676  0.9080000000000001  0.08470000000000003  1.0000
  H   H316      1.0  0.38864000000000004  0.9787800000000001  0.21622  1.0000
  H   H317      1.0  0.4059800000000001  0.9352100000000001  0.16708  1.0000
  H   H318      1.0  0.29349  0.9035100000000001  0.15538  1.0000
  H   H319      1.0  0.27605  0.94792  0.20353000000000004  1.0000
  H   H320      1.0  0.39495  0.8529  0.05523000000000001  1.0000
  H   H321      1.0  0.6514100000000003  0.86484  0.46243  1.0000
  H   H322      1.0  0.7865700000000002  0.84401  0.45184  1.0000
  H   H323      1.0  0.7506700000000001  0.8700900000000001  0.40006000000000014  1.0000
  H   H324      1.0  0.63262  0.84696  0.53352  1.0000
  H   H325      1.0  0.7470500000000002  0.80082  0.59307  1.0000
  H   H326      1.0  0.68846  0.80484  0.6276900000000002  1.0000
  H   H327      1.0  0.98067  0.92524  0.8094  1.0000
  H   H328      1.0  0.9522400000000001  0.84443  0.70217  1.0000
  H   H329      1.0  0.00074  0.8279000000000002  0.74716  1.0000
  H   H330      1.0  0.9290800000000001  0.9814300000000001  0.80762  1.0000
  H   H331      1.0  0.85656  0.96312  0.6926100000000001  1.0000
  H   H332      1.0  0.8441900000000002  0.01581  0.7342  1.0000
  H   H333      1.0  0.84265  0.8901400000000002  0.7045100000000001  1.0000
  H   H334      1.0  0.8129700000000002  0.8636000000000001  0.64924  1.0000
  H   H335      1.0  0.9153000000000001  0.8676  0.5920000000000001  1.0000
  H   H336      1.0  0.78378  0.88864  0.52122  1.0000
  H   H337      1.0  0.83292  0.90598  0.56479  1.0000
  H   H338      1.0  0.8446200000000003  0.7934900000000003  0.59649  1.0000
  H   H339      1.0  0.79647  0.7760500000000001  0.55208  1.0000
  H   H340      1.0  0.94477  0.8949500000000001  0.6470900000000002  1.0000
  H   H341      1.0  0.15141  0.63516  0.53757  1.0000
  H   H342      1.0  0.28657  0.65599  0.54816  1.0000
  H   H343      1.0  0.25067000000000006  0.62991  0.59994  1.0000
  H   H344      1.0  0.13262000000000002  0.65304  0.46648  1.0000
  H   H345      1.0  0.24705  0.69918  0.40693  1.0000
  H   H346      1.0  0.18846000000000002  0.69516  0.37231  1.0000
  H   H347      1.0  0.48067  0.5747600000000002  0.1906  1.0000
  H   H348      1.0  0.45225  0.65557  0.29783  1.0000
  H   H349      1.0  0.50074  0.6721  0.25284  1.0000
  H   H350      1.0  0.42908  0.51857  0.19238  1.0000
  H   H351      1.0  0.35656  0.53688  0.3073900000000001  1.0000
  H   H352      1.0  0.34419  0.48419000000000006  0.2658  1.0000
  H   H353      1.0  0.34265  0.60986  0.29549  1.0000
  H   H354      1.0  0.31297  0.6364  0.35076  1.0000
  H   H355      1.0  0.4153  0.6324  0.4080000000000001  1.0000
  H   H356      1.0  0.28378  0.61136  0.47878000000000004  1.0000
  H   H357      1.0  0.3329200000000001  0.5940200000000001  0.43521  1.0000
  H   H358      1.0  0.34462  0.70651  0.40351  1.0000
  H   H359      1.0  0.29647  0.72395  0.44792000000000004  1.0000
  H   H360      1.0  0.44477  0.6050500000000001  0.35291  1.0000
  H   H361      1.0  0.84859  0.13516000000000006  0.9624300000000001  1.0000
  H   H362      1.0  0.71343  0.15599  0.95184  1.0000
  H   H363      1.0  0.74933  0.12991  0.9000600000000001  1.0000
  H   H364      1.0  0.86738  0.15304  0.03352000000000001  1.0000
  H   H365      1.0  0.75295  0.19918  0.09307  1.0000
  H   H366      1.0  0.81154  0.19516  0.12769  1.0000
  H   H367      1.0  0.51933  0.07476  0.3094  1.0000
  H   H368      1.0  0.54775  0.15557000000000004  0.20217  1.0000
  H   H369      1.0  0.49925  0.1721  0.24716  1.0000
  H   H370      1.0  0.57092  0.01857  0.30762  1.0000
  H   H371      1.0  0.64344  0.03688  0.19261  1.0000
  H   H372      1.0  0.65581  0.98419  0.2342  1.0000
  H   H373      1.0  0.65735  0.10986000000000001  0.20451  1.0000
  H   H374      1.0  0.68703  0.1364  0.14924000000000007  1.0000
  H   H375      1.0  0.5847  0.1324  0.092  1.0000
  H   H376      1.0  0.71622  0.11136  0.021220000000000006  1.0000
  H   H377      1.0  0.6670800000000001  0.09402000000000003  0.06479  1.0000
  H   H378      1.0  0.65538  0.20651  0.09649000000000003  1.0000
  H   H379      1.0  0.70353  0.22395  0.05208  1.0000
  H   H380      1.0  0.55523  0.10505  0.14709  1.0000
  H   H381      1.0  0.34859  0.36484000000000005  0.03757  1.0000
  H   H382      1.0  0.21343000000000004  0.34401  0.048160000000000015  1.0000
  H   H383      1.0  0.24933  0.37009  0.09994  1.0000
  H   H384      1.0  0.36738  0.34696  0.9664800000000001  1.0000
  H   H385      1.0  0.25295  0.30082  0.90693  1.0000
  H   H386      1.0  0.31154000000000004  0.30484  0.87231  1.0000
  H   H387      1.0  0.01933  0.42524000000000006  0.6906  1.0000
  H   H388      1.0  0.047750000000000015  0.34443  0.7978300000000002  1.0000
  H   H389      1.0  0.99925  0.3279  0.75284  1.0000
  H   H390      1.0  0.07092  0.4814300000000001  0.6923800000000002  1.0000
  H   H391      1.0  0.14344  0.46312000000000003  0.80739  1.0000
  H   H392      1.0  0.15581  0.51581  0.7658000000000003  1.0000
  H   H393      1.0  0.15735  0.39014  0.79549  1.0000
  H   H394      1.0  0.18703  0.3636  0.8507600000000002  1.0000
  H   H395      1.0  0.08470000000000003  0.3676  0.9080000000000001  1.0000
  H   H396      1.0  0.21622  0.38864000000000004  0.9787800000000001  1.0000
  H   H397      1.0  0.16708  0.4059800000000001  0.9352100000000001  1.0000
  H   H398      1.0  0.15538  0.29349  0.9035100000000001  1.0000
  H   H399      1.0  0.20353000000000004  0.27605  0.94792  1.0000
  H   H400      1.0  0.05523000000000001  0.39495  0.8529  1.0000
  H   H401      1.0  0.46243  0.6514100000000003  0.86484  1.0000
  H   H402      1.0  0.45184  0.7865700000000002  0.84401  1.0000
  H   H403      1.0  0.40006000000000014  0.7506700000000001  0.8700900000000001  1.0000
  H   H404      1.0  0.53352  0.63262  0.84696  1.0000
  H   H405      1.0  0.59307  0.7470500000000002  0.80082  1.0000
  H   H406      1.0  0.6276900000000002  0.68846  0.80484  1.0000
  H   H407      1.0  0.8094  0.98067  0.92524  1.0000
  H   H408      1.0  0.70217  0.9522400000000001  0.84443  1.0000
  H   H409      1.0  0.74716  0.00074  0.8279000000000002  1.0000
  H   H410      1.0  0.80762  0.9290800000000001  0.9814300000000001  1.0000
  H   H411      1.0  0.6926100000000001  0.85656  0.96312  1.0000
  H   H412      1.0  0.7342  0.8441900000000002  0.01581  1.0000
  H   H413      1.0  0.7045100000000001  0.84265  0.8901400000000002  1.0000
  H   H414      1.0  0.64924  0.8129700000000002  0.8636000000000001  1.0000
  H   H415      1.0  0.5920000000000001  0.9153000000000001  0.8676  1.0000
  H   H416      1.0  0.52122  0.78378  0.88864  1.0000
  H   H417      1.0  0.56479  0.83292  0.90598  1.0000
  H   H418      1.0  0.59649  0.8446200000000003  0.7934900000000003  1.0000
  H   H419      1.0  0.55208  0.79647  0.7760500000000001  1.0000
  H   H420      1.0  0.6470900000000002  0.94477  0.8949500000000001  1.0000
  H   H421      1.0  0.53757  0.15141  0.63516  1.0000
  H   H422      1.0  0.54816  0.28657  0.65599  1.0000
  H   H423      1.0  0.59994  0.25067000000000006  0.62991  1.0000
  H   H424      1.0  0.46648  0.13262000000000002  0.65304  1.0000
  H   H425      1.0  0.40693  0.24705  0.69918  1.0000
  H   H426      1.0  0.37231  0.18846000000000002  0.69516  1.0000
  H   H427      1.0  0.1906  0.48067  0.5747600000000002  1.0000
  H   H428      1.0  0.29783  0.45225  0.65557  1.0000
  H   H429      1.0  0.25284  0.50074  0.6721  1.0000
  H   H430      1.0  0.19238  0.42908  0.51857  1.0000
  H   H431      1.0  0.3073900000000001  0.35656  0.53688  1.0000
  H   H432      1.0  0.2658  0.34419  0.48419000000000006  1.0000
  H   H433      1.0  0.29549  0.34265  0.60986  1.0000
  H   H434      1.0  0.35076  0.31297  0.6364  1.0000
  H   H435      1.0  0.4080000000000001  0.4153  0.6324  1.0000
  H   H436      1.0  0.47878000000000004  0.28378  0.61136  1.0000
  H   H437      1.0  0.43521  0.3329200000000001  0.5940200000000001  1.0000
  H   H438      1.0  0.40351  0.34462  0.70651  1.0000
  H   H439      1.0  0.44792000000000004  0.29647  0.72395  1.0000
  H   H440      1.0  0.35291  0.44477  0.6050500000000001  1.0000
  H   H441      1.0  0.9624300000000001  0.84859  0.13516000000000006  1.0000
  H   H442      1.0  0.95184  0.71343  0.15599  1.0000
  H   H443      1.0  0.9000600000000001  0.74933  0.12991  1.0000
  H   H444      1.0  0.03352000000000001  0.86738  0.15304  1.0000
  H   H445      1.0  0.09307  0.75295  0.19918  1.0000
  H   H446      1.0  0.12769  0.81154  0.19516  1.0000
  H   H447      1.0  0.3094  0.51933  0.07476  1.0000
  H   H448      1.0  0.20217  0.54775  0.15557000000000004  1.0000
  H   H449      1.0  0.24716  0.49925  0.1721  1.0000
  H   H450      1.0  0.30762  0.57092  0.01857  1.0000
  H   H451      1.0  0.19261  0.64344  0.03688  1.0000
  H   H452      1.0  0.2342  0.65581  0.98419  1.0000
  H   H453      1.0  0.20451  0.65735  0.10986000000000001  1.0000
  H   H454      1.0  0.14924000000000007  0.68703  0.1364  1.0000
  H   H455      1.0  0.092  0.5847  0.1324  1.0000
  H   H456      1.0  0.021220000000000006  0.71622  0.11136  1.0000
  H   H457      1.0  0.06479  0.6670800000000001  0.09402000000000003  1.0000
  H   H458      1.0  0.09649000000000003  0.65538  0.20651  1.0000
  H   H459      1.0  0.05208  0.70353  0.22395  1.0000
  H   H460      1.0  0.14709  0.55523  0.10505  1.0000
  H   H461      1.0  0.03757  0.34859  0.36484000000000005  1.0000
  H   H462      1.0  0.048160000000000015  0.21343000000000004  0.34401  1.0000
  H   H463      1.0  0.09994  0.24933  0.37009  1.0000
  H   H464      1.0  0.9664800000000001  0.36738  0.34696  1.0000
  H   H465      1.0  0.90693  0.25295  0.30082  1.0000
  H   H466      1.0  0.87231  0.31154000000000004  0.30484  1.0000
  H   H467      1.0  0.6906  0.01933  0.42524000000000006  1.0000
  H   H468      1.0  0.7978300000000002  0.047750000000000015  0.34443  1.0000
  H   H469      1.0  0.75284  0.99925  0.3279  1.0000
  H   H470      1.0  0.6923800000000002  0.07092  0.4814300000000001  1.0000
  H   H471      1.0  0.80739  0.14344  0.46312000000000003  1.0000
  H   H472      1.0  0.7658000000000003  0.15581  0.51581  1.0000
  H   H473      1.0  0.79549  0.15735  0.39014  1.0000
  H   H474      1.0  0.8507600000000002  0.18703  0.3636  1.0000
  H   H475      1.0  0.9080000000000001  0.08470000000000003  0.3676  1.0000
  H   H476      1.0  0.9787800000000001  0.21622  0.38864000000000004  1.0000
  H   H477      1.0  0.9352100000000001  0.16708  0.4059800000000001  1.0000
  H   H478      1.0  0.9035100000000001  0.15538  0.29349  1.0000
  H   H479      1.0  0.94792  0.20353000000000004  0.27605  1.0000
  H   H480      1.0  0.8529  0.05523000000000001  0.39495  1.0000
  C   C1        1.0  0.11229  0.602  0.32037  1.0000
  C   C2        1.0  0.96961  0.2006  0.1247  1.0000
  C   C3        1.0  0.16779  0.39442  0.37521  1.0000
  C   C4        1.0  0.13434  0.19405000000000003  0.97715  1.0000
  C   C5        1.0  0.13099  0.57164  0.30076  1.0000
  C   C6        1.0  0.14044  0.53968  0.31946  1.0000
  C   C7        1.0  0.15604000000000004  0.5109  0.30005  1.0000
  C   C8        1.0  0.16138  0.51397  0.26167000000000007  1.0000
  C   C9        1.0  0.15220000000000003  0.54586  0.24279  1.0000
  C   C10       1.0  0.13745  0.57464  0.26285  1.0000
  C   C11       1.0  0.17431  0.41756000000000004  0.34257  1.0000
  C   C12       1.0  0.16413  0.45438  0.3426600000000001  1.0000
  C   C13       1.0  0.16705  0.47436  0.31037  1.0000
  C   C14       1.0  0.17948000000000003  0.45689  0.2781100000000001  1.0000
  C   C15       1.0  0.1902  0.42029  0.27784  1.0000
  C   C16       1.0  0.18775  0.40102  0.31046000000000007  1.0000
  C   C17       1.0  0.12399  0.21989  0.006380000000000002  1.0000
  C   C18       1.0  0.09164  0.21415000000000006  0.025770000000000008  1.0000
  C   C19       1.0  0.08193  0.23894000000000004  0.05285  1.0000
  C   C20       1.0  0.1048  0.26955  0.05996  1.0000
  C   C21       1.0  0.13765000000000002  0.27507  0.04133  1.0000
  C   C22       1.0  0.14682  0.24993000000000004  0.014440000000000001  1.0000
  C   C23       1.0  0.9986900000000001  0.22682000000000002  0.11418000000000002  1.0000
  C   C24       1.0  0.02275  0.21762  0.08598000000000003  1.0000
  C   C25       1.0  0.05203  0.24069  0.0785  1.0000
  C   C26       1.0  0.05738  0.2726300000000001  0.09996  1.0000
  C   C27       1.0  0.0329  0.28268  0.12749  1.0000
  C   C28       1.0  0.0036100000000000004  0.25942  0.13429  1.0000
  C   C29       1.0  0.10555000000000003  0.32121  0.10464  1.0000
  C   C30       1.0  0.11471  0.32025  0.14169  1.0000
  C   C31       1.0  0.12974  0.35105  0.1581  1.0000
  C   C32       1.0  0.13607  0.3830800000000001  0.13793  1.0000
  C   C33       1.0  0.12768000000000002  0.38339  0.10063000000000002  1.0000
  C   C34       1.0  0.11238000000000001  0.35262  0.084  1.0000
  C   C35       1.0  0.16850000000000004  0.46521000000000007  0.21349  1.0000
  C   C36       1.0  0.13216  0.46324  0.20181  1.0000
  C   C37       1.0  0.12258000000000001  0.43864000000000003  0.17444  1.0000
  C   C38       1.0  0.14888000000000007  0.41555  0.15876000000000007  1.0000
  C   C39       1.0  0.18565  0.4205  0.168  1.0000
  C   C40       1.0  0.19556000000000007  0.4455200000000001  0.19511000000000006  1.0000
  C   C41       1.0  0.38771  0.398  0.82037  1.0000
  C   C42       1.0  0.53038  0.7994  0.62469  1.0000
  C   C43       1.0  0.33221  0.60558  0.87521  1.0000
  C   C44       1.0  0.36566  0.80595  0.4771500000000001  1.0000
  C   C45       1.0  0.36901  0.42836  0.80076  1.0000
  C   C46       1.0  0.35956  0.46032  0.8194600000000002  1.0000
  C   C47       1.0  0.34396000000000004  0.48910000000000003  0.8000500000000003  1.0000
  C   C48       1.0  0.3386200000000001  0.4860300000000001  0.76167  1.0000
  C   C49       1.0  0.3478  0.45414  0.74279  1.0000
  C   C50       1.0  0.36255  0.42536  0.7628500000000001  1.0000
  C   C51       1.0  0.32569  0.58244  0.84257  1.0000
  C   C52       1.0  0.33587  0.5456200000000001  0.84266  1.0000
  C   C53       1.0  0.33294  0.5256400000000002  0.8103700000000003  1.0000
  C   C54       1.0  0.3205200000000001  0.54311  0.77811  1.0000
  C   C55       1.0  0.3098  0.57971  0.77784  1.0000
  C   C56       1.0  0.31225  0.59898  0.8104600000000001  1.0000
  C   C57       1.0  0.3760100000000001  0.78011  0.5063800000000002  1.0000
  C   C58       1.0  0.4083600000000001  0.7858500000000003  0.52577  1.0000
  C   C59       1.0  0.41807  0.76106  0.55285  1.0000
  C   C60       1.0  0.39520000000000005  0.73045  0.55996  1.0000
  C   C61       1.0  0.36235000000000006  0.72493  0.54133  1.0000
  C   C62       1.0  0.35318  0.75007  0.51444  1.0000
  C   C63       1.0  0.50131  0.77318  0.61418  1.0000
  C   C64       1.0  0.47725  0.78238  0.58598  1.0000
  C   C65       1.0  0.44797000000000003  0.7593100000000003  0.5785  1.0000
  C   C66       1.0  0.44262  0.7273600000000002  0.59996  1.0000
  C   C67       1.0  0.4671  0.71732  0.62749  1.0000
  C   C68       1.0  0.4963900000000001  0.74058  0.63429  1.0000
  C   C69       1.0  0.39445  0.67879  0.60464  1.0000
  C   C70       1.0  0.38529  0.67975  0.6416900000000001  1.0000
  C   C71       1.0  0.37026  0.64895  0.6581  1.0000
  C   C72       1.0  0.36392  0.61692  0.6379300000000002  1.0000
  C   C73       1.0  0.37232  0.61661  0.60063  1.0000
  C   C74       1.0  0.38762000000000013  0.64737  0.5840000000000001  1.0000
  C   C75       1.0  0.3315  0.53479  0.71349  1.0000
  C   C76       1.0  0.36784  0.53676  0.70181  1.0000
  C   C77       1.0  0.3774200000000001  0.56136  0.67444  1.0000
  C   C78       1.0  0.35112  0.58445  0.65876  1.0000
  C   C79       1.0  0.3143500000000001  0.5795  0.6680000000000003  1.0000
  C   C80       1.0  0.30444000000000004  0.55448  0.69511  1.0000
  C   C81       1.0  0.88771  0.10200000000000002  0.17963  1.0000
  C   C82       1.0  0.03039  0.7006000000000002  0.3753  1.0000
  C   C83       1.0  0.83221  0.89442  0.12479000000000001  1.0000
  C   C84       1.0  0.86566  0.6940500000000001  0.52285  1.0000
  C   C85       1.0  0.8690100000000002  0.07164  0.19924000000000006  1.0000
  C   C86       1.0  0.8595600000000002  0.03968  0.18054000000000006  1.0000
  C   C87       1.0  0.84396  0.0109  0.19995  1.0000
  C   C88       1.0  0.83862  0.013970000000000002  0.23833  1.0000
  C   C89       1.0  0.8478000000000002  0.04586  0.25721  1.0000
  C   C90       1.0  0.86255  0.07464000000000001  0.23715  1.0000
  C   C91       1.0  0.82569  0.91756  0.15743000000000001  1.0000
  C   C92       1.0  0.83587  0.9543800000000001  0.15734  1.0000
  C   C93       1.0  0.8329400000000002  0.9743600000000001  0.18963000000000005  1.0000
  C   C94       1.0  0.82052  0.9568900000000001  0.22189  1.0000
  C   C95       1.0  0.8098000000000002  0.9202900000000002  0.22216  1.0000
  C   C96       1.0  0.8122500000000001  0.90102  0.18954000000000004  1.0000
  C   C97       1.0  0.8760100000000001  0.71989  0.49362  1.0000
  C   C98       1.0  0.90836  0.71415  0.47423  1.0000
  C   C99       1.0  0.91807  0.73894  0.44715000000000005  1.0000
  C   C100      1.0  0.8952  0.7695500000000002  0.44004000000000004  1.0000
  C   C101      1.0  0.86235  0.77507  0.45867  1.0000
  C   C102      1.0  0.85318  0.7499300000000002  0.48556000000000005  1.0000
  C   C103      1.0  0.00131  0.72682  0.3858200000000001  1.0000
  C   C104      1.0  0.9772500000000001  0.7176200000000003  0.4140200000000001  1.0000
  C   C105      1.0  0.9479700000000001  0.74069  0.4215  1.0000
  C   C106      1.0  0.94262  0.77263  0.40004  1.0000
  C   C107      1.0  0.9671  0.7826800000000002  0.37251  1.0000
  C   C108      1.0  0.99639  0.75942  0.36571  1.0000
  C   C109      1.0  0.8944500000000001  0.82121  0.39536  1.0000
  C   C110      1.0  0.8852900000000001  0.8202500000000003  0.3583100000000001  1.0000
  C   C111      1.0  0.87026  0.8510500000000002  0.3419000000000001  1.0000
  C   C112      1.0  0.86392  0.8830800000000001  0.36207  1.0000
  C   C113      1.0  0.8723200000000002  0.8833900000000001  0.39937  1.0000
  C   C114      1.0  0.88762  0.85262  0.416  1.0000
  C   C115      1.0  0.8315000000000002  0.9652100000000001  0.28651  1.0000
  C   C116      1.0  0.86784  0.9632400000000001  0.29819  1.0000
  C   C117      1.0  0.8774200000000001  0.93864  0.32556  1.0000
  C   C118      1.0  0.8511200000000002  0.91555  0.34124  1.0000
  C   C119      1.0  0.8143500000000001  0.9205  0.332  1.0000
  C   C120      1.0  0.80444  0.9455200000000001  0.30489  1.0000
  C   C121      1.0  0.61229  0.898  0.6796300000000001  1.0000
  C   C122      1.0  0.46962  0.2994  0.8753  1.0000
  C   C123      1.0  0.6677900000000002  0.10558000000000001  0.62479  1.0000
  C   C124      1.0  0.63434  0.30595000000000006  0.022850000000000002  1.0000
  C   C125      1.0  0.63099  0.9283600000000001  0.6992400000000001  1.0000
  C   C126      1.0  0.64044  0.96032  0.68054  1.0000
  C   C127      1.0  0.6560400000000002  0.9891000000000001  0.69995  1.0000
  C   C128      1.0  0.6613800000000001  0.9860300000000001  0.7383300000000002  1.0000
  C   C129      1.0  0.6522  0.95414  0.7572100000000003  1.0000
  C   C130      1.0  0.63745  0.92536  0.73715  1.0000
  C   C131      1.0  0.67431  0.08244  0.65743  1.0000
  C   C132      1.0  0.66413  0.04562  0.6573400000000001  1.0000
  C   C133      1.0  0.66705  0.025640000000000003  0.68963  1.0000
  C   C134      1.0  0.6794800000000001  0.04311  0.7218900000000001  1.0000
  C   C135      1.0  0.6902  0.07971  0.7221600000000002  1.0000
  C   C136      1.0  0.68775  0.09898000000000003  0.68954  1.0000
  C   C137      1.0  0.62399  0.28011  0.9936200000000001  1.0000
  C   C138      1.0  0.59164  0.28585  0.97423  1.0000
  C   C139      1.0  0.58193  0.26106  0.9471500000000002  1.0000
  C   C140      1.0  0.6048  0.23045000000000002  0.94004  1.0000
  C   C141      1.0  0.6376500000000002  0.22493  0.95867  1.0000
  C   C142      1.0  0.64682  0.25007  0.9855600000000001  1.0000
  C   C143      1.0  0.49869  0.27318  0.88582  1.0000
  C   C144      1.0  0.5227500000000003  0.28238  0.91401  1.0000
  C   C145      1.0  0.55203  0.25931  0.9215000000000001  1.0000
  C   C146      1.0  0.5573800000000001  0.22737000000000002  0.90004  1.0000
  C   C147      1.0  0.5329  0.21732000000000007  0.87251  1.0000
  C   C148      1.0  0.50361  0.24058  0.8657000000000001  1.0000
  C   C149      1.0  0.6055500000000001  0.17879  0.89536  1.0000
  C   C150      1.0  0.6147100000000002  0.17975000000000005  0.85831  1.0000
  C   C151      1.0  0.62974  0.14895  0.8419000000000001  1.0000
  C   C152      1.0  0.63607  0.11692000000000001  0.86207  1.0000
  C   C153      1.0  0.62768  0.11661  0.8993700000000001  1.0000
  C   C154      1.0  0.61238  0.14738  0.916  1.0000
  C   C155      1.0  0.6685  0.03479  0.7865100000000002  1.0000
  C   C156      1.0  0.6321600000000002  0.03676  0.7981900000000002  1.0000
  C   C157      1.0  0.6225800000000001  0.061360000000000005  0.82556  1.0000
  C   C158      1.0  0.64888  0.08445  0.8412400000000002  1.0000
  C   C159      1.0  0.68565  0.0795  0.832  1.0000
  C   C160      1.0  0.6955600000000002  0.05448000000000001  0.8048900000000002  1.0000
  C   C161      1.0  0.32037  0.11229  0.602  1.0000
  C   C162      1.0  0.1247  0.96961  0.2006  1.0000
  C   C163      1.0  0.37521  0.16779  0.39442  1.0000
  C   C164      1.0  0.97715  0.13434  0.19405000000000003  1.0000
  C   C165      1.0  0.30076  0.13099  0.57164  1.0000
  C   C166      1.0  0.31946  0.14044  0.53968  1.0000
  C   C167      1.0  0.30005  0.15604000000000004  0.5109  1.0000
  C   C168      1.0  0.26167000000000007  0.16138  0.51397  1.0000
  C   C169      1.0  0.24279  0.15220000000000003  0.54586  1.0000
  C   C170      1.0  0.26285  0.13745  0.57464  1.0000
  C   C171      1.0  0.34257  0.17431  0.41756000000000004  1.0000
  C   C172      1.0  0.3426600000000001  0.16413  0.45438  1.0000
  C   C173      1.0  0.31037  0.16705  0.47436  1.0000
  C   C174      1.0  0.2781100000000001  0.17948000000000003  0.45689  1.0000
  C   C175      1.0  0.27784  0.1902  0.42029  1.0000
  C   C176      1.0  0.31046000000000007  0.18775  0.40102  1.0000
  C   C177      1.0  0.006380000000000002  0.12399  0.21989  1.0000
  C   C178      1.0  0.025770000000000008  0.09164  0.21415000000000006  1.0000
  C   C179      1.0  0.05285  0.08193  0.23894000000000004  1.0000
  C   C180      1.0  0.05996  0.1048  0.26955  1.0000
  C   C181      1.0  0.04133  0.13765000000000002  0.27507  1.0000
  C   C182      1.0  0.014440000000000001  0.14682  0.24993000000000004  1.0000
  C   C183      1.0  0.11418000000000002  0.9986900000000001  0.22682000000000002  1.0000
  C   C184      1.0  0.08598000000000003  0.02275  0.21762  1.0000
  C   C185      1.0  0.0785  0.05203  0.24069  1.0000
  C   C186      1.0  0.09996  0.05738  0.27264  1.0000
  C   C187      1.0  0.12749  0.0329  0.28268  1.0000
  C   C188      1.0  0.13429  0.0036100000000000004  0.25942  1.0000
  C   C189      1.0  0.10464  0.10555000000000003  0.32121  1.0000
  C   C190      1.0  0.14169  0.11471  0.32025  1.0000
  C   C191      1.0  0.1581  0.12974  0.35105  1.0000
  C   C192      1.0  0.13793  0.13607  0.3830800000000001  1.0000
  C   C193      1.0  0.10063000000000002  0.12768000000000002  0.38339  1.0000
  C   C194      1.0  0.084  0.11238000000000001  0.35262  1.0000
  C   C195      1.0  0.21349  0.16850000000000004  0.46521000000000007  1.0000
  C   C196      1.0  0.20181  0.13216  0.46324  1.0000
  C   C197      1.0  0.17444  0.12258000000000001  0.43864000000000003  1.0000
  C   C198      1.0  0.15876000000000007  0.14888000000000007  0.41555  1.0000
  C   C199      1.0  0.168  0.18565  0.4205  1.0000
  C   C200      1.0  0.19511000000000006  0.19556000000000007  0.4455200000000001  1.0000
  C   C201      1.0  0.82037  0.38771  0.398  1.0000
  C   C202      1.0  0.6247  0.53038  0.7994  1.0000
  C   C203      1.0  0.87521  0.33221  0.60558  1.0000
  C   C204      1.0  0.4771500000000001  0.36566  0.80595  1.0000
  C   C205      1.0  0.80076  0.36901  0.42836  1.0000
  C   C206      1.0  0.8194600000000002  0.35956  0.46032  1.0000
  C   C207      1.0  0.8000500000000003  0.34396000000000004  0.48910000000000003  1.0000
  C   C208      1.0  0.76167  0.3386200000000001  0.4860300000000001  1.0000
  C   C209      1.0  0.74279  0.3478  0.45414  1.0000
  C   C210      1.0  0.7628500000000001  0.36255  0.42536  1.0000
  C   C211      1.0  0.84257  0.32569  0.58244  1.0000
  C   C212      1.0  0.84266  0.33587  0.5456200000000001  1.0000
  C   C213      1.0  0.8103700000000003  0.33294  0.5256400000000002  1.0000
  C   C214      1.0  0.77811  0.3205200000000001  0.54311  1.0000
  C   C215      1.0  0.77784  0.3098  0.57971  1.0000
  C   C216      1.0  0.8104600000000001  0.31225  0.59898  1.0000
  C   C217      1.0  0.5063800000000002  0.3760100000000001  0.78011  1.0000
  C   C218      1.0  0.52577  0.4083600000000001  0.7858500000000003  1.0000
  C   C219      1.0  0.55285  0.41807  0.76106  1.0000
  C   C220      1.0  0.55996  0.39520000000000005  0.73045  1.0000
  C   C221      1.0  0.54133  0.36235000000000006  0.72493  1.0000
  C   C222      1.0  0.51444  0.35318  0.75007  1.0000
  C   C223      1.0  0.61418  0.50131  0.77318  1.0000
  C   C224      1.0  0.58598  0.47725  0.78238  1.0000
  C   C225      1.0  0.5785  0.44797000000000003  0.7593100000000003  1.0000
  C   C226      1.0  0.59996  0.44262  0.7273600000000002  1.0000
  C   C227      1.0  0.62749  0.4671  0.71732  1.0000
  C   C228      1.0  0.63429  0.4963900000000001  0.74058  1.0000
  C   C229      1.0  0.60464  0.39445  0.67879  1.0000
  C   C230      1.0  0.6416900000000001  0.38529  0.67975  1.0000
  C   C231      1.0  0.6581  0.37026  0.64895  1.0000
  C   C232      1.0  0.6379300000000002  0.36392  0.61692  1.0000
  C   C233      1.0  0.60063  0.37232  0.61661  1.0000
  C   C234      1.0  0.5840000000000001  0.38762000000000013  0.6473800000000002  1.0000
  C   C235      1.0  0.71349  0.3315  0.53479  1.0000
  C   C236      1.0  0.70181  0.36784  0.53676  1.0000
  C   C237      1.0  0.67444  0.3774200000000001  0.56136  1.0000
  C   C238      1.0  0.65876  0.35112  0.58445  1.0000
  C   C239      1.0  0.6680000000000003  0.3143500000000001  0.5795  1.0000
  C   C240      1.0  0.69511  0.30444000000000004  0.55448  1.0000
  C   C241      1.0  0.17963  0.88771  0.10200000000000002  1.0000
  C   C242      1.0  0.3753  0.030380000000000004  0.7006000000000002  1.0000
  C   C243      1.0  0.12479000000000001  0.83221  0.89442  1.0000
  C   C244      1.0  0.52285  0.86566  0.6940500000000001  1.0000
  C   C245      1.0  0.19924000000000006  0.8690100000000002  0.07164  1.0000
  C   C246      1.0  0.18054000000000006  0.8595600000000002  0.03968  1.0000
  C   C247      1.0  0.19995  0.84396  0.0109  1.0000
  C   C248      1.0  0.23833  0.83862  0.013970000000000002  1.0000
  C   C249      1.0  0.25721  0.8478000000000002  0.04586  1.0000
  C   C250      1.0  0.23715  0.86255  0.07464000000000001  1.0000
  C   C251      1.0  0.15743000000000001  0.82569  0.91756  1.0000
  C   C252      1.0  0.15734  0.83587  0.9543800000000001  1.0000
  C   C253      1.0  0.18963000000000005  0.8329400000000002  0.9743600000000001  1.0000
  C   C254      1.0  0.22189  0.82052  0.9568900000000001  1.0000
  C   C255      1.0  0.22216  0.8098000000000002  0.9202900000000002  1.0000
  C   C256      1.0  0.18954000000000004  0.8122500000000001  0.90102  1.0000
  C   C257      1.0  0.49362  0.8760100000000001  0.71989  1.0000
  C   C258      1.0  0.47423  0.90836  0.71415  1.0000
  C   C259      1.0  0.44715000000000005  0.91807  0.73894  1.0000
  C   C260      1.0  0.44004000000000004  0.8952  0.7695500000000002  1.0000
  C   C261      1.0  0.45867  0.86235  0.77507  1.0000
  C   C262      1.0  0.48556000000000005  0.85318  0.7499300000000002  1.0000
  C   C263      1.0  0.3858200000000001  0.00131  0.72682  1.0000
  C   C264      1.0  0.4140200000000001  0.9772500000000001  0.7176200000000003  1.0000
  C   C265      1.0  0.4215  0.9479700000000001  0.74069  1.0000
  C   C266      1.0  0.40004  0.94262  0.77263  1.0000
  C   C267      1.0  0.37251  0.9671  0.7826800000000002  1.0000
  C   C268      1.0  0.36571  0.99639  0.75942  1.0000
  C   C269      1.0  0.39536  0.8944500000000001  0.82121  1.0000
  C   C270      1.0  0.3583100000000001  0.8852900000000001  0.8202500000000003  1.0000
  C   C271      1.0  0.3419000000000001  0.87026  0.8510500000000002  1.0000
  C   C272      1.0  0.36207  0.86392  0.8830800000000001  1.0000
  C   C273      1.0  0.39937  0.8723200000000002  0.8833900000000001  1.0000
  C   C274      1.0  0.416  0.88762  0.85262  1.0000
  C   C275      1.0  0.28651  0.8315000000000002  0.9652100000000001  1.0000
  C   C276      1.0  0.29819  0.86784  0.9632400000000001  1.0000
  C   C277      1.0  0.32556  0.8774200000000001  0.93864  1.0000
  C   C278      1.0  0.34124  0.8511200000000002  0.91555  1.0000
  C   C279      1.0  0.332  0.8143500000000001  0.9205  1.0000
  C   C280      1.0  0.30489  0.80444  0.9455200000000001  1.0000
  C   C281      1.0  0.6796300000000001  0.61229  0.898  1.0000
  C   C282      1.0  0.8753  0.46961  0.2994  1.0000
  C   C283      1.0  0.62479  0.6677900000000002  0.10558000000000001  1.0000
  C   C284      1.0  0.022850000000000002  0.63434  0.30595000000000006  1.0000
  C   C285      1.0  0.6992400000000001  0.63099  0.9283600000000001  1.0000
  C   C286      1.0  0.68054  0.64044  0.96032  1.0000
  C   C287      1.0  0.69995  0.6560400000000002  0.9891000000000001  1.0000
  C   C288      1.0  0.7383300000000002  0.6613800000000001  0.9860300000000001  1.0000
  C   C289      1.0  0.7572100000000003  0.6522  0.95414  1.0000
  C   C290      1.0  0.73715  0.63745  0.92536  1.0000
  C   C291      1.0  0.65743  0.67431  0.08244  1.0000
  C   C292      1.0  0.6573400000000001  0.66413  0.04562  1.0000
  C   C293      1.0  0.68963  0.66705  0.025640000000000003  1.0000
  C   C294      1.0  0.7218900000000001  0.6794800000000001  0.04311  1.0000
  C   C295      1.0  0.7221600000000002  0.6902  0.07971  1.0000
  C   C296      1.0  0.68954  0.68775  0.09898000000000003  1.0000
  C   C297      1.0  0.9936200000000001  0.62399  0.28011  1.0000
  C   C298      1.0  0.97423  0.59164  0.28585  1.0000
  C   C299      1.0  0.9471500000000002  0.58193  0.26106  1.0000
  C   C300      1.0  0.94004  0.6048  0.23045000000000002  1.0000
  C   C301      1.0  0.95867  0.6376500000000002  0.22493  1.0000
  C   C302      1.0  0.9855600000000001  0.64682  0.25007  1.0000
  C   C303      1.0  0.88582  0.49869  0.27318  1.0000
  C   C304      1.0  0.91401  0.5227500000000003  0.28238  1.0000
  C   C305      1.0  0.9215000000000001  0.55203  0.25931  1.0000
  C   C306      1.0  0.90004  0.5573800000000001  0.22736  1.0000
  C   C307      1.0  0.87251  0.5329  0.21732000000000007  1.0000
  C   C308      1.0  0.8657000000000001  0.50361  0.24058  1.0000
  C   C309      1.0  0.89536  0.6055500000000001  0.17879  1.0000
  C   C310      1.0  0.85831  0.6147100000000002  0.17975000000000005  1.0000
  C   C311      1.0  0.8419000000000001  0.62974  0.14895  1.0000
  C   C312      1.0  0.86207  0.63607  0.11692000000000001  1.0000
  C   C313      1.0  0.8993700000000001  0.62768  0.11661  1.0000
  C   C314      1.0  0.916  0.61238  0.14738  1.0000
  C   C315      1.0  0.7865100000000002  0.6685  0.03479  1.0000
  C   C316      1.0  0.7981900000000002  0.6321600000000002  0.03676  1.0000
  C   C317      1.0  0.82556  0.6225800000000001  0.061360000000000005  1.0000
  C   C318      1.0  0.8412400000000002  0.64888  0.08445  1.0000
  C   C319      1.0  0.832  0.68565  0.0795  1.0000
  C   C320      1.0  0.8048900000000002  0.6955600000000002  0.05448000000000001  1.0000
  C   C321      1.0  0.602  0.32037  0.11229  1.0000
  C   C322      1.0  0.2006  0.1247  0.96961  1.0000
  C   C323      1.0  0.39442  0.37521  0.16779  1.0000
  C   C324      1.0  0.19405000000000003  0.97715  0.13434  1.0000
  C   C325      1.0  0.57164  0.30076  0.13099  1.0000
  C   C326      1.0  0.53968  0.31946  0.14044  1.0000
  C   C327      1.0  0.5109  0.30005  0.15604000000000004  1.0000
  C   C328      1.0  0.51397  0.26167000000000007  0.16138  1.0000
  C   C329      1.0  0.54586  0.24279  0.15220000000000003  1.0000
  C   C330      1.0  0.57464  0.26285  0.13745  1.0000
  C   C331      1.0  0.41756000000000004  0.34257  0.17431  1.0000
  C   C332      1.0  0.45438  0.3426600000000001  0.16413  1.0000
  C   C333      1.0  0.47436  0.31037  0.16705  1.0000
  C   C334      1.0  0.45689  0.2781100000000001  0.17948000000000003  1.0000
  C   C335      1.0  0.42029  0.27784  0.1902  1.0000
  C   C336      1.0  0.40102  0.31046000000000007  0.18775  1.0000
  C   C337      1.0  0.21989  0.006380000000000002  0.12399  1.0000
  C   C338      1.0  0.21415000000000006  0.025770000000000008  0.09164  1.0000
  C   C339      1.0  0.23894000000000004  0.05285  0.08193  1.0000
  C   C340      1.0  0.26955  0.05996  0.1048  1.0000
  C   C341      1.0  0.27507  0.04133  0.13765000000000002  1.0000
  C   C342      1.0  0.24993000000000004  0.014440000000000001  0.14682  1.0000
  C   C343      1.0  0.22682000000000002  0.11418000000000002  0.9986900000000001  1.0000
  C   C344      1.0  0.21762  0.08598000000000003  0.02275  1.0000
  C   C345      1.0  0.24069  0.0785  0.05203  1.0000
  C   C346      1.0  0.2726300000000001  0.09996  0.05738  1.0000
  C   C347      1.0  0.28268  0.12749  0.0329  1.0000
  C   C348      1.0  0.25942  0.13429  0.0036100000000000004  1.0000
  C   C349      1.0  0.32121  0.10464  0.10555000000000003  1.0000
  C   C350      1.0  0.32025  0.14169  0.11471  1.0000
  C   C351      1.0  0.35105  0.1581  0.12974  1.0000
  C   C352      1.0  0.3830800000000001  0.13793  0.13607  1.0000
  C   C353      1.0  0.38339  0.10063000000000002  0.12768000000000002  1.0000
  C   C354      1.0  0.35262  0.084  0.11238000000000001  1.0000
  C   C355      1.0  0.46521000000000007  0.21349  0.16850000000000004  1.0000
  C   C356      1.0  0.46324  0.20181  0.13216  1.0000
  C   C357      1.0  0.43864000000000003  0.17444  0.12258000000000001  1.0000
  C   C358      1.0  0.41555  0.15876000000000007  0.14888000000000007  1.0000
  C   C359      1.0  0.4205  0.168  0.18565  1.0000
  C   C360      1.0  0.4455200000000001  0.19511000000000006  0.19556000000000007  1.0000
  C   C361      1.0  0.398  0.82037  0.38771  1.0000
  C   C362      1.0  0.7994  0.6247  0.53038  1.0000
  C   C363      1.0  0.60558  0.87521  0.33221  1.0000
  C   C364      1.0  0.80595  0.4771500000000001  0.36566  1.0000
  C   C365      1.0  0.42836  0.80076  0.36901  1.0000
  C   C366      1.0  0.46032  0.8194600000000002  0.35956  1.0000
  C   C367      1.0  0.48910000000000003  0.8000500000000003  0.34396000000000004  1.0000
  C   C368      1.0  0.4860300000000001  0.76167  0.3386200000000001  1.0000
  C   C369      1.0  0.45414  0.74279  0.3478  1.0000
  C   C370      1.0  0.42536  0.7628500000000001  0.36255  1.0000
  C   C371      1.0  0.58244  0.84257  0.32569  1.0000
  C   C372      1.0  0.5456200000000001  0.84266  0.33587  1.0000
  C   C373      1.0  0.5256400000000002  0.8103700000000003  0.33294  1.0000
  C   C374      1.0  0.54311  0.77811  0.3205200000000001  1.0000
  C   C375      1.0  0.57971  0.77784  0.3098  1.0000
  C   C376      1.0  0.59898  0.8104600000000001  0.31225  1.0000
  C   C377      1.0  0.78011  0.5063800000000002  0.3760100000000001  1.0000
  C   C378      1.0  0.7858500000000003  0.52577  0.4083600000000001  1.0000
  C   C379      1.0  0.76106  0.55285  0.41807  1.0000
  C   C380      1.0  0.73045  0.55996  0.39520000000000005  1.0000
  C   C381      1.0  0.72493  0.54133  0.36235000000000006  1.0000
  C   C382      1.0  0.75007  0.51444  0.35318  1.0000
  C   C383      1.0  0.77318  0.61418  0.50131  1.0000
  C   C384      1.0  0.78238  0.58598  0.47725  1.0000
  C   C385      1.0  0.7593100000000003  0.5785  0.44797000000000003  1.0000
  C   C386      1.0  0.7273600000000002  0.59996  0.44262  1.0000
  C   C387      1.0  0.71732  0.62749  0.4671  1.0000
  C   C388      1.0  0.74058  0.63429  0.4963900000000001  1.0000
  C   C389      1.0  0.67879  0.60464  0.39445  1.0000
  C   C390      1.0  0.67975  0.6416900000000001  0.38529  1.0000
  C   C391      1.0  0.64895  0.6581  0.37026  1.0000
  C   C392      1.0  0.61692  0.6379300000000002  0.36392  1.0000
  C   C393      1.0  0.61661  0.60063  0.37232  1.0000
  C   C394      1.0  0.6473800000000002  0.5840000000000001  0.38762000000000013  1.0000
  C   C395      1.0  0.53479  0.71349  0.3315  1.0000
  C   C396      1.0  0.53676  0.70181  0.36784  1.0000
  C   C397      1.0  0.56136  0.67444  0.3774200000000001  1.0000
  C   C398      1.0  0.58445  0.65876  0.35112  1.0000
  C   C399      1.0  0.5795  0.6680000000000003  0.3143500000000001  1.0000
  C   C400      1.0  0.55448  0.69511  0.30444000000000004  1.0000
  C   C401      1.0  0.10200000000000002  0.17963  0.88771  1.0000
  C   C402      1.0  0.7006000000000002  0.3753  0.030380000000000004  1.0000
  C   C403      1.0  0.89442  0.12479000000000001  0.83221  1.0000
  C   C404      1.0  0.6940500000000001  0.52285  0.86566  1.0000
  C   C405      1.0  0.07164  0.19924000000000006  0.8690100000000002  1.0000
  C   C406      1.0  0.03968  0.18054000000000006  0.8595600000000002  1.0000
  C   C407      1.0  0.0109  0.19995  0.84396  1.0000
  C   C408      1.0  0.013970000000000002  0.23833  0.83862  1.0000
  C   C409      1.0  0.04586  0.25721  0.8478000000000002  1.0000
  C   C410      1.0  0.07464000000000001  0.23715  0.86255  1.0000
  C   C411      1.0  0.91756  0.15743000000000001  0.82569  1.0000
  C   C412      1.0  0.9543800000000001  0.15734  0.83587  1.0000
  C   C413      1.0  0.9743600000000001  0.18963000000000005  0.8329400000000002  1.0000
  C   C414      1.0  0.9568900000000001  0.22189  0.82052  1.0000
  C   C415      1.0  0.9202900000000002  0.22216  0.8098000000000002  1.0000
  C   C416      1.0  0.90102  0.18954000000000004  0.8122500000000001  1.0000
  C   C417      1.0  0.71989  0.49362  0.8760100000000001  1.0000
  C   C418      1.0  0.71415  0.47423  0.90836  1.0000
  C   C419      1.0  0.73894  0.44715000000000005  0.91807  1.0000
  C   C420      1.0  0.7695500000000002  0.44004000000000004  0.8952  1.0000
  C   C421      1.0  0.77507  0.45867  0.86235  1.0000
  C   C422      1.0  0.7499300000000002  0.48556000000000005  0.85318  1.0000
  C   C423      1.0  0.72682  0.3858200000000001  0.00131  1.0000
  C   C424      1.0  0.7176200000000003  0.4140200000000001  0.9772500000000001  1.0000
  C   C425      1.0  0.74069  0.4215  0.9479700000000001  1.0000
  C   C426      1.0  0.77263  0.40004  0.94262  1.0000
  C   C427      1.0  0.7826800000000002  0.37251  0.9671  1.0000
  C   C428      1.0  0.75942  0.36571  0.99639  1.0000
  C   C429      1.0  0.82121  0.39536  0.8944500000000001  1.0000
  C   C430      1.0  0.8202500000000003  0.3583100000000001  0.8852900000000001  1.0000
  C   C431      1.0  0.8510500000000002  0.3419000000000001  0.87026  1.0000
  C   C432      1.0  0.8830800000000001  0.36207  0.86392  1.0000
  C   C433      1.0  0.8833900000000001  0.39937  0.8723200000000002  1.0000
  C   C434      1.0  0.85262  0.416  0.88762  1.0000
  C   C435      1.0  0.9652100000000001  0.28651  0.8315000000000002  1.0000
  C   C436      1.0  0.9632400000000001  0.29819  0.86784  1.0000
  C   C437      1.0  0.93864  0.32556  0.8774200000000001  1.0000
  C   C438      1.0  0.91555  0.34124  0.8511200000000002  1.0000
  C   C439      1.0  0.9205  0.332  0.8143500000000001  1.0000
  C   C440      1.0  0.9455200000000001  0.30489  0.80444  1.0000
  C   C441      1.0  0.898  0.6796300000000001  0.61229  1.0000
  C   C442      1.0  0.2994  0.8753  0.46961  1.0000
  C   C443      1.0  0.10558000000000001  0.62479  0.6677900000000002  1.0000
  C   C444      1.0  0.30595000000000006  0.022850000000000002  0.63434  1.0000
  C   C445      1.0  0.9283600000000001  0.6992400000000001  0.63099  1.0000
  C   C446      1.0  0.96032  0.68054  0.64044  1.0000
  C   C447      1.0  0.9891000000000001  0.69995  0.6560400000000002  1.0000
  C   C448      1.0  0.9860300000000001  0.7383300000000002  0.6613800000000001  1.0000
  C   C449      1.0  0.95414  0.7572100000000003  0.6522  1.0000
  C   C450      1.0  0.92536  0.73715  0.63745  1.0000
  C   C451      1.0  0.08244  0.65743  0.67431  1.0000
  C   C452      1.0  0.04562  0.6573400000000001  0.66413  1.0000
  C   C453      1.0  0.025640000000000003  0.68963  0.66705  1.0000
  C   C454      1.0  0.04311  0.7218900000000001  0.6794800000000001  1.0000
  C   C455      1.0  0.07971  0.7221600000000002  0.6902  1.0000
  C   C456      1.0  0.09898000000000003  0.68954  0.68775  1.0000
  C   C457      1.0  0.28011  0.9936200000000001  0.62399  1.0000
  C   C458      1.0  0.28585  0.97423  0.59164  1.0000
  C   C459      1.0  0.26106  0.9471500000000002  0.58193  1.0000
  C   C460      1.0  0.23045000000000002  0.94004  0.6048  1.0000
  C   C461      1.0  0.22493  0.95867  0.6376500000000002  1.0000
  C   C462      1.0  0.25007  0.9855600000000001  0.64682  1.0000
  C   C463      1.0  0.27318  0.88582  0.49869  1.0000
  C   C464      1.0  0.28238  0.91401  0.5227500000000003  1.0000
  C   C465      1.0  0.25931  0.9215000000000001  0.55203  1.0000
  C   C466      1.0  0.22737000000000002  0.90004  0.5573800000000001  1.0000
  C   C467      1.0  0.21732000000000007  0.87251  0.5329  1.0000
  C   C468      1.0  0.24058  0.86571  0.50361  1.0000
  C   C469      1.0  0.17879  0.89536  0.6055500000000001  1.0000
  C   C470      1.0  0.17975000000000005  0.85831  0.6147100000000002  1.0000
  C   C471      1.0  0.14895  0.8419000000000001  0.62974  1.0000
  C   C472      1.0  0.11692000000000001  0.86207  0.63607  1.0000
  C   C473      1.0  0.11661  0.8993700000000001  0.62767  1.0000
  C   C474      1.0  0.14738  0.916  0.61238  1.0000
  C   C475      1.0  0.03479  0.7865100000000002  0.6685  1.0000
  C   C476      1.0  0.03676  0.7981900000000002  0.6321600000000002  1.0000
  C   C477      1.0  0.061360000000000005  0.82556  0.6225800000000001  1.0000
  C   C478      1.0  0.08445  0.8412400000000002  0.64888  1.0000
  C   C479      1.0  0.0795  0.832  0.68565  1.0000
  C   C480      1.0  0.05448000000000001  0.8048900000000002  0.6955600000000002  1.0000
  C   C481      1.0  0.88771  0.398  0.6796300000000001  1.0000
  C   C482      1.0  0.03039  0.7994  0.8753  1.0000
  C   C483      1.0  0.83221  0.60558  0.62479  1.0000
  C   C484      1.0  0.86566  0.80595  0.022850000000000002  1.0000
  C   C485      1.0  0.8690100000000002  0.42836  0.6992400000000001  1.0000
  C   C486      1.0  0.8595600000000002  0.46032  0.68054  1.0000
  C   C487      1.0  0.84396  0.48910000000000003  0.69995  1.0000
  C   C488      1.0  0.83862  0.4860300000000001  0.7383300000000002  1.0000
  C   C489      1.0  0.8478000000000002  0.45414  0.7572100000000003  1.0000
  C   C490      1.0  0.86255  0.42536  0.73715  1.0000
  C   C491      1.0  0.82569  0.58244  0.65743  1.0000
  C   C492      1.0  0.83587  0.5456200000000001  0.6573400000000001  1.0000
  C   C493      1.0  0.8329400000000002  0.5256400000000002  0.68963  1.0000
  C   C494      1.0  0.82052  0.54311  0.7218900000000001  1.0000
  C   C495      1.0  0.8098000000000002  0.57971  0.7221600000000002  1.0000
  C   C496      1.0  0.8122500000000001  0.59898  0.68954  1.0000
  C   C497      1.0  0.8760100000000001  0.78011  0.9936200000000001  1.0000
  C   C498      1.0  0.90836  0.7858500000000003  0.97423  1.0000
  C   C499      1.0  0.91807  0.76106  0.9471500000000002  1.0000
  C   C500      1.0  0.8952  0.73045  0.94004  1.0000
  C   C501      1.0  0.86235  0.72493  0.95867  1.0000
  C   C502      1.0  0.85318  0.75007  0.9855600000000001  1.0000
  C   C503      1.0  0.00131  0.77318  0.88582  1.0000
  C   C504      1.0  0.9772500000000001  0.78238  0.91401  1.0000
  C   C505      1.0  0.9479700000000001  0.7593100000000003  0.9215000000000001  1.0000
  C   C506      1.0  0.94262  0.7273600000000002  0.90004  1.0000
  C   C507      1.0  0.9671  0.71732  0.87251  1.0000
  C   C508      1.0  0.99639  0.74058  0.8657000000000001  1.0000
  C   C509      1.0  0.8944500000000001  0.67879  0.89536  1.0000
  C   C510      1.0  0.8852900000000001  0.67975  0.85831  1.0000
  C   C511      1.0  0.87026  0.64895  0.8419000000000001  1.0000
  C   C512      1.0  0.86392  0.61692  0.86207  1.0000
  C   C513      1.0  0.8723200000000002  0.61661  0.8993700000000001  1.0000
  C   C514      1.0  0.88762  0.6473800000000002  0.916  1.0000
  C   C515      1.0  0.8315000000000002  0.53479  0.7865100000000002  1.0000
  C   C516      1.0  0.86784  0.53676  0.7981900000000002  1.0000
  C   C517      1.0  0.8774200000000001  0.56136  0.82556  1.0000
  C   C518      1.0  0.8511200000000002  0.58445  0.8412400000000002  1.0000
  C   C519      1.0  0.8143500000000001  0.5795  0.832  1.0000
  C   C520      1.0  0.80444  0.55448  0.8048900000000002  1.0000
  C   C521      1.0  0.61229  0.602  0.17963  1.0000
  C   C522      1.0  0.46961  0.2006  0.3753  1.0000
  C   C523      1.0  0.6677900000000002  0.39442  0.12479000000000001  1.0000
  C   C524      1.0  0.63434  0.19405000000000003  0.52285  1.0000
  C   C525      1.0  0.63099  0.57164  0.19924000000000006  1.0000
  C   C526      1.0  0.64044  0.53968  0.18054000000000006  1.0000
  C   C527      1.0  0.6560400000000002  0.5109  0.19995  1.0000
  C   C528      1.0  0.6613800000000001  0.51397  0.23833  1.0000
  C   C529      1.0  0.6522  0.54586  0.25721  1.0000
  C   C530      1.0  0.63745  0.57464  0.23715  1.0000
  C   C531      1.0  0.67431  0.41756000000000004  0.15743000000000001  1.0000
  C   C532      1.0  0.66413  0.45438  0.15734  1.0000
  C   C533      1.0  0.66705  0.47436  0.18963000000000005  1.0000
  C   C534      1.0  0.6794800000000001  0.45689  0.22189  1.0000
  C   C535      1.0  0.6902  0.42029  0.22216  1.0000
  C   C536      1.0  0.68775  0.40102  0.18954000000000004  1.0000
  C   C537      1.0  0.62399  0.21989  0.49362  1.0000
  C   C538      1.0  0.59164  0.21415000000000006  0.47423  1.0000
  C   C539      1.0  0.58193  0.23894000000000004  0.44715000000000005  1.0000
  C   C540      1.0  0.6048  0.26955  0.44004000000000004  1.0000
  C   C541      1.0  0.6376500000000002  0.27507  0.45867  1.0000
  C   C542      1.0  0.64682  0.24993000000000004  0.48556000000000005  1.0000
  C   C543      1.0  0.49869  0.22682000000000002  0.3858200000000001  1.0000
  C   C544      1.0  0.5227500000000003  0.21762  0.4140200000000001  1.0000
  C   C545      1.0  0.55203  0.24069  0.4215  1.0000
  C   C546      1.0  0.5573800000000001  0.2726300000000001  0.40004  1.0000
  C   C547      1.0  0.5329  0.28268  0.37251  1.0000
  C   C548      1.0  0.50361  0.25942  0.36571  1.0000
  C   C549      1.0  0.6055500000000001  0.32121  0.39536  1.0000
  C   C550      1.0  0.6147100000000002  0.32025  0.3583100000000001  1.0000
  C   C551      1.0  0.62974  0.35105  0.3419000000000001  1.0000
  C   C552      1.0  0.63607  0.3830800000000001  0.36207  1.0000
  C   C553      1.0  0.62768  0.38339  0.39937  1.0000
  C   C554      1.0  0.61238  0.35262  0.416  1.0000
  C   C555      1.0  0.6685  0.46521000000000007  0.28651  1.0000
  C   C556      1.0  0.6321600000000002  0.46324  0.29819  1.0000
  C   C557      1.0  0.6225800000000001  0.43864000000000003  0.32556  1.0000
  C   C558      1.0  0.64888  0.41555  0.34124  1.0000
  C   C559      1.0  0.68565  0.4205  0.332  1.0000
  C   C560      1.0  0.6955600000000002  0.4455200000000001  0.30489  1.0000
  C   C561      1.0  0.11229  0.898  0.82037  1.0000
  C   C562      1.0  0.96961  0.2994  0.6247  1.0000
  C   C563      1.0  0.16779  0.10558000000000001  0.87521  1.0000
  C   C564      1.0  0.13434  0.30595000000000006  0.4771500000000001  1.0000
  C   C565      1.0  0.13099  0.9283600000000001  0.80076  1.0000
  C   C566      1.0  0.14044  0.96032  0.8194600000000002  1.0000
  C   C567      1.0  0.15604000000000004  0.9891000000000001  0.8000500000000003  1.0000
  C   C568      1.0  0.16138  0.9860300000000001  0.76167  1.0000
  C   C569      1.0  0.15220000000000003  0.95414  0.74279  1.0000
  C   C570      1.0  0.13745  0.92536  0.7628500000000001  1.0000
  C   C571      1.0  0.17431  0.08244  0.84257  1.0000
  C   C572      1.0  0.16413  0.04562  0.84266  1.0000
  C   C573      1.0  0.16706000000000001  0.025640000000000003  0.8103700000000003  1.0000
  C   C574      1.0  0.17948000000000003  0.04311  0.77811  1.0000
  C   C575      1.0  0.1902  0.07971  0.77784  1.0000
  C   C576      1.0  0.18775  0.09898000000000003  0.8104600000000001  1.0000
  C   C577      1.0  0.12399  0.28011  0.5063800000000002  1.0000
  C   C578      1.0  0.09164  0.28585  0.52577  1.0000
  C   C579      1.0  0.08193  0.26106  0.55285  1.0000
  C   C580      1.0  0.1048  0.23045000000000002  0.55996  1.0000
  C   C581      1.0  0.13765000000000002  0.22493  0.54133  1.0000
  C   C582      1.0  0.14682  0.25007  0.51444  1.0000
  C   C583      1.0  0.9986900000000001  0.27318  0.61418  1.0000
  C   C584      1.0  0.02275  0.28238  0.58598  1.0000
  C   C585      1.0  0.05203  0.25931  0.5785  1.0000
  C   C586      1.0  0.05738  0.22736  0.59996  1.0000
  C   C587      1.0  0.0329  0.21732000000000007  0.62749  1.0000
  C   C588      1.0  0.0036100000000000004  0.24058  0.63429  1.0000
  C   C589      1.0  0.10555000000000003  0.17879  0.60464  1.0000
  C   C590      1.0  0.11471  0.17975000000000005  0.6416900000000001  1.0000
  C   C591      1.0  0.12974  0.14895  0.6581  1.0000
  C   C592      1.0  0.13607  0.11692000000000001  0.6379300000000002  1.0000
  C   C593      1.0  0.12768000000000002  0.11661  0.60063  1.0000
  C   C594      1.0  0.11238000000000001  0.14738  0.5840000000000001  1.0000
  C   C595      1.0  0.16850000000000004  0.03479  0.71349  1.0000
  C   C596      1.0  0.13216  0.03676  0.70181  1.0000
  C   C597      1.0  0.12258000000000001  0.061360000000000005  0.67444  1.0000
  C   C598      1.0  0.14888000000000007  0.08445  0.65876  1.0000
  C   C599      1.0  0.18565  0.0795  0.6680000000000003  1.0000
  C   C600      1.0  0.19556000000000007  0.05448000000000001  0.69511  1.0000
  C   C601      1.0  0.38771  0.10200000000000002  0.32037  1.0000
  C   C602      1.0  0.53038  0.7006000000000002  0.1247  1.0000
  C   C603      1.0  0.33221  0.89442  0.37521  1.0000
  C   C604      1.0  0.36566  0.6940500000000001  0.97715  1.0000
  C   C605      1.0  0.36901  0.07164  0.30076  1.0000
  C   C606      1.0  0.35956  0.03968  0.31946  1.0000
  C   C607      1.0  0.34396000000000004  0.0109  0.30005  1.0000
  C   C608      1.0  0.3386200000000001  0.013970000000000002  0.26167000000000007  1.0000
  C   C609      1.0  0.3478  0.04586  0.24279  1.0000
  C   C610      1.0  0.36255  0.07464000000000001  0.26285  1.0000
  C   C611      1.0  0.32569  0.91756  0.34257  1.0000
  C   C612      1.0  0.33587  0.9543800000000001  0.3426600000000001  1.0000
  C   C613      1.0  0.33294  0.9743600000000001  0.31037  1.0000
  C   C614      1.0  0.3205200000000001  0.9568900000000001  0.2781100000000001  1.0000
  C   C615      1.0  0.3098  0.9202900000000002  0.27784  1.0000
  C   C616      1.0  0.31225  0.90102  0.31046000000000007  1.0000
  C   C617      1.0  0.3760100000000001  0.71989  0.006380000000000002  1.0000
  C   C618      1.0  0.4083600000000001  0.71415  0.025770000000000008  1.0000
  C   C619      1.0  0.41807  0.73894  0.05285  1.0000
  C   C620      1.0  0.39520000000000005  0.7695500000000002  0.05996  1.0000
  C   C621      1.0  0.36235000000000006  0.77507  0.04133  1.0000
  C   C622      1.0  0.35318  0.7499300000000002  0.014440000000000001  1.0000
  C   C623      1.0  0.50131  0.72682  0.11418000000000002  1.0000
  C   C624      1.0  0.47725  0.7176200000000003  0.08598000000000003  1.0000
  C   C625      1.0  0.44797000000000003  0.74069  0.0785  1.0000
  C   C626      1.0  0.44262  0.77263  0.09996  1.0000
  C   C627      1.0  0.4671  0.7826800000000002  0.12749  1.0000
  C   C628      1.0  0.4963900000000001  0.75942  0.13429  1.0000
  C   C629      1.0  0.39445  0.82121  0.10464  1.0000
  C   C630      1.0  0.38529  0.8202500000000003  0.14169  1.0000
  C   C631      1.0  0.37026  0.8510500000000002  0.1581  1.0000
  C   C632      1.0  0.36392  0.8830800000000001  0.13793  1.0000
  C   C633      1.0  0.37232  0.8833900000000001  0.10063000000000002  1.0000
  C   C634      1.0  0.38762000000000013  0.85262  0.084  1.0000
  C   C635      1.0  0.3315  0.9652100000000001  0.21349  1.0000
  C   C636      1.0  0.36784  0.9632400000000001  0.20181  1.0000
  C   C637      1.0  0.3774200000000001  0.93864  0.17444  1.0000
  C   C638      1.0  0.35112  0.91555  0.15876000000000007  1.0000
  C   C639      1.0  0.3143500000000001  0.9205  0.168  1.0000
  C   C640      1.0  0.30444000000000004  0.9455200000000001  0.19511000000000006  1.0000
  C   C641      1.0  0.6796300000000001  0.88771  0.398  1.0000
  C   C642      1.0  0.8753  0.030380000000000004  0.7994  1.0000
  C   C643      1.0  0.62479  0.83221  0.60558  1.0000
  C   C644      1.0  0.022850000000000002  0.86566  0.80595  1.0000
  C   C645      1.0  0.6992400000000001  0.8690100000000002  0.42836  1.0000
  C   C646      1.0  0.68054  0.8595600000000002  0.46032  1.0000
  C   C647      1.0  0.69995  0.84396  0.48910000000000003  1.0000
  C   C648      1.0  0.7383300000000002  0.83862  0.4860300000000001  1.0000
  C   C649      1.0  0.7572100000000003  0.8478000000000002  0.45414  1.0000
  C   C650      1.0  0.73715  0.86255  0.42536  1.0000
  C   C651      1.0  0.65743  0.82569  0.58244  1.0000
  C   C652      1.0  0.6573400000000001  0.83587  0.5456200000000001  1.0000
  C   C653      1.0  0.68963  0.8329400000000002  0.5256400000000002  1.0000
  C   C654      1.0  0.7218900000000001  0.82052  0.54311  1.0000
  C   C655      1.0  0.7221600000000002  0.8098000000000002  0.57971  1.0000
  C   C656      1.0  0.68954  0.8122500000000001  0.59898  1.0000
  C   C657      1.0  0.9936200000000001  0.8760100000000001  0.78011  1.0000
  C   C658      1.0  0.97423  0.90836  0.7858500000000003  1.0000
  C   C659      1.0  0.9471500000000002  0.91807  0.76106  1.0000
  C   C660      1.0  0.94004  0.8952  0.73045  1.0000
  C   C661      1.0  0.95867  0.86235  0.72493  1.0000
  C   C662      1.0  0.9855600000000001  0.85318  0.75007  1.0000
  C   C663      1.0  0.88582  0.00131  0.77318  1.0000
  C   C664      1.0  0.91401  0.9772500000000001  0.78238  1.0000
  C   C665      1.0  0.9215000000000001  0.9479700000000001  0.7593100000000003  1.0000
  C   C666      1.0  0.90004  0.94262  0.7273600000000002  1.0000
  C   C667      1.0  0.87251  0.9671  0.71732  1.0000
  C   C668      1.0  0.86571  0.99639  0.74058  1.0000
  C   C669      1.0  0.89536  0.8944500000000001  0.67879  1.0000
  C   C670      1.0  0.85831  0.8852900000000001  0.67975  1.0000
  C   C671      1.0  0.8419000000000001  0.87026  0.64895  1.0000
  C   C672      1.0  0.86207  0.86392  0.61692  1.0000
  C   C673      1.0  0.8993700000000001  0.8723200000000002  0.61661  1.0000
  C   C674      1.0  0.916  0.88762  0.64737  1.0000
  C   C675      1.0  0.7865100000000002  0.8315000000000002  0.53479  1.0000
  C   C676      1.0  0.7981900000000002  0.86784  0.53676  1.0000
  C   C677      1.0  0.82556  0.8774200000000001  0.56136  1.0000
  C   C678      1.0  0.8412400000000002  0.8511200000000002  0.58445  1.0000
  C   C679      1.0  0.832  0.8143500000000001  0.5795  1.0000
  C   C680      1.0  0.8048900000000002  0.80444  0.55448  1.0000
  C   C681      1.0  0.17963  0.61229  0.602  1.0000
  C   C682      1.0  0.3753  0.46961  0.2006  1.0000
  C   C683      1.0  0.12479000000000001  0.6677900000000002  0.39442  1.0000
  C   C684      1.0  0.52285  0.63434  0.19405000000000003  1.0000
  C   C685      1.0  0.19924000000000006  0.63099  0.57164  1.0000
  C   C686      1.0  0.18054000000000006  0.64044  0.53968  1.0000
  C   C687      1.0  0.19995  0.6560400000000002  0.5109  1.0000
  C   C688      1.0  0.23833  0.6613800000000001  0.51397  1.0000
  C   C689      1.0  0.25721  0.6522  0.54586  1.0000
  C   C690      1.0  0.23715  0.63745  0.57464  1.0000
  C   C691      1.0  0.15743000000000001  0.67431  0.41756000000000004  1.0000
  C   C692      1.0  0.15734  0.66413  0.45438  1.0000
  C   C693      1.0  0.18963000000000005  0.66705  0.47436  1.0000
  C   C694      1.0  0.22189  0.6794800000000001  0.45689  1.0000
  C   C695      1.0  0.22216  0.6902  0.42029  1.0000
  C   C696      1.0  0.18954000000000004  0.68775  0.40102  1.0000
  C   C697      1.0  0.49362  0.62399  0.21989  1.0000
  C   C698      1.0  0.47423  0.59164  0.21415000000000006  1.0000
  C   C699      1.0  0.44715000000000005  0.58193  0.23894000000000004  1.0000
  C   C700      1.0  0.44004000000000004  0.6048  0.26955  1.0000
  C   C701      1.0  0.45867  0.6376500000000002  0.27507  1.0000
  C   C702      1.0  0.48556000000000005  0.64682  0.24993000000000004  1.0000
  C   C703      1.0  0.3858200000000001  0.49869  0.22682000000000002  1.0000
  C   C704      1.0  0.4140200000000001  0.5227500000000003  0.21762  1.0000
  C   C705      1.0  0.4215  0.55203  0.24069  1.0000
  C   C706      1.0  0.40004  0.5573800000000001  0.2726300000000001  1.0000
  C   C707      1.0  0.37251  0.5329  0.28268  1.0000
  C   C708      1.0  0.36571  0.50361  0.25942  1.0000
  C   C709      1.0  0.39536  0.6055500000000001  0.32121  1.0000
  C   C710      1.0  0.3583100000000001  0.6147100000000002  0.32025  1.0000
  C   C711      1.0  0.3419000000000001  0.62974  0.35105  1.0000
  C   C712      1.0  0.36207  0.63607  0.3830800000000001  1.0000
  C   C713      1.0  0.39937  0.62768  0.38339  1.0000
  C   C714      1.0  0.416  0.61238  0.35262  1.0000
  C   C715      1.0  0.28651  0.6685  0.46521000000000007  1.0000
  C   C716      1.0  0.29819  0.6321600000000002  0.46324  1.0000
  C   C717      1.0  0.32556  0.6225800000000001  0.43864000000000003  1.0000
  C   C718      1.0  0.34124  0.64888  0.41555  1.0000
  C   C719      1.0  0.332  0.68565  0.4205  1.0000
  C   C720      1.0  0.30489  0.6955600000000002  0.4455200000000001  1.0000
  C   C721      1.0  0.82037  0.11229  0.898  1.0000
  C   C722      1.0  0.6247  0.96961  0.2994  1.0000
  C   C723      1.0  0.87521  0.16779  0.10558000000000001  1.0000
  C   C724      1.0  0.4771500000000001  0.13434  0.30595000000000006  1.0000
  C   C725      1.0  0.80076  0.13099  0.9283600000000001  1.0000
  C   C726      1.0  0.8194600000000002  0.14044  0.96032  1.0000
  C   C727      1.0  0.8000500000000003  0.15604000000000004  0.9891000000000001  1.0000
  C   C728      1.0  0.76167  0.16138  0.9860300000000001  1.0000
  C   C729      1.0  0.74279  0.15220000000000003  0.95414  1.0000
  C   C730      1.0  0.7628500000000001  0.13745  0.92536  1.0000
  C   C731      1.0  0.84257  0.17431  0.08244  1.0000
  C   C732      1.0  0.84266  0.16413  0.04562  1.0000
  C   C733      1.0  0.8103700000000003  0.16705  0.025640000000000003  1.0000
  C   C734      1.0  0.77811  0.17948000000000003  0.04311  1.0000
  C   C735      1.0  0.77784  0.1902  0.07971  1.0000
  C   C736      1.0  0.8104600000000001  0.18775  0.09898000000000003  1.0000
  C   C737      1.0  0.5063800000000002  0.12399  0.28011  1.0000
  C   C738      1.0  0.52577  0.09164  0.28585  1.0000
  C   C739      1.0  0.55285  0.08193  0.26106  1.0000
  C   C740      1.0  0.55996  0.1048  0.23045000000000002  1.0000
  C   C741      1.0  0.54133  0.13765000000000002  0.22493  1.0000
  C   C742      1.0  0.51444  0.14682  0.25007  1.0000
  C   C743      1.0  0.61418  0.9986900000000001  0.27318  1.0000
  C   C744      1.0  0.58598  0.02275  0.28238  1.0000
  C   C745      1.0  0.5785  0.05203  0.25931  1.0000
  C   C746      1.0  0.59996  0.05738  0.22736  1.0000
  C   C747      1.0  0.62749  0.0329  0.21732000000000007  1.0000
  C   C748      1.0  0.63429  0.0036100000000000004  0.24058  1.0000
  C   C749      1.0  0.60464  0.10555000000000003  0.17879  1.0000
  C   C750      1.0  0.6416900000000001  0.11471  0.17975000000000005  1.0000
  C   C751      1.0  0.6581  0.12974  0.14895  1.0000
  C   C752      1.0  0.6379300000000002  0.13607  0.11692000000000001  1.0000
  C   C753      1.0  0.60063  0.12768000000000002  0.11661  1.0000
  C   C754      1.0  0.5840000000000001  0.11238000000000001  0.14738  1.0000
  C   C755      1.0  0.71349  0.16850000000000004  0.03479  1.0000
  C   C756      1.0  0.70181  0.13216  0.03676  1.0000
  C   C757      1.0  0.67444  0.12258000000000001  0.061360000000000005  1.0000
  C   C758      1.0  0.65876  0.14888000000000007  0.08445  1.0000
  C   C759      1.0  0.6680000000000003  0.18565  0.0795  1.0000
  C   C760      1.0  0.69511  0.19556000000000007  0.05448000000000001  1.0000
  C   C761      1.0  0.32037  0.38771  0.10200000000000002  1.0000
  C   C762      1.0  0.1247  0.53038  0.7006000000000002  1.0000
  C   C763      1.0  0.37521  0.33221  0.89442  1.0000
  C   C764      1.0  0.97715  0.36566  0.6940500000000001  1.0000
  C   C765      1.0  0.30076  0.36901  0.07164  1.0000
  C   C766      1.0  0.31946  0.35956  0.03968  1.0000
  C   C767      1.0  0.30005  0.34396000000000004  0.0109  1.0000
  C   C768      1.0  0.26167000000000007  0.3386200000000001  0.013970000000000002  1.0000
  C   C769      1.0  0.24279  0.3478  0.04586  1.0000
  C   C770      1.0  0.26285  0.36255  0.07464000000000001  1.0000
  C   C771      1.0  0.34257  0.32569  0.91756  1.0000
  C   C772      1.0  0.3426600000000001  0.33587  0.9543800000000001  1.0000
  C   C773      1.0  0.31037  0.33294  0.9743600000000001  1.0000
  C   C774      1.0  0.2781100000000001  0.3205200000000001  0.9568900000000001  1.0000
  C   C775      1.0  0.27784  0.3098  0.9202900000000002  1.0000
  C   C776      1.0  0.31046000000000007  0.31225  0.90102  1.0000
  C   C777      1.0  0.006380000000000002  0.3760100000000001  0.71989  1.0000
  C   C778      1.0  0.025770000000000008  0.4083600000000001  0.71415  1.0000
  C   C779      1.0  0.05285  0.41807  0.73894  1.0000
  C   C780      1.0  0.05996  0.39520000000000005  0.7695500000000002  1.0000
  C   C781      1.0  0.04133  0.36235000000000006  0.77507  1.0000
  C   C782      1.0  0.014440000000000001  0.35318  0.7499300000000002  1.0000
  C   C783      1.0  0.11418000000000002  0.50131  0.72682  1.0000
  C   C784      1.0  0.08598000000000003  0.47725  0.7176200000000003  1.0000
  C   C785      1.0  0.0785  0.44797000000000003  0.74069  1.0000
  C   C786      1.0  0.09996  0.44262  0.77263  1.0000
  C   C787      1.0  0.12749  0.4671  0.7826800000000002  1.0000
  C   C788      1.0  0.13429  0.4963900000000001  0.75942  1.0000
  C   C789      1.0  0.10464  0.39445  0.82121  1.0000
  C   C790      1.0  0.14169  0.38529  0.8202500000000003  1.0000
  C   C791      1.0  0.1581  0.37026  0.8510500000000002  1.0000
  C   C792      1.0  0.13793  0.36392  0.8830800000000001  1.0000
  C   C793      1.0  0.10063000000000002  0.37232  0.8833900000000001  1.0000
  C   C794      1.0  0.084  0.38762000000000013  0.85262  1.0000
  C   C795      1.0  0.21349  0.3315  0.9652100000000001  1.0000
  C   C796      1.0  0.20181  0.36784  0.9632400000000001  1.0000
  C   C797      1.0  0.17444  0.3774200000000001  0.93864  1.0000
  C   C798      1.0  0.15876000000000007  0.35112  0.91555  1.0000
  C   C799      1.0  0.168  0.3143500000000001  0.9205  1.0000
  C   C800      1.0  0.19511000000000006  0.30444000000000004  0.9455200000000001  1.0000
  C   C801      1.0  0.398  0.6796300000000001  0.88771  1.0000
  C   C802      1.0  0.7994  0.8753  0.030380000000000004  1.0000
  C   C803      1.0  0.60558  0.62479  0.83221  1.0000
  C   C804      1.0  0.80595  0.022850000000000002  0.86566  1.0000
  C   C805      1.0  0.42836  0.6992400000000001  0.8690100000000002  1.0000
  C   C806      1.0  0.46032  0.68054  0.8595600000000002  1.0000
  C   C807      1.0  0.48910000000000003  0.69995  0.84396  1.0000
  C   C808      1.0  0.4860300000000001  0.7383300000000002  0.83862  1.0000
  C   C809      1.0  0.45414  0.7572100000000003  0.8478000000000002  1.0000
  C   C810      1.0  0.42536  0.73715  0.86255  1.0000
  C   C811      1.0  0.58244  0.65743  0.82569  1.0000
  C   C812      1.0  0.5456200000000001  0.6573400000000001  0.83587  1.0000
  C   C813      1.0  0.5256400000000002  0.68963  0.8329400000000002  1.0000
  C   C814      1.0  0.54311  0.7218900000000001  0.82052  1.0000
  C   C815      1.0  0.57971  0.7221600000000002  0.8098000000000002  1.0000
  C   C816      1.0  0.59898  0.68954  0.8122500000000001  1.0000
  C   C817      1.0  0.78011  0.9936200000000001  0.8760100000000001  1.0000
  C   C818      1.0  0.7858500000000003  0.97423  0.90836  1.0000
  C   C819      1.0  0.76106  0.9471500000000002  0.91807  1.0000
  C   C820      1.0  0.73045  0.94004  0.8952  1.0000
  C   C821      1.0  0.72493  0.95867  0.86235  1.0000
  C   C822      1.0  0.75007  0.9855600000000001  0.85318  1.0000
  C   C823      1.0  0.77318  0.88582  0.00131  1.0000
  C   C824      1.0  0.78238  0.91401  0.9772500000000001  1.0000
  C   C825      1.0  0.7593100000000003  0.9215000000000001  0.9479700000000001  1.0000
  C   C826      1.0  0.7273600000000002  0.90004  0.94262  1.0000
  C   C827      1.0  0.71732  0.87251  0.9671  1.0000
  C   C828      1.0  0.74058  0.8657000000000001  0.99639  1.0000
  C   C829      1.0  0.67879  0.89536  0.8944500000000001  1.0000
  C   C830      1.0  0.67975  0.85831  0.8852900000000001  1.0000
  C   C831      1.0  0.64895  0.8419000000000001  0.87026  1.0000
  C   C832      1.0  0.61692  0.86207  0.86392  1.0000
  C   C833      1.0  0.61661  0.8993700000000001  0.8723200000000002  1.0000
  C   C834      1.0  0.6473800000000002  0.916  0.88762  1.0000
  C   C835      1.0  0.53479  0.7865100000000002  0.8315000000000002  1.0000
  C   C836      1.0  0.53676  0.7981900000000002  0.86784  1.0000
  C   C837      1.0  0.56136  0.82556  0.8774200000000001  1.0000
  C   C838      1.0  0.58445  0.8412400000000002  0.8511200000000002  1.0000
  C   C839      1.0  0.5795  0.832  0.8143500000000001  1.0000
  C   C840      1.0  0.55448  0.8048900000000002  0.80444  1.0000
  C   C841      1.0  0.602  0.17963  0.61229  1.0000
  C   C842      1.0  0.2006  0.3753  0.46961  1.0000
  C   C843      1.0  0.39442  0.12479000000000001  0.6677900000000002  1.0000
  C   C844      1.0  0.19405000000000003  0.52285  0.63434  1.0000
  C   C845      1.0  0.57164  0.19924000000000006  0.63099  1.0000
  C   C846      1.0  0.53968  0.18054000000000006  0.64044  1.0000
  C   C847      1.0  0.5109  0.19995  0.6560400000000002  1.0000
  C   C848      1.0  0.51397  0.23833  0.6613800000000001  1.0000
  C   C849      1.0  0.54586  0.25721  0.6522  1.0000
  C   C850      1.0  0.57464  0.23715  0.63745  1.0000
  C   C851      1.0  0.41756000000000004  0.15743000000000001  0.67431  1.0000
  C   C852      1.0  0.45438  0.15734  0.66413  1.0000
  C   C853      1.0  0.47436  0.18963000000000005  0.66705  1.0000
  C   C854      1.0  0.45689  0.22189  0.6794800000000001  1.0000
  C   C855      1.0  0.42029  0.22216  0.6902  1.0000
  C   C856      1.0  0.40102  0.18954000000000004  0.68775  1.0000
  C   C857      1.0  0.21989  0.49362  0.62399  1.0000
  C   C858      1.0  0.21415000000000006  0.47423  0.59164  1.0000
  C   C859      1.0  0.23894000000000004  0.44715000000000005  0.58193  1.0000
  C   C860      1.0  0.26955  0.44004000000000004  0.6048  1.0000
  C   C861      1.0  0.27507  0.45867  0.6376500000000002  1.0000
  C   C862      1.0  0.24993000000000004  0.48556000000000005  0.64682  1.0000
  C   C863      1.0  0.22682000000000002  0.3858200000000001  0.49869  1.0000
  C   C864      1.0  0.21762  0.4140200000000001  0.5227500000000003  1.0000
  C   C865      1.0  0.24069  0.4215  0.55203  1.0000
  C   C866      1.0  0.27264  0.40004  0.5573800000000001  1.0000
  C   C867      1.0  0.28268  0.37251  0.5329  1.0000
  C   C868      1.0  0.25942  0.36571  0.50361  1.0000
  C   C869      1.0  0.32121  0.39536  0.6055500000000001  1.0000
  C   C870      1.0  0.32025  0.3583100000000001  0.6147100000000002  1.0000
  C   C871      1.0  0.35105  0.3419000000000001  0.62974  1.0000
  C   C872      1.0  0.3830800000000001  0.36207  0.63607  1.0000
  C   C873      1.0  0.38339  0.39937  0.62768  1.0000
  C   C874      1.0  0.35262  0.416  0.61238  1.0000
  C   C875      1.0  0.46521000000000007  0.28651  0.6685  1.0000
  C   C876      1.0  0.46324  0.29819  0.6321600000000002  1.0000
  C   C877      1.0  0.43864000000000003  0.32556  0.6225800000000001  1.0000
  C   C878      1.0  0.41555  0.34124  0.64888  1.0000
  C   C879      1.0  0.4205  0.332  0.68565  1.0000
  C   C880      1.0  0.4455200000000001  0.30489  0.6955600000000002  1.0000
  C   C881      1.0  0.898  0.82037  0.11229  1.0000
  C   C882      1.0  0.2994  0.6247  0.96961  1.0000
  C   C883      1.0  0.10558000000000001  0.87521  0.16779  1.0000
  C   C884      1.0  0.30595000000000006  0.4771500000000001  0.13434  1.0000
  C   C885      1.0  0.9283600000000001  0.80076  0.13099  1.0000
  C   C886      1.0  0.96032  0.8194600000000002  0.14044  1.0000
  C   C887      1.0  0.9891000000000001  0.8000500000000003  0.15604000000000004  1.0000
  C   C888      1.0  0.9860300000000001  0.76167  0.16138  1.0000
  C   C889      1.0  0.95414  0.74279  0.15220000000000003  1.0000
  C   C890      1.0  0.92536  0.7628500000000001  0.13745  1.0000
  C   C891      1.0  0.08244  0.84257  0.17431  1.0000
  C   C892      1.0  0.04562  0.84266  0.16413  1.0000
  C   C893      1.0  0.025640000000000003  0.8103700000000003  0.16705  1.0000
  C   C894      1.0  0.04311  0.77811  0.17948000000000003  1.0000
  C   C895      1.0  0.07971  0.77784  0.1902  1.0000
  C   C896      1.0  0.09898000000000003  0.8104600000000001  0.18775  1.0000
  C   C897      1.0  0.28011  0.5063800000000002  0.12399  1.0000
  C   C898      1.0  0.28585  0.52577  0.09164  1.0000
  C   C899      1.0  0.26106  0.55285  0.08193  1.0000
  C   C900      1.0  0.23045000000000002  0.55996  0.1048  1.0000
  C   C901      1.0  0.22493  0.54133  0.13765000000000002  1.0000
  C   C902      1.0  0.25007  0.51444  0.14682  1.0000
  C   C903      1.0  0.27318  0.61418  0.9986900000000001  1.0000
  C   C904      1.0  0.28238  0.58598  0.02275  1.0000
  C   C905      1.0  0.25931  0.5785  0.05203  1.0000
  C   C906      1.0  0.22736  0.59996  0.05738  1.0000
  C   C907      1.0  0.21732000000000007  0.62749  0.0329  1.0000
  C   C908      1.0  0.24058  0.63429  0.0036100000000000004  1.0000
  C   C909      1.0  0.17879  0.60464  0.10555000000000003  1.0000
  C   C910      1.0  0.17975000000000005  0.6416900000000001  0.11471  1.0000
  C   C911      1.0  0.14895  0.6581  0.12974  1.0000
  C   C912      1.0  0.11692000000000001  0.6379300000000002  0.13607  1.0000
  C   C913      1.0  0.11661  0.60063  0.12768000000000002  1.0000
  C   C914      1.0  0.14738  0.5840000000000001  0.11238000000000001  1.0000
  C   C915      1.0  0.03479  0.71349  0.16850000000000004  1.0000
  C   C916      1.0  0.03676  0.70181  0.13216  1.0000
  C   C917      1.0  0.061360000000000005  0.67444  0.12258000000000001  1.0000
  C   C918      1.0  0.08445  0.65876  0.14888000000000007  1.0000
  C   C919      1.0  0.0795  0.6680000000000003  0.18565  1.0000
  C   C920      1.0  0.05448000000000001  0.69511  0.19556000000000007  1.0000
  C   C921      1.0  0.10200000000000002  0.32037  0.38771  1.0000
  C   C922      1.0  0.7006000000000002  0.1247  0.53038  1.0000
  C   C923      1.0  0.89442  0.37521  0.33221  1.0000
  C   C924      1.0  0.6940500000000001  0.97715  0.36566  1.0000
  C   C925      1.0  0.07164  0.30076  0.36901  1.0000
  C   C926      1.0  0.03968  0.31946  0.35956  1.0000
  C   C927      1.0  0.0109  0.30005  0.34396000000000004  1.0000
  C   C928      1.0  0.013970000000000002  0.26167000000000007  0.3386200000000001  1.0000
  C   C929      1.0  0.04586  0.24279  0.3478  1.0000
  C   C930      1.0  0.07464000000000001  0.26285  0.36255  1.0000
  C   C931      1.0  0.91756  0.34257  0.32569  1.0000
  C   C932      1.0  0.9543800000000001  0.3426600000000001  0.33587  1.0000
  C   C933      1.0  0.9743600000000001  0.31037  0.33294  1.0000
  C   C934      1.0  0.9568900000000001  0.2781100000000001  0.3205200000000001  1.0000
  C   C935      1.0  0.9202900000000002  0.27784  0.3098  1.0000
  C   C936      1.0  0.90102  0.31046000000000007  0.31225  1.0000
  C   C937      1.0  0.71989  0.006380000000000002  0.3760100000000001  1.0000
  C   C938      1.0  0.71415  0.025770000000000008  0.4083600000000001  1.0000
  C   C939      1.0  0.73894  0.05285  0.41807  1.0000
  C   C940      1.0  0.7695500000000002  0.05996  0.39520000000000005  1.0000
  C   C941      1.0  0.77507  0.04133  0.36235000000000006  1.0000
  C   C942      1.0  0.7499300000000002  0.014440000000000001  0.35318  1.0000
  C   C943      1.0  0.72682  0.11418000000000002  0.50131  1.0000
  C   C944      1.0  0.7176200000000003  0.08598000000000003  0.47725  1.0000
  C   C945      1.0  0.74069  0.0785  0.44797000000000003  1.0000
  C   C946      1.0  0.77263  0.09996  0.44262  1.0000
  C   C947      1.0  0.7826800000000002  0.12749  0.4671  1.0000
  C   C948      1.0  0.75942  0.13429  0.4963900000000001  1.0000
  C   C949      1.0  0.82121  0.10464  0.39445  1.0000
  C   C950      1.0  0.8202500000000003  0.14169  0.38529  1.0000
  C   C951      1.0  0.8510500000000002  0.1581  0.37026  1.0000
  C   C952      1.0  0.8830800000000001  0.13793  0.36392  1.0000
  C   C953      1.0  0.8833900000000001  0.10063000000000002  0.37232  1.0000
  C   C954      1.0  0.85262  0.084  0.38762000000000013  1.0000
  C   C955      1.0  0.9652100000000001  0.21349  0.3315  1.0000
  C   C956      1.0  0.9632400000000001  0.20181  0.36784  1.0000
  C   C957      1.0  0.93864  0.17444  0.3774200000000001  1.0000
  C   C958      1.0  0.91555  0.15876000000000007  0.35112  1.0000
  C   C959      1.0  0.9205  0.168  0.3143500000000001  1.0000
  C   C960      1.0  0.9455200000000001  0.19511000000000006  0.30444000000000004  1.0000
  N   N1        1.0  0.17641  0.48127  0.24835000000000002  1.0000
  N   N2        1.0  0.08934  0.28999  0.0882  1.0000
  N   N3        1.0  0.32359  0.51873  0.7483500000000002  1.0000
  N   N4        1.0  0.41066  0.71001  0.5882  1.0000
  N   N5        1.0  0.82359  0.98127  0.25165  1.0000
  N   N6        1.0  0.9106600000000001  0.78999  0.4118  1.0000
  N   N7        1.0  0.67641  0.01873  0.75165  1.0000
  N   N8        1.0  0.58934  0.21001  0.9118  1.0000
  N   N9        1.0  0.24835000000000002  0.17641  0.48127  1.0000
  N   N10       1.0  0.0882  0.08934  0.28999  1.0000
  N   N11       1.0  0.7483500000000002  0.32359  0.51873  1.0000
  N   N12       1.0  0.5882  0.41066  0.71001  1.0000
  N   N13       1.0  0.25165  0.82359  0.98127  1.0000
  N   N14       1.0  0.4118  0.9106600000000001  0.78999  1.0000
  N   N15       1.0  0.75165  0.67641  0.01873  1.0000
  N   N16       1.0  0.9118  0.58934  0.21001  1.0000
  N   N17       1.0  0.48127  0.24835000000000002  0.17641  1.0000
  N   N18       1.0  0.28999  0.0882  0.08934  1.0000
  N   N19       1.0  0.51873  0.7483500000000002  0.32359  1.0000
  N   N20       1.0  0.71001  0.5882  0.41066  1.0000
  N   N21       1.0  0.98127  0.25165  0.82359  1.0000
  N   N22       1.0  0.78999  0.4118  0.9106600000000001  1.0000
  N   N23       1.0  0.01873  0.75165  0.67641  1.0000
  N   N24       1.0  0.21001  0.9118  0.58934  1.0000
  N   N25       1.0  0.82359  0.51873  0.75165  1.0000
  N   N26       1.0  0.9106600000000001  0.71001  0.9118  1.0000
  N   N27       1.0  0.67641  0.48127  0.25165  1.0000
  N   N28       1.0  0.58934  0.28999  0.4118  1.0000
  N   N29       1.0  0.17641  0.01873  0.7483500000000002  1.0000
  N   N30       1.0  0.08934  0.21001  0.5882  1.0000
  N   N31       1.0  0.32359  0.98127  0.24835000000000002  1.0000
  N   N32       1.0  0.41066  0.78999  0.0882  1.0000
  N   N33       1.0  0.75165  0.82359  0.51873  1.0000
  N   N34       1.0  0.9118  0.9106600000000001  0.71001  1.0000
  N   N35       1.0  0.25165  0.67641  0.48127  1.0000
  N   N36       1.0  0.4118  0.58934  0.28999  1.0000
  N   N37       1.0  0.7483500000000002  0.17641  0.01873  1.0000
  N   N38       1.0  0.5882  0.08934  0.21001  1.0000
  N   N39       1.0  0.24835000000000002  0.32359  0.98127  1.0000
  N   N40       1.0  0.0882  0.41066  0.78999  1.0000
  N   N41       1.0  0.51873  0.75165  0.82359  1.0000
  N   N42       1.0  0.71001  0.9118  0.9106600000000001  1.0000
  N   N43       1.0  0.48127  0.25165  0.67641  1.0000
  N   N44       1.0  0.28999  0.4118  0.58934  1.0000
  N   N45       1.0  0.01873  0.7483500000000002  0.17641  1.0000
  N   N46       1.0  0.21001  0.5882  0.08934  1.0000
  N   N47       1.0  0.98127  0.24835000000000002  0.32359  1.0000
  N   N48       1.0  0.78999  0.0882  0.41066  1.0000
  O   O1        1.0  0.11267000000000002  0.63352  0.30526  1.0000
  O   O2        1.0  0.09663  0.59436  0.35073  1.0000
  O   O3        1.0  0.94634  0.2112  0.14856  1.0000
  O   O4        1.0  0.9705200000000002  0.16887  0.10972  1.0000
  O   O5        1.0  0.18306  0.36292000000000013  0.37563  1.0000
  O   O6        1.0  0.14649  0.40718  0.3999600000000001  1.0000
  O   O7        1.0  0.1616  0.20328000000000004  0.95714  1.0000
  O   O8        1.0  0.11537000000000001  0.16476  0.97381  1.0000
  O   O9        1.0  0.38733  0.36648  0.8052600000000001  1.0000
  O   O10       1.0  0.40337  0.40564  0.85073  1.0000
  O   O11       1.0  0.55366  0.7888  0.64856  1.0000
  O   O12       1.0  0.52948  0.83113  0.60972  1.0000
  O   O13       1.0  0.31694  0.6370800000000001  0.8756300000000001  1.0000
  O   O14       1.0  0.3535100000000001  0.59282  0.8999600000000001  1.0000
  O   O15       1.0  0.3384  0.79672  0.45714000000000005  1.0000
  O   O16       1.0  0.38463000000000014  0.83524  0.47381  1.0000
  O   O17       1.0  0.88733  0.13352000000000003  0.19474  1.0000
  O   O18       1.0  0.9033700000000001  0.09436  0.14927  1.0000
  O   O19       1.0  0.053660000000000006  0.7112000000000003  0.35144  1.0000
  O   O20       1.0  0.02948  0.6688700000000002  0.39028  1.0000
  O   O21       1.0  0.8169400000000001  0.86292  0.12437000000000001  1.0000
  O   O22       1.0  0.8535100000000001  0.90718  0.10004  1.0000
  O   O23       1.0  0.8384  0.7032800000000001  0.54286  1.0000
  O   O24       1.0  0.8846300000000001  0.6647600000000002  0.52619  1.0000
  O   O25       1.0  0.61267  0.8664800000000003  0.69474  1.0000
  O   O26       1.0  0.59663  0.9056400000000001  0.64927  1.0000
  O   O27       1.0  0.44634  0.2888  0.85143  1.0000
  O   O28       1.0  0.47052000000000005  0.33113  0.89028  1.0000
  O   O29       1.0  0.68306  0.13708  0.62437  1.0000
  O   O30       1.0  0.64649  0.09282  0.60004  1.0000
  O   O31       1.0  0.6616000000000001  0.29672000000000004  0.04286  1.0000
  O   O32       1.0  0.6153700000000001  0.33524  0.02619  1.0000
  O   O33       1.0  0.30526  0.11267000000000002  0.63352  1.0000
  O   O34       1.0  0.35073  0.09663  0.59436  1.0000
  O   O35       1.0  0.14856  0.94634  0.2112  1.0000
  O   O36       1.0  0.10972  0.9705200000000002  0.16887  1.0000
  O   O37       1.0  0.37563  0.18306  0.36292000000000013  1.0000
  O   O38       1.0  0.3999600000000001  0.14649  0.40718  1.0000
  O   O39       1.0  0.95714  0.1616  0.20328000000000004  1.0000
  O   O40       1.0  0.97381  0.11537000000000001  0.16476  1.0000
  O   O41       1.0  0.8052600000000001  0.38733  0.36648  1.0000
  O   O42       1.0  0.85073  0.40337  0.40564  1.0000
  O   O43       1.0  0.64856  0.55366  0.7888  1.0000
  O   O44       1.0  0.60972  0.52948  0.83113  1.0000
  O   O45       1.0  0.8756300000000001  0.31694  0.6370800000000001  1.0000
  O   O46       1.0  0.8999600000000001  0.3535100000000001  0.59282  1.0000
  O   O47       1.0  0.45714000000000005  0.3384  0.79672  1.0000
  O   O48       1.0  0.47381  0.38463000000000014  0.83524  1.0000
  O   O49       1.0  0.19474  0.88733  0.13352000000000003  1.0000
  O   O50       1.0  0.14927  0.9033700000000001  0.09436  1.0000
  O   O51       1.0  0.35144  0.053660000000000006  0.7112000000000003  1.0000
  O   O52       1.0  0.39028  0.02948  0.6688700000000002  1.0000
  O   O53       1.0  0.12437000000000001  0.8169400000000001  0.86292  1.0000
  O   O54       1.0  0.10004  0.8535100000000001  0.90718  1.0000
  O   O55       1.0  0.54286  0.8384  0.7032800000000001  1.0000
  O   O56       1.0  0.52619  0.8846300000000001  0.6647600000000002  1.0000
  O   O57       1.0  0.69474  0.61267  0.8664800000000003  1.0000
  O   O58       1.0  0.64927  0.59663  0.9056400000000001  1.0000
  O   O59       1.0  0.85144  0.44634  0.2888  1.0000
  O   O60       1.0  0.89028  0.47052000000000005  0.33113  1.0000
  O   O61       1.0  0.62437  0.68306  0.13708  1.0000
  O   O62       1.0  0.60004  0.64649  0.09282  1.0000
  O   O63       1.0  0.04286  0.6616000000000001  0.29672000000000004  1.0000
  O   O64       1.0  0.02619  0.6153700000000001  0.33524  1.0000
  O   O65       1.0  0.63352  0.30526  0.11267000000000002  1.0000
  O   O66       1.0  0.59436  0.35073  0.09663  1.0000
  O   O67       1.0  0.2112  0.14856  0.94634  1.0000
  O   O68       1.0  0.16887  0.10972  0.9705200000000002  1.0000
  O   O69       1.0  0.36292000000000013  0.37563  0.18306  1.0000
  O   O70       1.0  0.40718  0.3999600000000001  0.14649  1.0000
  O   O71       1.0  0.20328000000000004  0.95714  0.1616  1.0000
  O   O72       1.0  0.16476  0.97381  0.11537000000000001  1.0000
  O   O73       1.0  0.36648  0.8052600000000001  0.38733  1.0000
  O   O74       1.0  0.40564  0.85073  0.40337  1.0000
  O   O75       1.0  0.7888  0.64856  0.55366  1.0000
  O   O76       1.0  0.83113  0.60972  0.52948  1.0000
  O   O77       1.0  0.6370800000000001  0.8756300000000001  0.31694  1.0000
  O   O78       1.0  0.59282  0.8999600000000001  0.3535100000000001  1.0000
  O   O79       1.0  0.79672  0.45714000000000005  0.3384  1.0000
  O   O80       1.0  0.83524  0.47381  0.38463000000000014  1.0000
  O   O81       1.0  0.13352000000000003  0.19474  0.88733  1.0000
  O   O82       1.0  0.09436  0.14927  0.9033700000000001  1.0000
  O   O83       1.0  0.7112000000000003  0.35144  0.053660000000000006  1.0000
  O   O84       1.0  0.6688700000000002  0.39028  0.02948  1.0000
  O   O85       1.0  0.86292  0.12437000000000001  0.8169400000000001  1.0000
  O   O86       1.0  0.90718  0.10004  0.8535100000000001  1.0000
  O   O87       1.0  0.7032800000000001  0.54286  0.8384  1.0000
  O   O88       1.0  0.6647600000000002  0.52619  0.8846300000000001  1.0000
  O   O89       1.0  0.8664800000000003  0.69474  0.61267  1.0000
  O   O90       1.0  0.9056400000000001  0.64927  0.59663  1.0000
  O   O91       1.0  0.2888  0.85143  0.44634  1.0000
  O   O92       1.0  0.33113  0.89028  0.47052000000000005  1.0000
  O   O93       1.0  0.13708  0.62437  0.68306  1.0000
  O   O94       1.0  0.09282  0.60004  0.64649  1.0000
  O   O95       1.0  0.29672000000000004  0.04286  0.6616000000000001  1.0000
  O   O96       1.0  0.33524  0.02619  0.6153700000000001  1.0000
  O   O97       1.0  0.88733  0.36648  0.69474  1.0000
  O   O98       1.0  0.9033700000000001  0.40564  0.64927  1.0000
  O   O99       1.0  0.053660000000000006  0.7888  0.85143  1.0000
  O   O100      1.0  0.02948  0.83113  0.89028  1.0000
  O   O101      1.0  0.8169400000000001  0.6370800000000001  0.62437  1.0000
  O   O102      1.0  0.8535100000000001  0.59282  0.60004  1.0000
  O   O103      1.0  0.8384  0.79672  0.04286  1.0000
  O   O104      1.0  0.8846300000000001  0.83524  0.02619  1.0000
  O   O105      1.0  0.61267  0.63352  0.19474  1.0000
  O   O106      1.0  0.59663  0.59436  0.14927  1.0000
  O   O107      1.0  0.44634  0.2112  0.35144  1.0000
  O   O108      1.0  0.47052000000000005  0.16887  0.39028  1.0000
  O   O109      1.0  0.68306  0.36292000000000013  0.12437000000000001  1.0000
  O   O110      1.0  0.64649  0.40718  0.10004  1.0000
  O   O111      1.0  0.6616000000000001  0.20328000000000004  0.54286  1.0000
  O   O112      1.0  0.6153700000000001  0.16476  0.52619  1.0000
  O   O113      1.0  0.11267000000000002  0.8664800000000003  0.8052600000000001  1.0000
  O   O114      1.0  0.09663  0.9056400000000001  0.85073  1.0000
  O   O115      1.0  0.94634  0.2888  0.64856  1.0000
  O   O116      1.0  0.9705200000000002  0.33113  0.60972  1.0000
  O   O117      1.0  0.18306  0.13708  0.8756300000000001  1.0000
  O   O118      1.0  0.14649  0.09282  0.8999600000000001  1.0000
  O   O119      1.0  0.1616  0.29672000000000004  0.45714000000000005  1.0000
  O   O120      1.0  0.11537000000000001  0.33524  0.47381  1.0000
  O   O121      1.0  0.38733  0.13352000000000003  0.30526  1.0000
  O   O122      1.0  0.40337  0.09436  0.35073  1.0000
  O   O123      1.0  0.55366  0.7112000000000003  0.14856  1.0000
  O   O124      1.0  0.52948  0.6688700000000002  0.10972  1.0000
  O   O125      1.0  0.31694  0.86292  0.37563  1.0000
  O   O126      1.0  0.3535100000000001  0.90718  0.3999600000000001  1.0000
  O   O127      1.0  0.3384  0.7032800000000001  0.95714  1.0000
  O   O128      1.0  0.38463000000000014  0.6647600000000002  0.97381  1.0000
  O   O129      1.0  0.69474  0.88733  0.36648  1.0000
  O   O130      1.0  0.64927  0.9033700000000001  0.40564  1.0000
  O   O131      1.0  0.85144  0.053660000000000006  0.7888  1.0000
  O   O132      1.0  0.89028  0.02948  0.83113  1.0000
  O   O133      1.0  0.62437  0.8169400000000001  0.6370800000000001  1.0000
  O   O134      1.0  0.60004  0.8535100000000001  0.59282  1.0000
  O   O135      1.0  0.04286  0.8384  0.79672  1.0000
  O   O136      1.0  0.02619  0.8846300000000001  0.83524  1.0000
  O   O137      1.0  0.19474  0.61267  0.63352  1.0000
  O   O138      1.0  0.14927  0.59663  0.59436  1.0000
  O   O139      1.0  0.35144  0.44634  0.2112  1.0000
  O   O140      1.0  0.39028  0.47052000000000005  0.16887  1.0000
  O   O141      1.0  0.12437000000000001  0.68306  0.36292000000000013  1.0000
  O   O142      1.0  0.10004  0.64649  0.40718  1.0000
  O   O143      1.0  0.54286  0.6616000000000001  0.20328000000000004  1.0000
  O   O144      1.0  0.52619  0.6153700000000001  0.16476  1.0000
  O   O145      1.0  0.8052600000000001  0.11267000000000002  0.8664800000000003  1.0000
  O   O146      1.0  0.85073  0.09663  0.9056400000000001  1.0000
  O   O147      1.0  0.64856  0.94634  0.2888  1.0000
  O   O148      1.0  0.60972  0.9705200000000002  0.33113  1.0000
  O   O149      1.0  0.8756300000000001  0.18306  0.13708  1.0000
  O   O150      1.0  0.8999600000000001  0.14649  0.09282  1.0000
  O   O151      1.0  0.45714000000000005  0.1616  0.29672000000000004  1.0000
  O   O152      1.0  0.47381  0.11537000000000001  0.33524  1.0000
  O   O153      1.0  0.30526  0.38733  0.13352000000000003  1.0000
  O   O154      1.0  0.35073  0.40337  0.09436  1.0000
  O   O155      1.0  0.14856  0.55366  0.7112000000000003  1.0000
  O   O156      1.0  0.10972  0.52948  0.6688700000000002  1.0000
  O   O157      1.0  0.37563  0.31694  0.86292  1.0000
  O   O158      1.0  0.3999600000000001  0.3535100000000001  0.90718  1.0000
  O   O159      1.0  0.95714  0.3384  0.7032800000000001  1.0000
  O   O160      1.0  0.97381  0.38463000000000014  0.6647600000000002  1.0000
  O   O161      1.0  0.36648  0.69474  0.88733  1.0000
  O   O162      1.0  0.40564  0.64927  0.9033700000000001  1.0000
  O   O163      1.0  0.7888  0.85144  0.053660000000000006  1.0000
  O   O164      1.0  0.83113  0.89028  0.02948  1.0000
  O   O165      1.0  0.6370800000000001  0.62437  0.8169400000000001  1.0000
  O   O166      1.0  0.59282  0.60004  0.8535100000000001  1.0000
  O   O167      1.0  0.79672  0.04286  0.8384  1.0000
  O   O168      1.0  0.83524  0.02619  0.8846300000000001  1.0000
  O   O169      1.0  0.63352  0.19474  0.61267  1.0000
  O   O170      1.0  0.59436  0.14927  0.59663  1.0000
  O   O171      1.0  0.2112  0.35144  0.44634  1.0000
  O   O172      1.0  0.16887  0.39028  0.47052000000000005  1.0000
  O   O173      1.0  0.36292000000000013  0.12437000000000001  0.68306  1.0000
  O   O174      1.0  0.40718  0.10004  0.64649  1.0000
  O   O175      1.0  0.20328000000000004  0.54286  0.6616000000000001  1.0000
  O   O176      1.0  0.16476  0.52619  0.6153700000000001  1.0000
  O   O177      1.0  0.8664800000000003  0.8052600000000001  0.11267000000000002  1.0000
  O   O178      1.0  0.9056400000000001  0.85073  0.09663  1.0000
  O   O179      1.0  0.2888  0.64856  0.94634  1.0000
  O   O180      1.0  0.33113  0.60972  0.9705200000000002  1.0000
  O   O181      1.0  0.13708  0.8756300000000001  0.18306  1.0000
  O   O182      1.0  0.09282  0.8999600000000001  0.14649  1.0000
  O   O183      1.0  0.29672000000000004  0.45714000000000005  0.1616  1.0000
  O   O184      1.0  0.33524  0.47381  0.11537000000000001  1.0000
  O   O185      1.0  0.13352000000000003  0.30526  0.38733  1.0000
  O   O186      1.0  0.09436  0.35073  0.40337  1.0000
  O   O187      1.0  0.7112000000000003  0.14856  0.55366  1.0000
  O   O188      1.0  0.6688700000000002  0.10972  0.52948  1.0000
  O   O189      1.0  0.86292  0.37563  0.31694  1.0000
  O   O190      1.0  0.90718  0.3999600000000001  0.3535100000000001  1.0000
  O   O191      1.0  0.7032800000000001  0.95714  0.3384  1.0000
  O   O192      1.0  0.6647600000000002  0.97381  0.38463000000000014  1.0000
