data_image0
_chemical_formula_structural       Zn32H192C384O104
_chemical_formula_sum              "Zn32 H192 C384 O104"
_cell_length_a       24.94622
_cell_length_b       24.94576
_cell_length_c       24.945740000000004
_cell_angle_alpha    109.4551
_cell_angle_beta     109.45797
_cell_angle_gamma    109.45795

_symmetry_space_group_name_H-M    'P 1'
_symmetry_Int_Tables_number       1

loop_
  _symmetry_equiv_pos_as_xyz
  'x,y,z'

loop_
  _atom_site_type_symbol
  _atom_site_label
  _atom_site_symmetry_multiplicity
  _atom_site_fract_x
  _atom_site_fract_y
  _atom_site_fract_z
  _atom_site_occupancy
  Zn  Zn1       1.0  0.92184  0.003189999999999952  0.88709  1.0000
  Zn  Zn2       1.0  0.5784099999999998  0.46522  0.08150999999999999  1.0000
  Zn  Zn3       1.0  0.61625  0.03474999999999998  0.61315  1.0000
  Zn  Zn4       1.0  0.8837899999999997  0.4967599999999999  0.41859999999999997  1.0000
  Zn  Zn5       1.0  0.08151999999999991  0.07840999999999997  0.96522  1.0000
  Zn  Zn6       1.0  0.8870999999999998  0.42185  0.50319  1.0000
  Zn  Zn7       1.0  0.41859999999999997  0.38378999999999996  0.99676  1.0000
  Zn  Zn8       1.0  0.6131399999999999  0.11625  0.53475  1.0000
  Zn  Zn9       1.0  0.99676  0.9185899999999999  0.88379  1.0000
  Zn  Zn10      1.0  0.53474  0.11312999999999998  0.61624  1.0000
  Zn  Zn11      1.0  0.9652299999999997  0.5815199999999999  0.5784099999999999  1.0000
  Zn  Zn12      1.0  0.50319  0.3871  0.92183  1.0000
  Zn  Zn13      1.0  0.07840999999999998  0.08151999999999997  0.46522  1.0000
  Zn  Zn14      1.0  0.42183999999999994  0.88709  0.00319  1.0000
  Zn  Zn15      1.0  0.38378999999999996  0.4186  0.49675999999999987  1.0000
  Zn  Zn16      1.0  0.11624999999999995  0.61314  0.034749999999999996  1.0000
  Zn  Zn17      1.0  0.91859  0.9967499999999999  0.38379  1.0000
  Zn  Zn18      1.0  0.11313999999999995  0.53475  0.11625  1.0000
  Zn  Zn19      1.0  0.5815199999999999  0.96522  0.07839999999999997  1.0000
  Zn  Zn20      1.0  0.3870999999999999  0.50319  0.42185  1.0000
  Zn  Zn21      1.0  0.0031899999999999936  0.92183  0.38709999999999994  1.0000
  Zn  Zn22      1.0  0.4652299999999999  0.57841  0.58152  1.0000
  Zn  Zn23      1.0  0.034740000000000014  0.61624  0.11312999999999998  1.0000
  Zn  Zn24      1.0  0.49675999999999976  0.8837899999999997  0.9185899999999998  1.0000
  Zn  Zn25      1.0  0.00010000000000000007  0.00010000000000000011  0.01383  1.0000
  Zn  Zn26      1.0  0.5001  0.51383  9.999999999999999e-05  1.0000
  Zn  Zn27      1.0  0.4865  0.9865000000000003  0.4865  1.0000
  Zn  Zn28      1.0  0.013829999999999978  0.5001  0.5000999999999999  1.0000
  Zn  Zn29      1.0  9.999999999997182e-05  9.999999999998713e-05  0.51383  1.0000
  Zn  Zn30      1.0  0.50009  0.01383  9.999999999999999e-05  1.0000
  Zn  Zn31      1.0  0.5138299999999998  0.5001  0.5000999999999999  1.0000
  Zn  Zn32      1.0  0.9864999999999998  0.4865  0.9865  1.0000
  H   H1        1.0  0.7991699999999999  0.859  0.88585  1.0000
  H   H2        1.0  0.7031  0.7481699999999998  0.8151699999999998  1.0000
  H   H3        1.0  0.6027999999999999  0.80528  0.91388  1.0000
  H   H4        1.0  0.6056299999999998  0.72092  0.8315199999999999  1.0000
  H   H5        1.0  0.7100399999999999  0.04697  0.08325  1.0000
  H   H6        1.0  0.91007  0.08812  0.06311  1.0000
  H   H7        1.0  0.9063299999999997  0.17844  0.13871999999999998  1.0000
  H   H8        1.0  0.8038899999999998  0.15717  0.14481  1.0000
  H   H9        1.0  0.7009999999999998  0.58683  0.05991  1.0000
  H   H10       1.0  0.7971399999999998  0.61232  0.04515  1.0000
  H   H11       1.0  0.8973199999999999  0.8110299999999998  0.20248999999999998  1.0000
  H   H12       1.0  0.89445  0.72596  0.11522  1.0000
  H   H13       1.0  0.7899499999999998  0.8730799999999999  0.33696  1.0000
  H   H14       1.0  0.5898299999999999  0.6531700000000001  0.17827  1.0000
  H   H15       1.0  0.5936899999999999  0.7325400000000001  0.27237  1.0000
  H   H16       1.0  0.6960199999999997  0.84086  0.3533  1.0000
  H   H17       1.0  0.4730399999999999  0.91321  0.614  1.0000
  H   H18       1.0  0.43285999999999997  0.88785  0.68474  1.0000
  H   H19       1.0  0.39142999999999983  0.68902  0.5864399999999999  1.0000
  H   H20       1.0  0.38929999999999987  0.7742  0.66858  1.0000
  H   H21       1.0  0.4638299999999999  0.62687  0.41699  1.0000
  H   H22       1.0  0.5251  0.8468699999999999  0.4366399999999999  1.0000
  H   H23       1.0  0.5396699999999999  0.7674099999999999  0.36106  1.0000
  H   H24       1.0  0.5123099999999998  0.6589999999999999  0.35512999999999995  1.0000
  H   H25       1.0  0.026819999999999903  0.64092  0.44014999999999993  1.0000
  H   H26       1.0  0.06696999999999995  0.7518  0.45492  1.0000
  H   H27       1.0  0.1085499999999999  0.69482  0.29752999999999996  1.0000
  H   H28       1.0  0.11060999999999997  0.77914  0.38474999999999987  1.0000
  H   H29       1.0  0.03621000000000003  0.45318  0.1631  1.0000
  H   H30       1.0  0.9749199999999995  0.41158  0.32184  1.0000
  H   H31       1.0  0.9601899999999999  0.32139  0.22771999999999995  1.0000
  H   H32       1.0  0.98757  0.34288  0.14664  1.0000
  H   H33       1.0  0.05991999999999999  0.201  0.08683  1.0000
  H   H34       1.0  0.04516  0.29714  0.11231  1.0000
  H   H35       1.0  0.20247999999999994  0.39732  0.31104  1.0000
  H   H36       1.0  0.11520999999999994  0.39444999999999997  0.22596  1.0000
  H   H37       1.0  0.33696  0.28995  0.37308  1.0000
  H   H38       1.0  0.17826999999999996  0.08983000000000001  0.15318  1.0000
  H   H39       1.0  0.27237  0.09369  0.23254  1.0000
  H   H40       1.0  0.35329999999999995  0.19601  0.34086  1.0000
  H   H41       1.0  0.8858399999999997  0.29916  0.3590099999999999  1.0000
  H   H42       1.0  0.8151599999999999  0.20309  0.24818  1.0000
  H   H43       1.0  0.9138899999999999  0.10279999999999999  0.30528  1.0000
  H   H44       1.0  0.83152  0.10562999999999999  0.22091999999999998  1.0000
  H   H45       1.0  0.08324999999999992  0.21004999999999985  0.5469799999999999  1.0000
  H   H46       1.0  0.06311999999999994  0.4100799999999999  0.5881199999999999  1.0000
  H   H47       1.0  0.13872  0.40634  0.67844  1.0000
  H   H48       1.0  0.1448199999999999  0.3038999999999999  0.6571799999999998  1.0000
  H   H49       1.0  0.4401299999999999  0.52681  0.14089999999999997  1.0000
  H   H50       1.0  0.45490999999999987  0.5669599999999999  0.25179  1.0000
  H   H51       1.0  0.29753  0.60856  0.19482  1.0000
  H   H52       1.0  0.38474999999999987  0.61062  0.27914  1.0000
  H   H53       1.0  0.1630999999999999  0.53621  0.9531899999999999  1.0000
  H   H54       1.0  0.32185  0.47493  0.9115899999999999  1.0000
  H   H55       1.0  0.2277299999999999  0.46019  0.8213899999999998  1.0000
  H   H56       1.0  0.14663999999999994  0.48756999999999995  0.84288  1.0000
  H   H57       1.0  0.61401  0.97304  0.4132  1.0000
  H   H58       1.0  0.6847499999999997  0.9328599999999998  0.38784999999999986  1.0000
  H   H59       1.0  0.5864299999999998  0.89142  0.18900999999999996  1.0000
  H   H60       1.0  0.6685799999999998  0.8892899999999999  0.27419999999999994  1.0000
  H   H61       1.0  0.41698999999999997  0.96384  0.12688  1.0000
  H   H62       1.0  0.4366399999999999  0.025090000000000043  0.34687  1.0000
  H   H63       1.0  0.36106  0.03968  0.26742  1.0000
  H   H64       1.0  0.35513  0.012309999999999998  0.159  1.0000
  H   H65       1.0  0.14091  0.94013  0.02681  1.0000
  H   H66       1.0  0.2518  0.95491  0.06695999999999999  1.0000
  H   H67       1.0  0.19482999999999998  0.7975299999999999  0.10854999999999998  1.0000
  H   H68       1.0  0.27914  0.88474  0.11060999999999997  1.0000
  H   H69       1.0  0.9531799999999998  0.66309  0.03621  1.0000
  H   H70       1.0  0.9115899999999998  0.82185  0.9749299999999999  1.0000
  H   H71       1.0  0.8213999999999999  0.72772  0.9601899999999999  1.0000
  H   H72       1.0  0.8428799999999997  0.64664  0.98756  1.0000
  H   H73       1.0  0.4131999999999999  0.114  0.47304  1.0000
  H   H74       1.0  0.38786  0.18475000000000003  0.43286  1.0000
  H   H75       1.0  0.18901999999999994  0.08642  0.39141999999999993  1.0000
  H   H76       1.0  0.2742  0.16857  0.38929  1.0000
  H   H77       1.0  0.12688  0.9169899999999999  0.46382999999999996  1.0000
  H   H78       1.0  0.34687  0.93664  0.52509  1.0000
  H   H79       1.0  0.2674199999999999  0.86106  0.5396799999999999  1.0000
  H   H80       1.0  0.15899999999999992  0.8551299999999998  0.5123099999999999  1.0000
  H   H81       1.0  0.08683999999999997  0.55992  0.701  1.0000
  H   H82       1.0  0.11232000000000003  0.54515  0.79714  1.0000
  H   H83       1.0  0.3110399999999999  0.70248  0.8973199999999999  1.0000
  H   H84       1.0  0.22595999999999988  0.61521  0.8944499999999997  1.0000
  H   H85       1.0  0.37307999999999997  0.83696  0.78996  1.0000
  H   H86       1.0  0.15318  0.67826  0.58984  1.0000
  H   H87       1.0  0.2325399999999999  0.77237  0.5936899999999999  1.0000
  H   H88       1.0  0.34086000000000005  0.8533100000000001  0.69601  1.0000
  H   H89       1.0  0.3590099999999999  0.38585  0.79916  1.0000
  H   H90       1.0  0.24818  0.3151600000000001  0.70309  1.0000
  H   H91       1.0  0.3052799999999999  0.41388  0.60279  1.0000
  H   H92       1.0  0.22091999999999998  0.33150999999999997  0.6056199999999999  1.0000
  H   H93       1.0  0.54698  0.58326  0.7100399999999999  1.0000
  H   H94       1.0  0.58812  0.56312  0.91007  1.0000
  H   H95       1.0  0.6784399999999999  0.6387099999999999  0.90634  1.0000
  H   H96       1.0  0.6571899999999997  0.6448099999999999  0.8038999999999998  1.0000
  H   H97       1.0  0.2009999999999999  0.059909999999999936  0.5868299999999999  1.0000
  H   H98       1.0  0.29713999999999996  0.04515  0.61232  1.0000
  H   H99       1.0  0.3973299999999999  0.2024899999999999  0.8110299999999999  1.0000
  H   H100      1.0  0.39444999999999997  0.11522  0.72596  1.0000
  H   H101      1.0  0.28995999999999983  0.33695999999999987  0.8730799999999997  1.0000
  H   H102      1.0  0.08983000000000001  0.17826999999999998  0.65317  1.0000
  H   H103      1.0  0.09369999999999998  0.27236999999999995  0.73255  1.0000
  H   H104      1.0  0.19602  0.3533  0.84086  1.0000
  H   H105      1.0  0.2991699999999998  0.88585  0.8589999999999999  1.0000
  H   H106      1.0  0.20309999999999995  0.81517  0.7481699999999999  1.0000
  H   H107      1.0  0.10279999999999995  0.91388  0.80528  1.0000
  H   H108      1.0  0.10562999999999996  0.8315199999999999  0.72092  1.0000
  H   H109      1.0  0.21003999999999995  0.08325  0.04697  1.0000
  H   H110      1.0  0.41006999999999993  0.06311  0.08812  1.0000
  H   H111      1.0  0.40632999999999997  0.13872  0.17844  1.0000
  H   H112      1.0  0.30388999999999994  0.14481  0.15717  1.0000
  H   H113      1.0  0.5268199999999998  0.44014999999999993  0.6409199999999999  1.0000
  H   H114      1.0  0.5669699999999999  0.45492  0.7518  1.0000
  H   H115      1.0  0.6085499999999998  0.29752999999999996  0.6948199999999999  1.0000
  H   H116      1.0  0.6106199999999999  0.3847499999999999  0.7791399999999999  1.0000
  H   H117      1.0  0.5362099999999997  0.16309999999999994  0.4531799999999999  1.0000
  H   H118      1.0  0.47491999999999984  0.32184  0.4115799999999999  1.0000
  H   H119      1.0  0.4601899999999999  0.22771999999999998  0.32139  1.0000
  H   H120      1.0  0.4875699999999999  0.14664  0.34288  1.0000
  H   H121      1.0  0.97304  0.614  0.91321  1.0000
  H   H122      1.0  0.9328599999999998  0.68475  0.8878499999999999  1.0000
  H   H123      1.0  0.89143  0.58644  0.68902  1.0000
  H   H124      1.0  0.8893  0.6685799999999998  0.7741999999999999  1.0000
  H   H125      1.0  0.9638299999999996  0.41699  0.62687  1.0000
  H   H126      1.0  0.02509999999999992  0.4366399999999999  0.8468699999999999  1.0000
  H   H127      1.0  0.03966999999999999  0.36106  0.76741  1.0000
  H   H128      1.0  0.012309999999999939  0.35512999999999995  0.6589999999999999  1.0000
  H   H129      1.0  0.9401299999999999  0.14091000000000006  0.52681  1.0000
  H   H130      1.0  0.9549099999999998  0.25179  0.56696  1.0000
  H   H131      1.0  0.79753  0.19482  0.60856  1.0000
  H   H132      1.0  0.8847499999999998  0.27914  0.61062  1.0000
  H   H133      1.0  0.6630999999999998  0.9531799999999998  0.53621  1.0000
  H   H134      1.0  0.8218500000000001  0.9115899999999999  0.47493  1.0000
  H   H135      1.0  0.72772  0.82139  0.46018999999999993  1.0000
  H   H136      1.0  0.6466399999999998  0.84287  0.48757  1.0000
  H   H137      1.0  0.1140099999999999  0.4131999999999999  0.9730499999999999  1.0000
  H   H138      1.0  0.18475999999999995  0.38785999999999987  0.9328699999999999  1.0000
  H   H139      1.0  0.08643000000000003  0.18902000000000005  0.89142  1.0000
  H   H140      1.0  0.16858  0.2742  0.8893  1.0000
  H   H141      1.0  0.9169899999999997  0.12687999999999997  0.9638399999999999  1.0000
  H   H142      1.0  0.9366299999999999  0.34687  0.025089999999999998  1.0000
  H   H143      1.0  0.8610599999999998  0.26741  0.03968  1.0000
  H   H144      1.0  0.8551299999999998  0.159  0.01231  1.0000
  H   H145      1.0  0.55992  0.08683  0.201  1.0000
  H   H146      1.0  0.54516  0.11231  0.29714  1.0000
  H   H147      1.0  0.70248  0.31104  0.39732  1.0000
  H   H148      1.0  0.61521  0.22596000000000002  0.39445  1.0000
  H   H149      1.0  0.83696  0.37307999999999997  0.28995  1.0000
  H   H150      1.0  0.6782699999999998  0.15318  0.08983  1.0000
  H   H151      1.0  0.77236  0.23254  0.09369  1.0000
  H   H152      1.0  0.8532999999999996  0.34086000000000005  0.19600999999999993  1.0000
  H   H153      1.0  0.38584  0.35900999999999994  0.2991599999999999  1.0000
  H   H154      1.0  0.31515999999999994  0.24817999999999998  0.20308999999999996  1.0000
  H   H155      1.0  0.41389  0.30527999999999994  0.10279999999999999  1.0000
  H   H156      1.0  0.33152  0.22092  0.10563  1.0000
  H   H157      1.0  0.58325  0.54698  0.21004999999999996  1.0000
  H   H158      1.0  0.5631199999999997  0.5881199999999999  0.41007999999999994  1.0000
  H   H159      1.0  0.6387199999999998  0.6784399999999999  0.40633999999999987  1.0000
  H   H160      1.0  0.64481  0.65718  0.3039  1.0000
  H   H161      1.0  0.85901  0.79916  0.38583999999999996  1.0000
  H   H162      1.0  0.7481799999999997  0.7030900000000001  0.31516  1.0000
  H   H163      1.0  0.8052799999999999  0.6027900000000002  0.41388  1.0000
  H   H164      1.0  0.7209199999999998  0.60562  0.33151  1.0000
  H   H165      1.0  0.046980000000000036  0.7100400000000001  0.58326  1.0000
  H   H166      1.0  0.08811999999999995  0.9100699999999999  0.56312  1.0000
  H   H167      1.0  0.17843999999999996  0.90634  0.63871  1.0000
  H   H168      1.0  0.15719000000000002  0.8039000000000001  0.64481  1.0000
  H   H169      1.0  0.5868399999999999  0.701  0.5599199999999999  1.0000
  H   H170      1.0  0.61232  0.7971399999999998  0.54515  1.0000
  H   H171      1.0  0.8110399999999998  0.8973199999999999  0.70248  1.0000
  H   H172      1.0  0.72596  0.89445  0.61521  1.0000
  H   H173      1.0  0.87308  0.7899599999999999  0.83696  1.0000
  H   H174      1.0  0.65318  0.58984  0.67826  1.0000
  H   H175      1.0  0.73254  0.59369  0.77237  1.0000
  H   H176      1.0  0.8408599999999999  0.6960100000000001  0.8533099999999998  1.0000
  H   H177      1.0  0.9131999999999999  0.47303999999999996  0.114  1.0000
  H   H178      1.0  0.8878499999999999  0.43286  0.18475  1.0000
  H   H179      1.0  0.6890099999999998  0.39141999999999993  0.08641999999999998  1.0000
  H   H180      1.0  0.7741999999999998  0.38929  0.16857  1.0000
  H   H181      1.0  0.6268799999999999  0.46383999999999986  0.9169899999999999  1.0000
  H   H182      1.0  0.84687  0.52509  0.93665  1.0000
  H   H183      1.0  0.76742  0.53968  0.86107  1.0000
  H   H184      1.0  0.65901  0.51232  0.85513  1.0000
  H   H185      1.0  0.64092  0.026819999999999976  0.9401399999999999  1.0000
  H   H186      1.0  0.7517999999999997  0.06695999999999994  0.9549099999999999  1.0000
  H   H187      1.0  0.6948299999999998  0.10855999999999993  0.7975299999999999  1.0000
  H   H188      1.0  0.77914  0.11061000000000006  0.88474  1.0000
  H   H189      1.0  0.45317999999999997  0.03621  0.66309  1.0000
  H   H190      1.0  0.4115899999999999  0.9749299999999999  0.8218499999999999  1.0000
  H   H191      1.0  0.3214  0.9601900000000001  0.72772  1.0000
  H   H192      1.0  0.34288  0.98756  0.64664  1.0000
  C   C1        1.0  0.7566999999999999  0.8985399999999998  0.9409599999999999  1.0000
  C   C2        1.0  0.69925  0.88411  0.94837  1.0000
  C   C3        1.0  0.7564399999999998  0.8478099999999998  0.89221  1.0000
  C   C4        1.0  0.7028699999999997  0.7856699999999999  0.8529799999999998  1.0000
  C   C5        1.0  0.6458199999999997  0.8180200000000001  0.9082199999999998  1.0000
  C   C6        1.0  0.64738  0.7706  0.8618299999999999  1.0000
  C   C7        1.0  0.8693599999999998  0.9783399999999999  0.9713999999999999  1.0000
  C   C8        1.0  0.7526899999999999  0.054529999999999995  0.07741999999999999  1.0000
  C   C9        1.0  0.8659999999999998  0.07868  0.06689  1.0000
  C   C10       1.0  0.7527499999999996  8.999999999999692e-05  0.03379999999999999  1.0000
  C   C11       1.0  0.8107  0.96277  0.9805899999999999  1.0000
  C   C12       1.0  0.86395  0.12913  0.10892  1.0000
  C   C13       1.0  0.8106399999999998  0.01364  0.027159999999999997  1.0000
  C   C14       1.0  0.8060699999999997  0.11682  0.11296  1.0000
  C   C15       1.0  0.69817  0.93528  0.9943799999999999  1.0000
  C   C16       1.0  0.6364399999999998  0.92205  0.9975  1.0000
  C   C17       1.0  0.7433699999999998  0.6843  0.14193  1.0000
  C   C18       1.0  0.8008  0.74914  0.18487999999999993  1.0000
  C   C19       1.0  0.7436699999999999  0.6359  0.09143  1.0000
  C   C20       1.0  0.79725  0.6502799999999999  0.08281999999999998  1.0000
  C   C21       1.0  0.8542399999999998  0.76243  0.17218999999999998  1.0000
  C   C22       1.0  0.85271  0.71456  0.12319  1.0000
  C   C23       1.0  0.63063  0.6021  0.10897999999999998  1.0000
  C   C24       1.0  0.74729  0.8246700000000001  0.30184999999999995  1.0000
  C   C25       1.0  0.6339499999999998  0.70096  0.21279  1.0000
  C   C26       1.0  0.74725  0.78101  0.24735  1.0000
  C   C27       1.0  0.68934  0.66989  0.15219999999999997  1.0000
  C   C28       1.0  0.63601  0.7450400000000001  0.26529  1.0000
  C   C29       1.0  0.68934  0.7165  0.20308999999999996  1.0000
  C   C30       1.0  0.6938999999999997  0.80688  0.3107899999999999  1.0000
  C   C31       1.0  0.80188  0.7962100000000001  0.23712999999999998  1.0000
  C   C32       1.0  0.8636499999999998  0.8610399999999999  0.28555  1.0000
  C   C33       1.0  0.4576499999999999  0.81572  0.5590699999999998  1.0000
  C   C34       1.0  0.4356599999999998  0.75085  0.5516399999999999  1.0000
  C   C35       1.0  0.45558  0.86418  0.60776  1.0000
  C   C36       1.0  0.4326099999999999  0.8498499999999999  0.6469799999999999  1.0000
  C   C37       1.0  0.40976999999999997  0.7376200000000002  0.5918999999999999  1.0000
  C   C38       1.0  0.4087  0.78557  0.63824  1.0000
  C   C39       1.0  0.50689  0.89797  0.52855  1.0000
  C   C40       1.0  0.4771399999999999  0.6752899999999998  0.42265999999999987  1.0000
  C   C41       1.0  0.51189  0.79908  0.43303  1.0000
  C   C42       1.0  0.4662699999999999  0.7189799999999998  0.4662  1.0000
  C   C43       1.0  0.4823199999999999  0.83015  0.51946  1.0000
  C   C44       1.0  0.5202099999999998  0.75493  0.39096  1.0000
  C   C45       1.0  0.4866399999999999  0.7835499999999999  0.47287999999999997  1.0000
  C   C46       1.0  0.50386  0.69305  0.38702999999999993  1.0000
  C   C47       1.0  0.44067999999999985  0.7037399999999999  0.50551  1.0000
  C   C48       1.0  0.42426999999999987  0.63888  0.50242  1.0000
  C   C49       1.0  0.042430000000000016  0.60142  0.35817  1.0000
  C   C50       1.0  0.06429999999999998  0.61593  0.31519  1.0000
  C   C51       1.0  0.04438999999999996  0.65215  0.40863  1.0000
  C   C52       1.0  0.06731  0.71431  0.41721  1.0000
  C   C53       1.0  0.09021000000000003  0.6820400000000001  0.32783  1.0000
  C   C54       1.0  0.09126999999999999  0.72945  0.37683  1.0000
  C   C55       1.0  0.9930599999999998  0.52165  0.39106  1.0000
  C   C56       1.0  0.02283999999999997  0.44552  0.19816999999999999  1.0000
  C   C57       1.0  0.9881599999999999  0.42116  0.28727  1.0000
  C   C58       1.0  0.03370999999999999  0.49992000000000003  0.25272  1.0000
  C   C59       1.0  0.017810000000000017  0.53716  0.34792999999999996  1.0000
  C   C60       1.0  0.97973  0.37076  0.23472999999999997  1.0000
  C   C61       1.0  0.013469999999999968  0.48626  0.297  1.0000
  C   C62       1.0  0.9960899999999999  0.38319  0.1892  1.0000
  C   C63       1.0  0.05917999999999999  0.56477  0.26298  1.0000
  C   C64       1.0  0.07555999999999997  0.57807  0.21450999999999998  1.0000
  C   C65       1.0  0.14194  0.24337  0.18431  1.0000
  C   C66       1.0  0.18487999999999993  0.30079999999999996  0.24913999999999997  1.0000
  C   C67       1.0  0.09142999999999996  0.24367999999999995  0.13589999999999997  1.0000
  C   C68       1.0  0.08282999999999999  0.29725  0.15027999999999997  1.0000
  C   C69       1.0  0.17219  0.35424  0.26244  1.0000
  C   C70       1.0  0.12318  0.35271  0.21456  1.0000
  C   C71       1.0  0.10897999999999998  0.13063  0.10210999999999999  1.0000
  C   C72       1.0  0.30184999999999995  0.24727999999999997  0.32466999999999996  1.0000
  C   C73       1.0  0.21279999999999993  0.13395  0.20095999999999997  1.0000
  C   C74       1.0  0.24736  0.24725000000000003  0.28102  1.0000
  C   C75       1.0  0.1522  0.18934  0.16989  1.0000
  C   C76       1.0  0.26529  0.13599999999999998  0.24503999999999998  1.0000
  C   C77       1.0  0.20308999999999994  0.18934  0.21650999999999998  1.0000
  C   C78       1.0  0.31078999999999996  0.19388999999999995  0.30687999999999993  1.0000
  C   C79       1.0  0.23712999999999998  0.30188999999999994  0.2962099999999999  1.0000
  C   C80       1.0  0.28555  0.36365  0.36106  1.0000
  C   C81       1.0  0.9409599999999998  0.25669  0.3985399999999999  1.0000
  C   C82       1.0  0.9483699999999999  0.19923999999999994  0.38410999999999995  1.0000
  C   C83       1.0  0.8921999999999999  0.25644  0.34781  1.0000
  C   C84       1.0  0.85298  0.20285999999999996  0.28567999999999993  1.0000
  C   C85       1.0  0.9082199999999999  0.14582  0.31801999999999997  1.0000
  C   C86       1.0  0.8618299999999999  0.14738  0.27059  1.0000
  C   C87       1.0  0.9714  0.36935999999999997  0.47834  1.0000
  C   C88       1.0  0.07743000000000001  0.25270000000000004  0.55454  1.0000
  C   C89       1.0  0.06688999999999998  0.36599999999999994  0.5786799999999999  1.0000
  C   C90       1.0  0.033800000000000004  0.25275  0.50009  1.0000
  C   C91       1.0  0.9805899999999997  0.31069  0.46276999999999996  1.0000
  C   C92       1.0  0.10892  0.36396  0.62914  1.0000
  C   C93       1.0  0.027159999999999913  0.31064999999999987  0.5136499999999999  1.0000
  C   C94       1.0  0.11296  0.30608  0.61682  1.0000
  C   C95       1.0  0.9943699999999994  0.19816  0.43528  1.0000
  C   C96       1.0  0.9974999999999998  0.13642999999999997  0.4220499999999999  1.0000
  C   C97       1.0  0.35816  0.54243  0.10141999999999998  1.0000
  C   C98       1.0  0.31518999999999997  0.56431  0.11593  1.0000
  C   C99       1.0  0.4086299999999999  0.54439  0.15214  1.0000
  C   C100      1.0  0.4171999999999999  0.5673  0.21430999999999997  1.0000
  C   C101      1.0  0.32783  0.59021  0.18204  1.0000
  C   C102      1.0  0.37683999999999995  0.59127  0.22946  1.0000
  C   C103      1.0  0.39105  0.49306  0.02164  1.0000
  C   C104      1.0  0.19817  0.52284  0.94552  1.0000
  C   C105      1.0  0.2872699999999999  0.4881599999999998  0.9211699999999998  1.0000
  C   C106      1.0  0.25271999999999994  0.5337099999999999  0.9999199999999999  1.0000
  C   C107      1.0  0.34793  0.51781  0.03715999999999999  1.0000
  C   C108      1.0  0.23472999999999997  0.47973  0.87076  1.0000
  C   C109      1.0  0.2970099999999999  0.5134799999999999  0.9862599999999998  1.0000
  C   C110      1.0  0.18921  0.49609  0.88319  1.0000
  C   C111      1.0  0.26298  0.55919  0.06477  1.0000
  C   C112      1.0  0.21450999999999995  0.57558  0.07807  1.0000
  C   C113      1.0  0.5590699999999998  0.95764  0.31571  1.0000
  C   C114      1.0  0.55165  0.93565  0.25084  1.0000
  C   C115      1.0  0.60776  0.95558  0.36416999999999994  1.0000
  C   C116      1.0  0.64698  0.93261  0.34984  1.0000
  C   C117      1.0  0.59189  0.9097600000000001  0.23760999999999996  1.0000
  C   C118      1.0  0.6382399999999999  0.9086899999999999  0.28556999999999994  1.0000
  C   C119      1.0  0.52855  0.006879999999999953  0.39796999999999993  1.0000
  C   C120      1.0  0.42265999999999987  0.97715  0.17529  1.0000
  C   C121      1.0  0.43303  0.011890000000000003  0.29909  1.0000
  C   C122      1.0  0.46621  0.96627  0.21899  1.0000
  C   C123      1.0  0.51947  0.9823200000000001  0.33015  1.0000
  C   C124      1.0  0.3909599999999999  0.02020999999999998  0.25492999999999993  1.0000
  C   C125      1.0  0.4728799999999999  0.98663  0.28355  1.0000
  C   C126      1.0  0.38702999999999993  0.003870000000000004  0.19306  1.0000
  C   C127      1.0  0.5055099999999999  0.9406799999999998  0.20374  1.0000
  C   C128      1.0  0.50242  0.92426  0.13887  1.0000
  C   C129      1.0  0.10142  0.85816  0.04242999999999999  1.0000
  C   C130      1.0  0.11593000000000003  0.81518  0.0643  1.0000
  C   C131      1.0  0.15215  0.90863  0.04439  1.0000
  C   C132      1.0  0.21431000000000003  0.9172000000000001  0.06731  1.0000
  C   C133      1.0  0.18203999999999995  0.82783  0.09021  1.0000
  C   C134      1.0  0.22945999999999994  0.87683  0.09126  1.0000
  C   C135      1.0  0.021650000000000006  0.89106  0.99307  1.0000
  C   C136      1.0  0.9455199999999995  0.69816  0.02284  1.0000
  C   C137      1.0  0.9211699999999999  0.7872699999999999  0.9881599999999999  1.0000
  C   C138      1.0  0.99992  0.75272  0.03371  1.0000
  C   C139      1.0  0.03715999999999994  0.8479299999999999  0.01781  1.0000
  C   C140      1.0  0.8707599999999998  0.73473  0.9797299999999999  1.0000
  C   C141      1.0  0.9862599999999999  0.797  0.013469999999999996  1.0000
  C   C142      1.0  0.8831899999999999  0.6891999999999999  0.99608  1.0000
  C   C143      1.0  0.06477  0.76298  0.05919  1.0000
  C   C144      1.0  0.07807  0.71452  0.07558  1.0000
  C   C145      1.0  0.31571  0.05906999999999996  0.45764  1.0000
  C   C146      1.0  0.2508399999999999  0.05163999999999993  0.43564999999999987  1.0000
  C   C147      1.0  0.3641699999999999  0.10775999999999993  0.45557999999999993  1.0000
  C   C148      1.0  0.34983999999999993  0.14697999999999997  0.43260999999999994  1.0000
  C   C149      1.0  0.23761999999999991  0.09188999999999996  0.40976  1.0000
  C   C150      1.0  0.28557  0.13824000000000006  0.40869  1.0000
  C   C151      1.0  0.3979599999999999  0.028539999999999975  0.50688  1.0000
  C   C152      1.0  0.17530000000000007  0.9226600000000003  0.47715  1.0000
  C   C153      1.0  0.2990799999999999  0.9330299999999998  0.5118899999999998  1.0000
  C   C154      1.0  0.21898999999999982  0.9661999999999998  0.46626999999999996  1.0000
  C   C155      1.0  0.33014999999999983  0.019459999999999967  0.48231999999999997  1.0000
  C   C156      1.0  0.25492999999999993  0.89096  0.52021  1.0000
  C   C157      1.0  0.28354999999999997  0.97288  0.48664  1.0000
  C   C158      1.0  0.19305999999999998  0.88703  0.50387  1.0000
  C   C159      1.0  0.20372999999999986  0.00550999999999991  0.4406699999999999  1.0000
  C   C160      1.0  0.13887  0.002410000000000007  0.42426  1.0000
  C   C161      1.0  0.18430999999999986  0.6419399999999997  0.7433699999999999  1.0000
  C   C162      1.0  0.24914999999999993  0.68488  0.8007999999999998  1.0000
  C   C163      1.0  0.1359  0.59143  0.74368  1.0000
  C   C164      1.0  0.15029000000000003  0.5828300000000001  0.79725  1.0000
  C   C165      1.0  0.26244  0.67219  0.85425  1.0000
  C   C166      1.0  0.21455999999999997  0.62318  0.8527099999999999  1.0000
  C   C167      1.0  0.10211999999999993  0.60898  0.63064  1.0000
  C   C168      1.0  0.3246699999999999  0.80185  0.7472899999999999  1.0000
  C   C169      1.0  0.20096999999999998  0.7128  0.63396  1.0000
  C   C170      1.0  0.28102  0.74736  0.74725  1.0000
  C   C171      1.0  0.16988999999999999  0.6521999999999999  0.68935  1.0000
  C   C172      1.0  0.2450399999999999  0.7652899999999999  0.6360099999999999  1.0000
  C   C173      1.0  0.21650999999999998  0.7030900000000001  0.68935  1.0000
  C   C174      1.0  0.30688000000000004  0.8108000000000001  0.6939  1.0000
  C   C175      1.0  0.2962199999999999  0.73713  0.8018899999999999  1.0000
  C   C176      1.0  0.36105999999999994  0.78555  0.86365  1.0000
  C   C177      1.0  0.39854  0.44095999999999996  0.75669  1.0000
  C   C178      1.0  0.3841099999999999  0.44837000000000005  0.69924  1.0000
  C   C179      1.0  0.3478099999999999  0.3922  0.75644  1.0000
  C   C180      1.0  0.2856799999999998  0.3529799999999999  0.7028599999999999  1.0000
  C   C181      1.0  0.3180199999999999  0.4082200000000001  0.64581  1.0000
  C   C182      1.0  0.27058999999999994  0.36182999999999993  0.6473699999999999  1.0000
  C   C183      1.0  0.4783399999999999  0.4714  0.86936  1.0000
  C   C184      1.0  0.5545399999999999  0.57743  0.7526899999999999  1.0000
  C   C185      1.0  0.5786799999999998  0.5668899999999999  0.8659999999999999  1.0000
  C   C186      1.0  0.50009  0.5338100000000001  0.7527499999999999  1.0000
  C   C187      1.0  0.46276999999999985  0.48058999999999985  0.8106899999999999  1.0000
  C   C188      1.0  0.6291299999999996  0.6089199999999998  0.8639499999999998  1.0000
  C   C189      1.0  0.51365  0.52716  0.81064  1.0000
  C   C190      1.0  0.6168299999999999  0.61296  0.8060799999999999  1.0000
  C   C191      1.0  0.43527999999999994  0.4943800000000001  0.69817  1.0000
  C   C192      1.0  0.42203999999999997  0.49751  0.63644  1.0000
  C   C193      1.0  0.2433699999999999  0.14192999999999995  0.6843099999999999  1.0000
  C   C194      1.0  0.3008  0.18488000000000007  0.74914  1.0000
  C   C195      1.0  0.24366999999999994  0.09142999999999994  0.6358999999999999  1.0000
  C   C196      1.0  0.29725  0.08282000000000002  0.65028  1.0000
  C   C197      1.0  0.3542499999999999  0.17218999999999987  0.7624299999999998  1.0000
  C   C198      1.0  0.35270999999999997  0.12319  0.71456  1.0000
  C   C199      1.0  0.13063999999999995  0.10897999999999995  0.6021099999999999  1.0000
  C   C200      1.0  0.2472899999999998  0.30184999999999984  0.8246699999999998  1.0000
  C   C201      1.0  0.13394999999999987  0.21279999999999988  0.7009599999999998  1.0000
  C   C202      1.0  0.24724999999999986  0.24734999999999996  0.78102  1.0000
  C   C203      1.0  0.18933999999999995  0.1522  0.66989  1.0000
  C   C204      1.0  0.13600999999999988  0.2652899999999999  0.7450399999999998  1.0000
  C   C205      1.0  0.18934000000000004  0.20309  0.7165  1.0000
  C   C206      1.0  0.19389999999999993  0.31079999999999997  0.8068799999999999  1.0000
  C   C207      1.0  0.3018799999999998  0.23712999999999984  0.7962099999999999  1.0000
  C   C208      1.0  0.36364999999999986  0.28554999999999997  0.8610399999999998  1.0000
  C   C209      1.0  0.25669999999999976  0.94096  0.8985399999999998  1.0000
  C   C210      1.0  0.19924999999999998  0.94837  0.8841099999999998  1.0000
  C   C211      1.0  0.2564399999999999  0.8922099999999997  0.8478099999999998  1.0000
  C   C212      1.0  0.20286999999999997  0.85298  0.7856699999999999  1.0000
  C   C213      1.0  0.1458199999999999  0.9082199999999999  0.8180199999999999  1.0000
  C   C214      1.0  0.14737999999999998  0.8618299999999999  0.7705999999999998  1.0000
  C   C215      1.0  0.3693600000000001  0.9714  0.97834  1.0000
  C   C216      1.0  0.25269  0.07742  0.05452999999999999  1.0000
  C   C217      1.0  0.36599999999999994  0.06689  0.07868  1.0000
  C   C218      1.0  0.25275  0.0338  8.999999999999999e-05  1.0000
  C   C219      1.0  0.3107  0.98059  0.9627699999999999  1.0000
  C   C220      1.0  0.3639499999999999  0.10892  0.12913  1.0000
  C   C221      1.0  0.31063999999999997  0.02716  0.01364  1.0000
  C   C222      1.0  0.30606999999999995  0.11295999999999998  0.11681999999999998  1.0000
  C   C223      1.0  0.1981699999999999  0.99438  0.9352799999999999  1.0000
  C   C224      1.0  0.13643999999999998  0.9975  0.9220499999999998  1.0000
  C   C225      1.0  0.5424299999999997  0.35817  0.6014199999999998  1.0000
  C   C226      1.0  0.5642999999999998  0.31518999999999997  0.6159299999999999  1.0000
  C   C227      1.0  0.54439  0.40864000000000006  0.65215  1.0000
  C   C228      1.0  0.5673199999999999  0.41721  0.71431  1.0000
  C   C229      1.0  0.5902099999999999  0.32783  0.68204  1.0000
  C   C230      1.0  0.5912699999999999  0.37682999999999994  0.72945  1.0000
  C   C231      1.0  0.49305999999999983  0.39105999999999996  0.52165  1.0000
  C   C232      1.0  0.52284  0.19816999999999999  0.44551999999999997  1.0000
  C   C233      1.0  0.48815999999999987  0.2872700000000001  0.4211599999999999  1.0000
  C   C234      1.0  0.53371  0.25271999999999994  0.4999199999999999  1.0000
  C   C235      1.0  0.51781  0.34792999999999996  0.53716  1.0000
  C   C236      1.0  0.47973  0.23473000000000005  0.37076  1.0000
  C   C237      1.0  0.51347  0.29699999999999993  0.4862599999999999  1.0000
  C   C238      1.0  0.49608999999999986  0.18919999999999998  0.3831899999999999  1.0000
  C   C239      1.0  0.5591799999999999  0.26299  0.56477  1.0000
  C   C240      1.0  0.57557  0.21451  0.57807  1.0000
  C   C241      1.0  0.95765  0.5590799999999999  0.8157199999999999  1.0000
  C   C242      1.0  0.9356599999999998  0.55165  0.75085  1.0000
  C   C243      1.0  0.95558  0.60776  0.86418  1.0000
  C   C244      1.0  0.9326099999999997  0.6469799999999998  0.8498499999999998  1.0000
  C   C245      1.0  0.9097699999999999  0.5919  0.73762  1.0000
  C   C246      1.0  0.9086999999999997  0.6382399999999999  0.7855699999999999  1.0000
  C   C247      1.0  0.006889999999999967  0.5285499999999999  0.8979699999999999  1.0000
  C   C248      1.0  0.9771499999999997  0.42266  0.67529  1.0000
  C   C249      1.0  0.011890000000000019  0.43303  0.79908  1.0000
  C   C250      1.0  0.9662699999999997  0.46619999999999995  0.71899  1.0000
  C   C251      1.0  0.98232  0.51947  0.83015  1.0000
  C   C252      1.0  0.020210000000000037  0.39096  0.75493  1.0000
  C   C253      1.0  0.9866399999999997  0.4728799999999999  0.7835499999999999  1.0000
  C   C254      1.0  0.0038700000000000145  0.38703  0.69305  1.0000
  C   C255      1.0  0.94068  0.50551  0.70374  1.0000
  C   C256      1.0  0.9242699999999998  0.50242  0.63888  1.0000
  C   C257      1.0  0.8581599999999999  0.10141999999999998  0.54243  1.0000
  C   C258      1.0  0.81519  0.11592999999999999  0.5643099999999999  1.0000
  C   C259      1.0  0.9086299999999999  0.15215  0.54439  1.0000
  C   C260      1.0  0.9171999999999998  0.21431  0.56731  1.0000
  C   C261      1.0  0.8278299999999998  0.18204000000000004  0.59021  1.0000
  C   C262      1.0  0.87684  0.22945999999999997  0.5912699999999999  1.0000
  C   C263      1.0  0.8910500000000001  0.021639999999999993  0.49306  1.0000
  C   C264      1.0  0.69817  0.9455200000000001  0.52284  1.0000
  C   C265      1.0  0.7872699999999999  0.92116  0.48815999999999987  1.0000
  C   C266      1.0  0.75272  0.99992  0.53371  1.0000
  C   C267      1.0  0.8479299999999999  0.03715999999999999  0.51781  1.0000
  C   C268      1.0  0.7347299999999998  0.87075  0.47973  1.0000
  C   C269      1.0  0.7969999999999999  0.98626  0.51348  1.0000
  C   C270      1.0  0.68921  0.88319  0.49608999999999986  1.0000
  C   C271      1.0  0.7629799999999998  0.06477000000000001  0.55919  1.0000
  C   C272      1.0  0.71451  0.07806999999999999  0.5755799999999999  1.0000
  C   C273      1.0  0.05907999999999995  0.31571999999999995  0.9576399999999999  1.0000
  C   C274      1.0  0.051649999999999995  0.25085  0.93565  1.0000
  C   C275      1.0  0.10775999999999991  0.36416999999999994  0.9555799999999999  1.0000
  C   C276      1.0  0.14697999999999986  0.3498399999999998  0.9326099999999998  1.0000
  C   C277      1.0  0.09189999999999993  0.23761  0.90976  1.0000
  C   C278      1.0  0.13824  0.2855700000000001  0.9087  1.0000
  C   C279      1.0  0.02855  0.39797  0.006879999999999999  1.0000
  C   C280      1.0  0.9226599999999999  0.17529999999999998  0.9771499999999999  1.0000
  C   C281      1.0  0.9330299999999999  0.29908  0.01189  1.0000
  C   C282      1.0  0.9662099999999999  0.21898999999999996  0.96628  1.0000
  C   C283      1.0  0.019469999999999998  0.33014999999999994  0.98232  1.0000
  C   C284      1.0  0.89096  0.25493  0.02021  1.0000
  C   C285      1.0  0.9728799999999997  0.28354999999999997  0.9866399999999999  1.0000
  C   C286      1.0  0.88703  0.19306  0.0038699999999999997  1.0000
  C   C287      1.0  0.005519999999999952  0.20373999999999998  0.9406799999999998  1.0000
  C   C288      1.0  0.0024199999999998945  0.13886999999999985  0.9242699999999998  1.0000
  C   C289      1.0  0.64194  0.18431  0.24337  1.0000
  C   C290      1.0  0.6848799999999998  0.24913999999999997  0.3008  1.0000
  C   C291      1.0  0.59143  0.1359  0.24368  1.0000
  C   C292      1.0  0.58283  0.15028  0.29725  1.0000
  C   C293      1.0  0.67219  0.26244  0.35425  1.0000
  C   C294      1.0  0.62318  0.21456  0.35271  1.0000
  C   C295      1.0  0.6089799999999999  0.10211000000000002  0.13063  1.0000
  C   C296      1.0  0.8018499999999998  0.32467  0.24727999999999997  1.0000
  C   C297      1.0  0.7128  0.20095999999999997  0.13395  1.0000
  C   C298      1.0  0.7473599999999998  0.28102  0.24724999999999994  1.0000
  C   C299      1.0  0.6521999999999998  0.16988999999999999  0.18933999999999998  1.0000
  C   C300      1.0  0.76529  0.24504  0.136  1.0000
  C   C301      1.0  0.7030899999999998  0.21651  0.18933999999999998  1.0000
  C   C302      1.0  0.81079  0.30688  0.19389  1.0000
  C   C303      1.0  0.7371299999999997  0.29621  0.30188999999999994  1.0000
  C   C304      1.0  0.7855499999999999  0.36106  0.36365  1.0000
  C   C305      1.0  0.44095999999999996  0.39853999999999995  0.25669  1.0000
  C   C306      1.0  0.44836999999999994  0.38409999999999994  0.19924  1.0000
  C   C307      1.0  0.3922  0.34781000000000006  0.25643  1.0000
  C   C308      1.0  0.3529699999999999  0.28568  0.20286  1.0000
  C   C309      1.0  0.40822  0.31802  0.14582  1.0000
  C   C310      1.0  0.36183  0.27059  0.14737999999999998  1.0000
  C   C311      1.0  0.4714  0.47834  0.36936  1.0000
  C   C312      1.0  0.57743  0.55453  0.2527  1.0000
  C   C313      1.0  0.56689  0.57868  0.366  1.0000
  C   C314      1.0  0.5337999999999999  0.50009  0.2527499999999999  1.0000
  C   C315      1.0  0.4805799999999999  0.46276999999999996  0.31069  1.0000
  C   C316      1.0  0.60892  0.62913  0.36396  1.0000
  C   C317      1.0  0.52716  0.51365  0.31065  1.0000
  C   C318      1.0  0.6129599999999998  0.61682  0.30608  1.0000
  C   C319      1.0  0.49436999999999987  0.43528  0.19816  1.0000
  C   C320      1.0  0.49749999999999994  0.42205  0.13643  1.0000
  C   C321      1.0  0.8985399999999999  0.75669  0.44096  1.0000
  C   C322      1.0  0.8841099999999997  0.69924  0.44837  1.0000
  C   C323      1.0  0.8478099999999997  0.75643  0.39219999999999994  1.0000
  C   C324      1.0  0.7856799999999999  0.7028600000000002  0.35297999999999996  1.0000
  C   C325      1.0  0.8180199999999997  0.64581  0.40821999999999997  1.0000
  C   C326      1.0  0.77059  0.64737  0.36183  1.0000
  C   C327      1.0  0.97834  0.8693599999999998  0.47139999999999993  1.0000
  C   C328      1.0  0.054530000000000044  0.75269  0.57743  1.0000
  C   C329      1.0  0.07867999999999994  0.866  0.5668899999999999  1.0000
  C   C330      1.0  9.000000000004256e-05  0.7527500000000001  0.5338  1.0000
  C   C331      1.0  0.9627699999999999  0.8106899999999999  0.4805799999999999  1.0000
  C   C332      1.0  0.12913  0.86395  0.60892  1.0000
  C   C333      1.0  0.013649999999999857  0.8106399999999999  0.52716  1.0000
  C   C334      1.0  0.11682999999999996  0.80607  0.61296  1.0000
  C   C335      1.0  0.93528  0.69816  0.49437999999999993  1.0000
  C   C336      1.0  0.9220399999999997  0.63644  0.49751  1.0000
  C   C337      1.0  0.68431  0.74337  0.64194  1.0000
  C   C338      1.0  0.74915  0.8008  0.68488  1.0000
  C   C339      1.0  0.6358999999999998  0.74368  0.59143  1.0000
  C   C340      1.0  0.65028  0.7972499999999999  0.58283  1.0000
  C   C341      1.0  0.7624399999999997  0.8542499999999998  0.6721899999999998  1.0000
  C   C342      1.0  0.71456  0.85271  0.62318  1.0000
  C   C343      1.0  0.60211  0.63064  0.60898  1.0000
  C   C344      1.0  0.8246699999999998  0.7472899999999999  0.80185  1.0000
  C   C345      1.0  0.70097  0.63396  0.7128  1.0000
  C   C346      1.0  0.7810199999999999  0.7472499999999999  0.74736  1.0000
  C   C347      1.0  0.6698899999999999  0.6893499999999999  0.6522  1.0000
  C   C348      1.0  0.7450399999999998  0.63601  0.7652899999999999  1.0000
  C   C349      1.0  0.71651  0.6893499999999999  0.70309  1.0000
  C   C350      1.0  0.8068799999999998  0.6939  0.8108  1.0000
  C   C351      1.0  0.79622  0.80189  0.73713  1.0000
  C   C352      1.0  0.8610599999999998  0.8636499999999999  0.7855499999999999  1.0000
  C   C353      1.0  0.8157100000000002  0.45764  0.05906999999999999  1.0000
  C   C354      1.0  0.7508399999999998  0.43565  0.05164  1.0000
  C   C355      1.0  0.8641700000000001  0.45558000000000004  0.10775999999999997  1.0000
  C   C356      1.0  0.8498399999999998  0.4326  0.14698  1.0000
  C   C357      1.0  0.7376099999999999  0.40976  0.09189  1.0000
  C   C358      1.0  0.7855699999999998  0.40869000000000005  0.13824  1.0000
  C   C359      1.0  0.8979599999999998  0.50688  0.028539999999999996  1.0000
  C   C360      1.0  0.6753  0.47715  0.92266  1.0000
  C   C361      1.0  0.7990899999999999  0.51189  0.93303  1.0000
  C   C362      1.0  0.71899  0.46626999999999996  0.96621  1.0000
  C   C363      1.0  0.8301499999999998  0.48232  0.01946  1.0000
  C   C364      1.0  0.75493  0.52021  0.89096  1.0000
  C   C365      1.0  0.7835499999999999  0.48663999999999996  0.9728799999999999  1.0000
  C   C366      1.0  0.69306  0.5038699999999999  0.8870299999999999  1.0000
  C   C367      1.0  0.70373  0.44067000000000006  0.005499999999999998  1.0000
  C   C368      1.0  0.63887  0.42425  0.00241  1.0000
  C   C369      1.0  0.60143  0.04242999999999995  0.85816  1.0000
  C   C370      1.0  0.6159299999999999  0.0643099999999999  0.8151899999999999  1.0000
  C   C371      1.0  0.6521499999999999  0.04439000000000001  0.90863  1.0000
  C   C372      1.0  0.7143099999999998  0.06730999999999997  0.9171999999999999  1.0000
  C   C373      1.0  0.6820399999999998  0.09021  0.82783  1.0000
  C   C374      1.0  0.7294599999999999  0.0912599999999999  0.8768299999999999  1.0000
  C   C375      1.0  0.52165  0.99307  0.89106  1.0000
  C   C376      1.0  0.4455199999999999  0.022840000000000065  0.69817  1.0000
  C   C377      1.0  0.4211699999999999  0.9881599999999999  0.7872699999999999  1.0000
  C   C378      1.0  0.49992  0.03371999999999992  0.7527199999999998  1.0000
  C   C379      1.0  0.5371599999999999  0.017810000000000065  0.84793  1.0000
  C   C380      1.0  0.37075999999999987  0.9797299999999999  0.7347299999999999  1.0000
  C   C381      1.0  0.4862599999999997  0.013469999999999883  0.7969999999999998  1.0000
  C   C382      1.0  0.38318999999999975  0.99608  0.6891999999999999  1.0000
  C   C383      1.0  0.5647699999999999  0.05918999999999999  0.7629799999999999  1.0000
  C   C384      1.0  0.57807  0.07557999999999987  0.7145199999999999  1.0000
  O   O1        1.0  0.87485  0.007639999999999984  0.9386599999999999  1.0000
  O   O2        1.0  0.64051  0.94086  0.053899999999999997  1.0000
  O   O3        1.0  0.5838299999999998  0.8933  0.94243  1.0000
  O   O4        1.0  0.9093399999999997  0.9613599999999998  0.9976399999999999  1.0000
  O   O5        1.0  0.62502  0.56373  0.13260999999999998  1.0000
  O   O6        1.0  0.8595599999999999  0.91337  0.3004  1.0000
  O   O7        1.0  0.91636  0.85866  0.30926999999999993  1.0000
  O   O8        1.0  0.5907499999999999  0.58859  0.05211  1.0000
  O   O9        1.0  0.56888  0.93623  0.56115  1.0000
  O   O10       1.0  0.3866699999999999  0.5865  0.4461299999999999  1.0000
  O   O11       1.0  0.4506399999999998  0.64142  0.5575599999999998  1.0000
  O   O12       1.0  0.4636299999999998  0.9116999999999998  0.5023999999999998  1.0000
  O   O13       1.0  0.9310600000000001  0.49216  0.36726  1.0000
  O   O14       1.0  0.11307999999999999  0.55921  0.19966  1.0000
  O   O15       1.0  0.04929999999999998  0.60696  0.19077  1.0000
  O   O16       1.0  0.036299999999999985  0.53892  0.44811  1.0000
  O   O17       1.0  0.13261999999999996  0.12502999999999997  0.06373999999999999  1.0000
  O   O18       1.0  0.30039999999999994  0.3595499999999999  0.41338  1.0000
  O   O19       1.0  0.30926  0.41637  0.35869  1.0000
  O   O20       1.0  0.05211  0.09074  0.08859  1.0000
  O   O21       1.0  0.9386499999999999  0.37484  0.50763  1.0000
  O   O22       1.0  0.05390999999999999  0.14051  0.44088  1.0000
  O   O23       1.0  0.94243  0.08380999999999997  0.39326999999999995  1.0000
  O   O24       1.0  0.9976499999999998  0.4093399999999999  0.46137  1.0000
  O   O25       1.0  0.36726000000000003  0.43107  0.99217  1.0000
  O   O26       1.0  0.19964999999999997  0.61309  0.0592  1.0000
  O   O27       1.0  0.19078  0.54934  0.10697999999999999  1.0000
  O   O28       1.0  0.44811  0.5363  0.03892  1.0000
  O   O29       1.0  0.56115  0.06888000000000001  0.43622  1.0000
  O   O30       1.0  0.44611999999999996  0.8866700000000001  0.0865  1.0000
  O   O31       1.0  0.5575499999999999  0.9506099999999998  0.14139999999999997  1.0000
  O   O32       1.0  0.5024  0.96362  0.4117  1.0000
  O   O33       1.0  0.9921700000000001  0.8672600000000001  0.93106  1.0000
  O   O34       1.0  0.05919000000000003  0.69966  0.11309  1.0000
  O   O35       1.0  0.10698000000000002  0.69079  0.04935  1.0000
  O   O36       1.0  0.03892000000000002  0.9481  0.0363  1.0000
  O   O37       1.0  0.43620999999999993  0.06114000000000001  0.56888  1.0000
  O   O38       1.0  0.08650000000000001  0.9461100000000001  0.38667  1.0000
  O   O39       1.0  0.14139999999999994  0.05754  0.45060999999999996  1.0000
  O   O40       1.0  0.41169  0.0023999999999999933  0.46363  1.0000
  O   O41       1.0  0.06374999999999989  0.6326299999999999  0.6250399999999999  1.0000
  O   O42       1.0  0.41337999999999986  0.8004  0.8595399999999999  1.0000
  O   O43       1.0  0.3586899999999999  0.80926  0.9163699999999998  1.0000
  O   O44       1.0  0.08860000000000001  0.55212  0.59076  1.0000
  O   O45       1.0  0.50764  0.43866  0.87484  1.0000
  O   O46       1.0  0.4408799999999999  0.55392  0.64052  1.0000
  O   O47       1.0  0.39327  0.44245  0.58382  1.0000
  O   O48       1.0  0.4613799999999999  0.49765  0.90934  1.0000
  O   O49       1.0  0.12502999999999997  0.13262  0.5637299999999998  1.0000
  O   O50       1.0  0.3595599999999998  0.30039999999999994  0.9133699999999999  1.0000
  O   O51       1.0  0.4163599999999999  0.3092699999999999  0.8586599999999999  1.0000
  O   O52       1.0  0.09075999999999997  0.05210999999999999  0.58859  1.0000
  O   O53       1.0  0.37484999999999996  0.9386599999999999  0.007639999999999998  1.0000
  O   O54       1.0  0.14050999999999988  0.053899999999999934  0.9408699999999999  1.0000
  O   O55       1.0  0.08382999999999982  0.9424299999999998  0.8932999999999998  1.0000
  O   O56       1.0  0.40933999999999976  0.9976399999999997  0.9613599999999999  1.0000
  O   O57       1.0  0.43105999999999983  0.36726  0.49215999999999993  1.0000
  O   O58       1.0  0.6130899999999999  0.19965999999999992  0.5592099999999999  1.0000
  O   O59       1.0  0.54931  0.19077  0.60696  1.0000
  O   O60       1.0  0.5362999999999999  0.44810999999999995  0.53892  1.0000
  O   O61       1.0  0.06889000000000002  0.56115  0.93623  1.0000
  O   O62       1.0  0.8866699999999998  0.44612999999999997  0.5864999999999999  1.0000
  O   O63       1.0  0.9506399999999999  0.55756  0.64142  1.0000
  O   O64       1.0  0.9636299999999999  0.5024  0.9117  1.0000
  O   O65       1.0  0.8672599999999999  0.99217  0.43105999999999994  1.0000
  O   O66       1.0  0.69966  0.05919999999999997  0.61309  1.0000
  O   O67       1.0  0.6907899999999999  0.10697999999999991  0.5493399999999999  1.0000
  O   O68       1.0  0.9481099999999999  0.03892  0.5363  1.0000
  O   O69       1.0  0.06114999999999999  0.43622  0.06887  1.0000
  O   O70       1.0  0.9461199999999997  0.08649999999999997  0.8866699999999998  1.0000
  O   O71       1.0  0.057549999999999914  0.1414  0.9506199999999999  1.0000
  O   O72       1.0  0.0024000000000000015  0.4117  0.96362  1.0000
  O   O73       1.0  0.63262  0.06374  0.12503  1.0000
  O   O74       1.0  0.8003999999999999  0.41338  0.35955  1.0000
  O   O75       1.0  0.80926  0.35868999999999995  0.4163699999999999  1.0000
  O   O76       1.0  0.55211  0.08858999999999999  0.09073999999999997  1.0000
  O   O77       1.0  0.43865  0.50763  0.37483999999999995  1.0000
  O   O78       1.0  0.55391  0.44088000000000005  0.14051  1.0000
  O   O79       1.0  0.44243  0.39327  0.08381  1.0000
  O   O80       1.0  0.49764999999999987  0.46137  0.40934  1.0000
  O   O81       1.0  0.0076399999999999775  0.87484  0.43866  1.0000
  O   O82       1.0  0.9408799999999997  0.64052  0.55392  1.0000
  O   O83       1.0  0.8932599999999998  0.58382  0.44244999999999995  1.0000
  O   O84       1.0  0.9613799999999999  0.9093400000000001  0.49764999999999987  1.0000
  O   O85       1.0  0.56375  0.62504  0.63263  1.0000
  O   O86       1.0  0.91338  0.85954  0.8004  1.0000
  O   O87       1.0  0.8586899999999996  0.9163699999999999  0.8092599999999999  1.0000
  O   O88       1.0  0.5885999999999999  0.59075  0.55212  1.0000
  O   O89       1.0  0.9362099999999998  0.56888  0.06114  1.0000
  O   O90       1.0  0.5864999999999999  0.3866700000000001  0.9461099999999999  1.0000
  O   O91       1.0  0.6414  0.45061  0.057539999999999994  1.0000
  O   O92       1.0  0.91169  0.46363  0.0024  1.0000
  O   O93       1.0  0.4921699999999997  0.93106  0.8672599999999999  1.0000
  O   O94       1.0  0.5591999999999999  0.11309000000000004  0.69966  1.0000
  O   O95       1.0  0.60699  0.049349999999999956  0.6907899999999999  1.0000
  O   O96       1.0  0.53892  0.03630000000000001  0.94811  1.0000
  O   O97       1.0  0.00013999999999999782  0.00013000000000002858  0.93489  1.0000
  O   O98       1.0  0.50012  0.43488  0.00013  1.0000
  O   O99       1.0  0.5653599999999999  0.06535999999999999  0.56536  1.0000
  O   O100      1.0  0.9348899999999999  0.50014  0.50013  1.0000
  O   O101      1.0  0.00012999999999999438  0.00012999999999999083  0.43488  1.0000
  O   O102      1.0  0.5001299999999999  0.93488  0.00013  1.0000
  O   O103      1.0  0.43489  0.50013  0.50014  1.0000
  O   O104      1.0  0.06535999999999996  0.56536  0.06536  1.0000
