data_image0
_chemical_formula_structural       Zn24H336C624O96
_chemical_formula_sum              "Zn24 H336 C624 O96"
_cell_length_a       33.10563
_cell_length_b       33.10563
_cell_length_c       33.10563
_cell_angle_alpha    90.00771
_cell_angle_beta     90.00771
_cell_angle_gamma    90.00771

_symmetry_space_group_name_H-M    'P 1'
_symmetry_Int_Tables_number       1

loop_
  _symmetry_equiv_pos_as_xyz
  'x,y,z'

loop_
  _atom_site_type_symbol
  _atom_site_label
  _atom_site_symmetry_multiplicity
  _atom_site_fract_x
  _atom_site_fract_y
  _atom_site_fract_z
  _atom_site_occupancy
  Zn  Zn1       1.0  0.24993  0.7503500000000002  0.03982  1.0000
  Zn  Zn2       1.0  0.24985  0.7502600000000003  0.45982  1.0000
  Zn  Zn3       1.0  0.039820000000000015  0.24993000000000004  0.7503500000000002  1.0000
  Zn  Zn4       1.0  0.4598200000000001  0.24985000000000002  0.75026  1.0000
  Zn  Zn5       1.0  0.7503500000000002  0.03982  0.24993000000000004  1.0000
  Zn  Zn6       1.0  0.7502600000000003  0.45982  0.24985000000000002  1.0000
  Zn  Zn7       1.0  0.2495  0.7503800000000003  0.54039  1.0000
  Zn  Zn8       1.0  0.24986  0.75018  0.96019  1.0000
  Zn  Zn9       1.0  0.7501800000000002  0.96019  0.24985999999999997  1.0000
  Zn  Zn10      1.0  0.7503700000000002  0.54039  0.2495  1.0000
  Zn  Zn11      1.0  0.96019  0.24986  0.75018  1.0000
  Zn  Zn12      1.0  0.54039  0.2495  0.75037  1.0000
  Zn  Zn13      1.0  0.7505000000000001  0.24963  0.45961  1.0000
  Zn  Zn14      1.0  0.7501500000000002  0.24983000000000002  0.03981  1.0000
  Zn  Zn15      1.0  0.24983000000000002  0.03981  0.75015  1.0000
  Zn  Zn16      1.0  0.24963  0.45961000000000013  0.7505  1.0000
  Zn  Zn17      1.0  0.03981  0.75015  0.24982999999999997  1.0000
  Zn  Zn18      1.0  0.45961  0.7505000000000002  0.24963000000000002  1.0000
  Zn  Zn19      1.0  0.7500700000000002  0.24965999999999997  0.96018  1.0000
  Zn  Zn20      1.0  0.7501600000000003  0.24974  0.54018  1.0000
  Zn  Zn21      1.0  0.96018  0.75007  0.24966  1.0000
  Zn  Zn22      1.0  0.54019  0.75016  0.24974  1.0000
  Zn  Zn23      1.0  0.24966000000000002  0.96019  0.7500700000000002  1.0000
  Zn  Zn24      1.0  0.24975  0.5401900000000002  0.75016  1.0000
  H   H1        1.0  0.18084  0.8525600000000002  0.05098000000000001  1.0000
  H   H2        1.0  0.14647000000000004  0.90664  0.09104  1.0000
  H   H3        1.0  0.10044000000000003  0.96544  0.09356  1.0000
  H   H4        1.0  0.09233000000000002  0.96582  0.96357  1.0000
  H   H5        1.0  0.13097  0.91577  0.9238000000000002  1.0000
  H   H6        1.0  0.17456  0.8542800000000003  0.9215  1.0000
  H   H7        1.0  0.08375  0.03326  0.9777399999999999  1.0000
  H   H8        1.0  0.31874  0.64694  0.05078  1.0000
  H   H9        1.0  0.35388  0.5934  0.09069  1.0000
  H   H10       1.0  0.4000500000000001  0.53476  0.09313  1.0000
  H   H11       1.0  0.40798  0.53431  0.96317  1.0000
  H   H12       1.0  0.36936000000000013  0.58475  0.9234500000000002  1.0000
  H   H13       1.0  0.32518000000000014  0.64567  0.92128  1.0000
  H   H14       1.0  0.41703  0.46709  0.97722  1.0000
  H   H15       1.0  0.31877  0.85264  0.44949  1.0000
  H   H16       1.0  0.35414  0.90637  0.40937  1.0000
  H   H17       1.0  0.4003  0.9648900000000002  0.40703  1.0000
  H   H18       1.0  0.40737  0.9657700000000002  0.5370700000000002  1.0000
  H   H19       1.0  0.36873  0.91577  0.5767  1.0000
  H   H20       1.0  0.32466  0.85463  0.57897  1.0000
  H   H21       1.0  0.41685  0.0331  0.523  1.0000
  H   H22       1.0  0.17985  0.64849  0.44964  1.0000
  H   H23       1.0  0.14558000000000004  0.59431  0.4095  1.0000
  H   H24       1.0  0.10019000000000003  0.53519  0.40698  1.0000
  H   H25       1.0  0.09252000000000003  0.53422  0.5369300000000002  1.0000
  H   H26       1.0  0.13059  0.58476  0.57674  1.0000
  H   H27       1.0  0.17379  0.64643  0.57917  1.0000
  H   H28       1.0  0.08347  0.4669500000000001  0.52263  1.0000
  H   H29       1.0  0.05099  0.18084  0.85256  1.0000
  H   H30       1.0  0.09104  0.14647  0.90664  1.0000
  H   H31       1.0  0.09356000000000003  0.10044  0.96544  1.0000
  H   H32       1.0  0.96357  0.09233  0.96581  1.0000
  H   H33       1.0  0.9238  0.13097000000000003  0.9157600000000001  1.0000
  H   H34       1.0  0.9215000000000002  0.17456  0.85428  1.0000
  H   H35       1.0  0.97774  0.08375  0.03326  1.0000
  H   H36       1.0  0.05078  0.31874  0.64694  1.0000
  H   H37       1.0  0.09069000000000002  0.3538800000000001  0.5934  1.0000
  H   H38       1.0  0.09314000000000003  0.40005  0.53476  1.0000
  H   H39       1.0  0.9631700000000002  0.40797  0.53431  1.0000
  H   H40       1.0  0.92345  0.36936000000000013  0.58475  1.0000
  H   H41       1.0  0.9212800000000002  0.32518  0.64567  1.0000
  H   H42       1.0  0.97722  0.41703  0.46709  1.0000
  H   H43       1.0  0.4495  0.31877  0.85264  1.0000
  H   H44       1.0  0.40937  0.35414  0.90637  1.0000
  H   H45       1.0  0.40703  0.4003  0.9648900000000002  1.0000
  H   H46       1.0  0.53707  0.40737  0.96577  1.0000
  H   H47       1.0  0.5767  0.36873  0.91577  1.0000
  H   H48       1.0  0.5789700000000002  0.32466  0.85463  1.0000
  H   H49       1.0  0.523  0.41685  0.03309  1.0000
  H   H50       1.0  0.44964  0.17985  0.64849  1.0000
  H   H51       1.0  0.4095  0.14558  0.59431  1.0000
  H   H52       1.0  0.40698  0.10019  0.53519  1.0000
  H   H53       1.0  0.53693  0.09252  0.53422  1.0000
  H   H54       1.0  0.57674  0.13059  0.58476  1.0000
  H   H55       1.0  0.5791700000000002  0.17379  0.64643  1.0000
  H   H56       1.0  0.5226300000000003  0.08347  0.46695  1.0000
  H   H57       1.0  0.85256  0.05098000000000001  0.18084  1.0000
  H   H58       1.0  0.9066400000000002  0.09104  0.14647  1.0000
  H   H59       1.0  0.96544  0.09356000000000002  0.10044  1.0000
  H   H60       1.0  0.96581  0.96357  0.09233  1.0000
  H   H61       1.0  0.91576  0.9238  0.13096  1.0000
  H   H62       1.0  0.85428  0.9215  0.17456  1.0000
  H   H63       1.0  0.03326  0.9777400000000002  0.08375  1.0000
  H   H64       1.0  0.64694  0.05078000000000001  0.31874  1.0000
  H   H65       1.0  0.5934  0.09069000000000003  0.35388  1.0000
  H   H66       1.0  0.53476  0.09314  0.40005  1.0000
  H   H67       1.0  0.5343100000000002  0.9631700000000002  0.40797  1.0000
  H   H68       1.0  0.58475  0.9234500000000002  0.36936000000000013  1.0000
  H   H69       1.0  0.6456700000000002  0.9212800000000001  0.32518  1.0000
  H   H70       1.0  0.46709  0.97722  0.41703  1.0000
  H   H71       1.0  0.85264  0.4495  0.31876  1.0000
  H   H72       1.0  0.9063700000000002  0.40937  0.35413  1.0000
  H   H73       1.0  0.9648900000000001  0.40703  0.4003000000000001  1.0000
  H   H74       1.0  0.96577  0.53707  0.40737  1.0000
  H   H75       1.0  0.91577  0.5767  0.36873  1.0000
  H   H76       1.0  0.85463  0.5789700000000002  0.32466  1.0000
  H   H77       1.0  0.0331  0.523  0.41685  1.0000
  H   H78       1.0  0.64849  0.44964  0.17985  1.0000
  H   H79       1.0  0.59431  0.4095  0.14558  1.0000
  H   H80       1.0  0.53519  0.4069800000000001  0.10019  1.0000
  H   H81       1.0  0.5342200000000003  0.53693  0.09252  1.0000
  H   H82       1.0  0.58476  0.57674  0.13059  1.0000
  H   H83       1.0  0.64643  0.57917  0.17379000000000006  1.0000
  H   H84       1.0  0.46695  0.52263  0.08347  1.0000
  H   H85       1.0  0.14773000000000003  0.81926  0.55026  1.0000
  H   H86       1.0  0.09372  0.85408  0.59055  1.0000
  H   H87       1.0  0.03502  0.90006  0.59291  1.0000
  H   H88       1.0  0.03418  0.9074400000000002  0.46299  1.0000
  H   H89       1.0  0.08389  0.8686900000000002  0.42328  1.0000
  H   H90       1.0  0.14529  0.82491  0.42073  1.0000
  H   H91       1.0  0.96696  0.91664  0.47711  1.0000
  H   H92       1.0  0.35233  0.68074  0.55186  1.0000
  H   H93       1.0  0.4057500000000001  0.64522  0.59169  1.0000
  H   H94       1.0  0.46436  0.59906  0.59395  1.0000
  H   H95       1.0  0.46509  0.59204  0.46398  1.0000
  H   H96       1.0  0.41485  0.63091  0.42433000000000004  1.0000
  H   H97       1.0  0.35401  0.67524  0.42232  1.0000
  H   H98       1.0  0.53216  0.58371  0.47767  1.0000
  H   H99       1.0  0.14681000000000005  0.6814  0.94899  1.0000
  H   H100      1.0  0.09308  0.6464500000000001  0.90903  1.0000
  H   H101      1.0  0.03449  0.60036  0.90655  1.0000
  H   H102      1.0  0.03403  0.59225  0.036470000000000016  1.0000
  H   H103      1.0  0.08453  0.6307  0.07622  1.0000
  H   H104      1.0  0.14559000000000005  0.67471  0.07857  1.0000
  H   H105      1.0  0.96687  0.58319  0.02263  1.0000
  H   H106      1.0  0.3526700000000001  0.81936  0.9493  1.0000
  H   H107      1.0  0.40615  0.85409  0.90924  1.0000
  H   H108      1.0  0.46514  0.89985  0.9066000000000002  1.0000
  H   H109      1.0  0.46603  0.90801  0.03648  1.0000
  H   H110      1.0  0.41559  0.8695400000000001  0.07644  1.0000
  H   H111      1.0  0.35452  0.82552  0.07889  1.0000
  H   H112      1.0  0.53337  0.91606  0.022  1.0000
  H   H113      1.0  0.81936  0.9493  0.35267  1.0000
  H   H114      1.0  0.85409  0.90924  0.4061500000000001  1.0000
  H   H115      1.0  0.8998500000000003  0.9066000000000002  0.46514000000000005  1.0000
  H   H116      1.0  0.9080100000000002  0.03648  0.46603  1.0000
  H   H117      1.0  0.86954  0.07644  0.41559  1.0000
  H   H118      1.0  0.82552  0.07889  0.35452  1.0000
  H   H119      1.0  0.91606  0.022  0.53337  1.0000
  H   H120      1.0  0.6814  0.94899  0.14681  1.0000
  H   H121      1.0  0.64645  0.90904  0.09308000000000002  1.0000
  H   H122      1.0  0.60036  0.90655  0.03449  1.0000
  H   H123      1.0  0.5922500000000003  0.03647  0.03403  1.0000
  H   H124      1.0  0.6307000000000003  0.07622  0.08453  1.0000
  H   H125      1.0  0.67471  0.07857  0.14559  1.0000
  H   H126      1.0  0.58319  0.02263  0.96687  1.0000
  H   H127      1.0  0.68074  0.55186  0.35233  1.0000
  H   H128      1.0  0.64522  0.59169  0.40575  1.0000
  H   H129      1.0  0.5990600000000003  0.59396  0.46436  1.0000
  H   H130      1.0  0.59204  0.46398  0.46509  1.0000
  H   H131      1.0  0.63091  0.42433  0.41485  1.0000
  H   H132      1.0  0.67524  0.42232  0.35401  1.0000
  H   H133      1.0  0.58371  0.47767  0.53215  1.0000
  H   H134      1.0  0.81926  0.55026  0.14773  1.0000
  H   H135      1.0  0.85408  0.59055  0.09371  1.0000
  H   H136      1.0  0.9000600000000002  0.59291  0.03502  1.0000
  H   H137      1.0  0.90744  0.46299  0.03418  1.0000
  H   H138      1.0  0.86869  0.42328  0.08389  1.0000
  H   H139      1.0  0.8249100000000003  0.42073  0.14529  1.0000
  H   H140      1.0  0.9166500000000002  0.47712  0.96696  1.0000
  H   H141      1.0  0.94899  0.14681  0.6814  1.0000
  H   H142      1.0  0.90903  0.09308000000000002  0.6464500000000001  1.0000
  H   H143      1.0  0.9065500000000002  0.03449  0.60036  1.0000
  H   H144      1.0  0.03647  0.034030000000000005  0.59225  1.0000
  H   H145      1.0  0.07622  0.08453  0.6307  1.0000
  H   H146      1.0  0.07857  0.14559  0.67471  1.0000
  H   H147      1.0  0.02263  0.9668700000000001  0.58319  1.0000
  H   H148      1.0  0.9493  0.35267  0.81936  1.0000
  H   H149      1.0  0.90924  0.4061500000000001  0.85408  1.0000
  H   H150      1.0  0.9066000000000002  0.4651400000000001  0.89985  1.0000
  H   H151      1.0  0.03648  0.4660300000000001  0.90801  1.0000
  H   H152      1.0  0.07644  0.41559000000000007  0.86954  1.0000
  H   H153      1.0  0.07889  0.35452  0.82552  1.0000
  H   H154      1.0  0.022  0.53337  0.91606  1.0000
  H   H155      1.0  0.55026  0.14773  0.81926  1.0000
  H   H156      1.0  0.5905500000000002  0.09372  0.85408  1.0000
  H   H157      1.0  0.59291  0.03502  0.90006  1.0000
  H   H158      1.0  0.46299  0.03418  0.90744  1.0000
  H   H159      1.0  0.4232800000000001  0.08389  0.86869  1.0000
  H   H160      1.0  0.4207300000000001  0.14529  0.8249100000000001  1.0000
  H   H161      1.0  0.47712  0.96696  0.91664  1.0000
  H   H162      1.0  0.55186  0.35233  0.68074  1.0000
  H   H163      1.0  0.59169  0.40575  0.64522  1.0000
  H   H164      1.0  0.5939600000000003  0.46436  0.59906  1.0000
  H   H165      1.0  0.4639800000000001  0.46509  0.59204  1.0000
  H   H166      1.0  0.42433  0.41485000000000005  0.63091  1.0000
  H   H167      1.0  0.42232  0.35401  0.67523  1.0000
  H   H168      1.0  0.47767  0.53216  0.58371  1.0000
  H   H169      1.0  0.85228  0.18074  0.44974  1.0000
  H   H170      1.0  0.9062900000000003  0.14593  0.40946000000000005  1.0000
  H   H171      1.0  0.96498  0.09994000000000003  0.40709  1.0000
  H   H172      1.0  0.96582  0.09256  0.53701  1.0000
  H   H173      1.0  0.91611  0.13132  0.57672  1.0000
  H   H174      1.0  0.8547100000000002  0.17509000000000005  0.57927  1.0000
  H   H175      1.0  0.03304  0.08336  0.52289  1.0000
  H   H176      1.0  0.64767  0.31926  0.44814  1.0000
  H   H177      1.0  0.5942500000000001  0.35479  0.40831  1.0000
  H   H178      1.0  0.53564  0.40095  0.40605  1.0000
  H   H179      1.0  0.53492  0.40797  0.53602  1.0000
  H   H180      1.0  0.58516  0.3690900000000001  0.57567  1.0000
  H   H181      1.0  0.646  0.32477  0.57769  1.0000
  H   H182      1.0  0.46785  0.41629  0.52233  1.0000
  H   H183      1.0  0.8531900000000002  0.3186  0.05101  1.0000
  H   H184      1.0  0.90692  0.35355000000000003  0.09097  1.0000
  H   H185      1.0  0.96551  0.3996400000000001  0.09345000000000003  1.0000
  H   H186      1.0  0.9659700000000002  0.4077500000000001  0.96353  1.0000
  H   H187      1.0  0.91548  0.36930000000000013  0.92378  1.0000
  H   H188      1.0  0.85441  0.32529  0.92143  1.0000
  H   H189      1.0  0.03314  0.41682  0.9773700000000001  1.0000
  H   H190      1.0  0.6473300000000002  0.18065  0.0507  1.0000
  H   H191      1.0  0.5938600000000003  0.14592  0.09076  1.0000
  H   H192      1.0  0.53487  0.10015  0.0934  1.0000
  H   H193      1.0  0.53398  0.09199  0.96353  1.0000
  H   H194      1.0  0.58441  0.13046  0.92356  1.0000
  H   H195      1.0  0.6454800000000003  0.17448  0.92111  1.0000
  H   H196      1.0  0.4666300000000001  0.08394  0.978  1.0000
  H   H197      1.0  0.18065  0.0507  0.64733  1.0000
  H   H198      1.0  0.14592  0.09076  0.59386  1.0000
  H   H199      1.0  0.10015  0.0934  0.53487  1.0000
  H   H200      1.0  0.09199  0.9635300000000002  0.53397  1.0000
  H   H201      1.0  0.13046  0.92356  0.58441  1.0000
  H   H202      1.0  0.17448  0.92111  0.64548  1.0000
  H   H203      1.0  0.08394  0.9780099999999999  0.46663  1.0000
  H   H204      1.0  0.3186000000000001  0.05101  0.85319  1.0000
  H   H205      1.0  0.3535500000000001  0.09097000000000001  0.90692  1.0000
  H   H206      1.0  0.39964  0.09346  0.96551  1.0000
  H   H207      1.0  0.40775  0.9635300000000002  0.96597  1.0000
  H   H208      1.0  0.36930000000000013  0.9237800000000003  0.9154800000000002  1.0000
  H   H209      1.0  0.32529000000000013  0.92144  0.85441  1.0000
  H   H210      1.0  0.41681  0.97737  0.03313  1.0000
  H   H211      1.0  0.31926  0.44814  0.64767  1.0000
  H   H212      1.0  0.35479  0.4083100000000001  0.59425  1.0000
  H   H213      1.0  0.4009500000000001  0.40605  0.53564  1.0000
  H   H214      1.0  0.40797  0.5360200000000003  0.53492  1.0000
  H   H215      1.0  0.36909  0.57567  0.58516  1.0000
  H   H216      1.0  0.32477  0.57769  0.646  1.0000
  H   H217      1.0  0.41629  0.52233  0.46785  1.0000
  H   H218      1.0  0.18074  0.44974  0.85227  1.0000
  H   H219      1.0  0.14593  0.40946  0.90629  1.0000
  H   H220      1.0  0.09995  0.40709  0.96498  1.0000
  H   H221      1.0  0.09257  0.53701  0.96582  1.0000
  H   H222      1.0  0.13132  0.57672  0.9161100000000001  1.0000
  H   H223      1.0  0.17509000000000005  0.57927  0.85471  1.0000
  H   H224      1.0  0.08336  0.52289  0.03304  1.0000
  H   H225      1.0  0.05101  0.85319  0.3186  1.0000
  H   H226      1.0  0.09097  0.90692  0.35355  1.0000
  H   H227      1.0  0.09346  0.96551  0.39964  1.0000
  H   H228      1.0  0.96353  0.96597  0.40775  1.0000
  H   H229      1.0  0.92378  0.9154800000000002  0.3693  1.0000
  H   H230      1.0  0.9214400000000003  0.85441  0.32529  1.0000
  H   H231      1.0  0.97737  0.03313  0.41681  1.0000
  H   H232      1.0  0.0507  0.64733  0.18065  1.0000
  H   H233      1.0  0.09076  0.5938600000000003  0.14592  1.0000
  H   H234      1.0  0.0934  0.53487  0.10015  1.0000
  H   H235      1.0  0.96353  0.53397  0.09199  1.0000
  H   H236      1.0  0.92356  0.5844100000000001  0.13046  1.0000
  H   H237      1.0  0.9211100000000002  0.6454800000000003  0.17448  1.0000
  H   H238      1.0  0.978  0.46663  0.08394  1.0000
  H   H239      1.0  0.44974  0.85228  0.18074  1.0000
  H   H240      1.0  0.40946  0.90629  0.14592  1.0000
  H   H241      1.0  0.40709  0.9649800000000002  0.09994  1.0000
  H   H242      1.0  0.53701  0.96582  0.09256  1.0000
  H   H243      1.0  0.57672  0.9161100000000002  0.13132  1.0000
  H   H244      1.0  0.5792700000000001  0.85471  0.17509  1.0000
  H   H245      1.0  0.52289  0.03304  0.08336  1.0000
  H   H246      1.0  0.4481400000000001  0.64767  0.31926  1.0000
  H   H247      1.0  0.4083100000000001  0.59425  0.35479  1.0000
  H   H248      1.0  0.40605  0.53564  0.40095  1.0000
  H   H249      1.0  0.5360200000000002  0.53492  0.40797  1.0000
  H   H250      1.0  0.5756700000000002  0.58516  0.36909  1.0000
  H   H251      1.0  0.57769  0.646  0.32477  1.0000
  H   H252      1.0  0.52233  0.46785  0.41629  1.0000
  H   H253      1.0  0.81916  0.14745  0.94902  1.0000
  H   H254      1.0  0.8535300000000001  0.09337  0.90897  1.0000
  H   H255      1.0  0.8995700000000002  0.03457  0.90645  1.0000
  H   H256      1.0  0.90767  0.03419  0.03643  1.0000
  H   H257      1.0  0.86904  0.08424  0.07621  1.0000
  H   H258      1.0  0.82544  0.14572  0.0785  1.0000
  H   H259      1.0  0.9162500000000002  0.96674  0.02226  1.0000
  H   H260      1.0  0.68126  0.35306  0.94923  1.0000
  H   H261      1.0  0.64612  0.4066  0.90931  1.0000
  H   H262      1.0  0.59995  0.46525  0.90687  1.0000
  H   H263      1.0  0.59203  0.4657  0.03683  1.0000
  H   H264      1.0  0.6306400000000002  0.41525  0.07655  1.0000
  H   H265      1.0  0.67482  0.35434  0.07872  1.0000
  H   H266      1.0  0.58297  0.5329100000000002  0.02278  1.0000
  H   H267      1.0  0.68124  0.14736  0.55051  1.0000
  H   H268      1.0  0.64587  0.09363  0.5906300000000001  1.0000
  H   H269      1.0  0.5997  0.03511  0.59297  1.0000
  H   H270      1.0  0.59263  0.03423000000000001  0.46294  1.0000
  H   H271      1.0  0.63128  0.08423  0.4233  1.0000
  H   H272      1.0  0.6753400000000003  0.14537000000000003  0.42104  1.0000
  H   H273      1.0  0.58315  0.96691  0.477  1.0000
  H   H274      1.0  0.8201600000000002  0.3515100000000001  0.55037  1.0000
  H   H275      1.0  0.85442  0.40569  0.5905  1.0000
  H   H276      1.0  0.8998100000000002  0.4648200000000001  0.5930300000000002  1.0000
  H   H277      1.0  0.90748  0.46578  0.46308  1.0000
  H   H278      1.0  0.86941  0.4152400000000001  0.42326  1.0000
  H   H279      1.0  0.82622  0.35357  0.42083  1.0000
  H   H280      1.0  0.9165300000000002  0.53305  0.47737  1.0000
  H   H281      1.0  0.94902  0.81916  0.14744  1.0000
  H   H282      1.0  0.90897  0.8535300000000002  0.09336  1.0000
  H   H283      1.0  0.9064500000000002  0.89957  0.03456  1.0000
  H   H284      1.0  0.03643  0.90767  0.03419  1.0000
  H   H285      1.0  0.07621  0.86904  0.08424  1.0000
  H   H286      1.0  0.0785  0.8254400000000002  0.14572  1.0000
  H   H287      1.0  0.02227  0.91625  0.96674  1.0000
  H   H288      1.0  0.94923  0.68126  0.35306  1.0000
  H   H289      1.0  0.90931  0.64612  0.4066  1.0000
  H   H290      1.0  0.90687  0.59995  0.46524  1.0000
  H   H291      1.0  0.03683  0.59203  0.4657  1.0000
  H   H292      1.0  0.07656000000000002  0.63064  0.41525  1.0000
  H   H293      1.0  0.07872  0.67482  0.35434  1.0000
  H   H294      1.0  0.02278  0.58297  0.53291  1.0000
  H   H295      1.0  0.55051  0.68124  0.14736000000000005  1.0000
  H   H296      1.0  0.5906300000000002  0.64587  0.09363  1.0000
  H   H297      1.0  0.59297  0.5997  0.03511  1.0000
  H   H298      1.0  0.46294  0.59263  0.03423  1.0000
  H   H299      1.0  0.4233000000000001  0.63128  0.08423  1.0000
  H   H300      1.0  0.42104  0.67534  0.14537  1.0000
  H   H301      1.0  0.477  0.58315  0.96691  1.0000
  H   H302      1.0  0.55037  0.82016  0.35151  1.0000
  H   H303      1.0  0.5905  0.85442  0.40569  1.0000
  H   H304      1.0  0.59303  0.89981  0.46482  1.0000
  H   H305      1.0  0.4630800000000001  0.90748  0.46578000000000014  1.0000
  H   H306      1.0  0.42326000000000014  0.86941  0.41524000000000005  1.0000
  H   H307      1.0  0.4208300000000001  0.82622  0.3535700000000001  1.0000
  H   H308      1.0  0.4773700000000001  0.91653  0.53305  1.0000
  H   H309      1.0  0.14745  0.94902  0.81916  1.0000
  H   H310      1.0  0.09337000000000002  0.90897  0.8535300000000002  1.0000
  H   H311      1.0  0.03457  0.9064500000000001  0.89957  1.0000
  H   H312      1.0  0.03419  0.03643  0.90767  1.0000
  H   H313      1.0  0.08424000000000002  0.07621  0.86904  1.0000
  H   H314      1.0  0.14572  0.0785  0.82544  1.0000
  H   H315      1.0  0.9667399999999999  0.02226  0.91625  1.0000
  H   H316      1.0  0.35306  0.94923  0.68126  1.0000
  H   H317      1.0  0.40660000000000013  0.90931  0.64612  1.0000
  H   H318      1.0  0.46525  0.9068700000000002  0.59995  1.0000
  H   H319      1.0  0.4657000000000001  0.03683  0.59203  1.0000
  H   H320      1.0  0.41525  0.07656  0.63064  1.0000
  H   H321      1.0  0.3543400000000001  0.07872  0.67482  1.0000
  H   H322      1.0  0.53291  0.02278  0.58297  1.0000
  H   H323      1.0  0.14736  0.55051  0.68124  1.0000
  H   H324      1.0  0.09363  0.5906300000000002  0.64587  1.0000
  H   H325      1.0  0.03512  0.59298  0.5997  1.0000
  H   H326      1.0  0.034230000000000003  0.46294  0.59263  1.0000
  H   H327      1.0  0.08423000000000003  0.4233  0.63128  1.0000
  H   H328      1.0  0.14537  0.42104000000000014  0.67534  1.0000
  H   H329      1.0  0.96691  0.477  0.58315  1.0000
  H   H330      1.0  0.35151  0.55037  0.82016  1.0000
  H   H331      1.0  0.40569  0.5905  0.85442  1.0000
  H   H332      1.0  0.4648200000000001  0.59303  0.89981  1.0000
  H   H333      1.0  0.46578000000000014  0.46308  0.90748  1.0000
  H   H334      1.0  0.41525  0.42326000000000014  0.86941  1.0000
  H   H335      1.0  0.3535700000000001  0.4208300000000001  0.82622  1.0000
  H   H336      1.0  0.53305  0.4773700000000001  0.91653  1.0000
  C   C1        1.0  0.20591  0.81314  0.9858699999999999  1.0000
  C   C2        1.0  0.18003000000000005  0.84993  0.98646  1.0000
  C   C3        1.0  0.16978  0.86674  0.023490000000000004  1.0000
  C   C4        1.0  0.14522000000000004  0.90157  0.02576  1.0000
  C   C5        1.0  0.13426  0.9194  0.06328  1.0000
  C   C6        1.0  0.10864  0.95215  0.06464000000000002  1.0000
  C   C7        1.0  0.09268  0.9693600000000001  0.02853  1.0000
  C   C8        1.0  0.10443  0.95334  0.9915000000000002  1.0000
  C   C9        1.0  0.1305  0.91944  0.9890800000000001  1.0000
  C   C10       1.0  0.14187000000000005  0.90185  0.9515  1.0000
  C   C11       1.0  0.16596000000000005  0.86792  0.95012  1.0000
  C   C12       1.0  0.06245  0.00218  0.0308  1.0000
  C   C13       1.0  0.061220000000000004  0.03292  0.00165  1.0000
  C   C14       1.0  0.29327  0.6865000000000002  0.9858800000000001  1.0000
  C   C15       1.0  0.3193700000000001  0.64979  0.9862800000000002  1.0000
  C   C16       1.0  0.32991  0.63297  0.02323  1.0000
  C   C17       1.0  0.35484  0.59839  0.0254  1.0000
  C   C18       1.0  0.36598000000000014  0.58064  0.0629  1.0000
  C   C19       1.0  0.3917100000000001  0.5479800000000002  0.06423  1.0000
  C   C20       1.0  0.40766  0.53083  0.028120000000000006  1.0000
  C   C21       1.0  0.39589000000000013  0.54685  0.9910800000000001  1.0000
  C   C22       1.0  0.3697  0.58068  0.9887  1.0000
  C   C23       1.0  0.3582  0.5983600000000002  0.9512  1.0000
  C   C24       1.0  0.33375  0.63206  0.94992  1.0000
  C   C25       1.0  0.43795  0.49808  0.03047  1.0000
  C   C26       1.0  0.43939  0.46739000000000014  0.0013  1.0000
  C   C27       1.0  0.2934  0.81329  0.51491  1.0000
  C   C28       1.0  0.31929  0.85014  0.51407  1.0000
  C   C29       1.0  0.32979  0.86681  0.47701  1.0000
  C   C30       1.0  0.35464  0.90148  0.4747300000000001  1.0000
  C   C31       1.0  0.3660600000000001  0.91914  0.43724  1.0000
  C   C32       1.0  0.39186000000000004  0.95176  0.43595  1.0000
  C   C33       1.0  0.40764000000000006  0.96907  0.4721  1.0000
  C   C34       1.0  0.39553  0.9532000000000003  0.50907  1.0000
  C   C35       1.0  0.3692900000000001  0.91941  0.51141  1.0000
  C   C36       1.0  0.3576900000000001  0.90198  0.54899  1.0000
  C   C37       1.0  0.33338  0.8682  0.55036  1.0000
  C   C38       1.0  0.43791  0.00188  0.46986  1.0000
  C   C39       1.0  0.4392100000000001  0.03272  0.49893  1.0000
  C   C40       1.0  0.20495000000000005  0.68793  0.51496  1.0000
  C   C41       1.0  0.17912  0.65109  0.5142  1.0000
  C   C42       1.0  0.16894  0.63425  0.47715  1.0000
  C   C43       1.0  0.14466  0.5992  0.47482  1.0000
  C   C44       1.0  0.13372  0.58136  0.4373000000000001  1.0000
  C   C45       1.0  0.10837  0.54841  0.43592  1.0000
  C   C46       1.0  0.09258  0.53098  0.4719800000000001  1.0000
  C   C47       1.0  0.10439000000000002  0.54696  0.50903  1.0000
  C   C48       1.0  0.13017  0.58109  0.51146  1.0000
  C   C49       1.0  0.14143000000000006  0.59873  0.5490500000000001  1.0000
  C   C50       1.0  0.16521  0.63288  0.5505  1.0000
  C   C51       1.0  0.062310000000000004  0.49819  0.4696  1.0000
  C   C52       1.0  0.061000000000000006  0.46738  0.49866000000000005  1.0000
  C   C53       1.0  0.98587  0.20591  0.8131400000000001  1.0000
  C   C54       1.0  0.98646  0.18003  0.84992  1.0000
  C   C55       1.0  0.023490000000000007  0.16978  0.86674  1.0000
  C   C56       1.0  0.02576  0.14522  0.90157  1.0000
  C   C57       1.0  0.06328  0.13426  0.9194  1.0000
  C   C58       1.0  0.06464  0.10864  0.95215  1.0000
  C   C59       1.0  0.028530000000000007  0.09268000000000003  0.9693600000000001  1.0000
  C   C60       1.0  0.9915  0.10443  0.95334  1.0000
  C   C61       1.0  0.98909  0.1305  0.9194400000000003  1.0000
  C   C62       1.0  0.9515000000000002  0.14187  0.90185  1.0000
  C   C63       1.0  0.95012  0.16596  0.8679100000000002  1.0000
  C   C64       1.0  0.030800000000000004  0.06245  0.00218  1.0000
  C   C65       1.0  0.0016500000000000004  0.06122  0.03292  1.0000
  C   C66       1.0  0.98588  0.29327  0.6865  1.0000
  C   C67       1.0  0.9862800000000002  0.31937  0.64979  1.0000
  C   C68       1.0  0.023230000000000008  0.32991  0.63297  1.0000
  C   C69       1.0  0.0254  0.35484  0.5983900000000002  1.0000
  C   C70       1.0  0.0629  0.36598  0.58064  1.0000
  C   C71       1.0  0.06423  0.39171  0.54798  1.0000
  C   C72       1.0  0.028120000000000006  0.40766000000000013  0.53083  1.0000
  C   C73       1.0  0.99108  0.39589  0.54685  1.0000
  C   C74       1.0  0.9887  0.3697  0.58068  1.0000
  C   C75       1.0  0.9512000000000003  0.35820000000000013  0.59836  1.0000
  C   C76       1.0  0.9499200000000002  0.3337500000000001  0.63206  1.0000
  C   C77       1.0  0.03047  0.43795  0.49808  1.0000
  C   C78       1.0  0.0013000000000000006  0.4393900000000001  0.46739  1.0000
  C   C79       1.0  0.51491  0.2934  0.81329  1.0000
  C   C80       1.0  0.51407  0.31929  0.85014  1.0000
  C   C81       1.0  0.47701  0.32979  0.86681  1.0000
  C   C82       1.0  0.4747300000000001  0.35464  0.90148  1.0000
  C   C83       1.0  0.43724  0.36606  0.9191400000000001  1.0000
  C   C84       1.0  0.43595  0.39186  0.95176  1.0000
  C   C85       1.0  0.4721  0.40764  0.9690699999999999  1.0000
  C   C86       1.0  0.50907  0.39553  0.9532  1.0000
  C   C87       1.0  0.51141  0.36929  0.91941  1.0000
  C   C88       1.0  0.54899  0.35769  0.90198  1.0000
  C   C89       1.0  0.55036  0.33338  0.8682  1.0000
  C   C90       1.0  0.4698600000000001  0.43791000000000013  0.0018800000000000002  1.0000
  C   C91       1.0  0.49893  0.43921000000000004  0.03272  1.0000
  C   C92       1.0  0.51496  0.20495  0.68793  1.0000
  C   C93       1.0  0.5142000000000002  0.17912  0.65109  1.0000
  C   C94       1.0  0.47715000000000013  0.16894  0.63425  1.0000
  C   C95       1.0  0.47482000000000013  0.14466000000000004  0.5992  1.0000
  C   C96       1.0  0.43730000000000013  0.13372  0.58136  1.0000
  C   C97       1.0  0.43592000000000003  0.10837  0.54841  1.0000
  C   C98       1.0  0.47198  0.09258  0.53098  1.0000
  C   C99       1.0  0.50903  0.10439  0.54696  1.0000
  C   C100      1.0  0.51146  0.13017  0.58109  1.0000
  C   C101      1.0  0.5490500000000003  0.14143  0.59873  1.0000
  C   C102      1.0  0.5505  0.16521  0.63288  1.0000
  C   C103      1.0  0.4696  0.06231  0.49818999999999997  1.0000
  C   C104      1.0  0.49866  0.061000000000000006  0.46738  1.0000
  C   C105      1.0  0.8131400000000002  0.9858700000000001  0.2059  1.0000
  C   C106      1.0  0.8499300000000002  0.98646  0.18003  1.0000
  C   C107      1.0  0.8667400000000002  0.023490000000000007  0.16978  1.0000
  C   C108      1.0  0.9015700000000002  0.02576000000000001  0.14522  1.0000
  C   C109      1.0  0.9194  0.06328000000000002  0.13426  1.0000
  C   C110      1.0  0.95215  0.06464  0.10864  1.0000
  C   C111      1.0  0.9693600000000001  0.02853  0.09267  1.0000
  C   C112      1.0  0.95334  0.9915  0.10443  1.0000
  C   C113      1.0  0.9194400000000003  0.98908  0.13049  1.0000
  C   C114      1.0  0.90185  0.9515  0.14187  1.0000
  C   C115      1.0  0.86792  0.9501200000000002  0.16596  1.0000
  C   C116      1.0  0.00218  0.030800000000000004  0.06244999999999999  1.0000
  C   C117      1.0  0.03292  0.0016500000000000004  0.061220000000000004  1.0000
  C   C118      1.0  0.6865  0.9858800000000001  0.29327  1.0000
  C   C119      1.0  0.64979  0.98628  0.31937  1.0000
  C   C120      1.0  0.63297  0.02323  0.32991  1.0000
  C   C121      1.0  0.59839  0.0254  0.3548400000000001  1.0000
  C   C122      1.0  0.5806400000000003  0.0629  0.36598  1.0000
  C   C123      1.0  0.54798  0.06423  0.3917000000000001  1.0000
  C   C124      1.0  0.5308300000000002  0.02812  0.40766  1.0000
  C   C125      1.0  0.54685  0.99108  0.39588  1.0000
  C   C126      1.0  0.5806800000000002  0.9886999999999999  0.3697  1.0000
  C   C127      1.0  0.59836  0.9512  0.3582  1.0000
  C   C128      1.0  0.63206  0.94992  0.33375  1.0000
  C   C129      1.0  0.49808  0.03047  0.43795  1.0000
  C   C130      1.0  0.46739000000000014  0.0013  0.43939  1.0000
  C   C131      1.0  0.8132900000000002  0.51491  0.2934  1.0000
  C   C132      1.0  0.8501400000000002  0.51407  0.31929  1.0000
  C   C133      1.0  0.8668100000000002  0.4770100000000001  0.32978  1.0000
  C   C134      1.0  0.9014800000000002  0.4747300000000001  0.35464  1.0000
  C   C135      1.0  0.91914  0.43724  0.36606  1.0000
  C   C136      1.0  0.95176  0.43595  0.39185  1.0000
  C   C137      1.0  0.9690700000000001  0.47210000000000013  0.40764  1.0000
  C   C138      1.0  0.9532000000000003  0.50907  0.39552  1.0000
  C   C139      1.0  0.91941  0.51141  0.36928  1.0000
  C   C140      1.0  0.90198  0.54899  0.35769  1.0000
  C   C141      1.0  0.8682000000000002  0.55036  0.33338  1.0000
  C   C142      1.0  0.00188  0.46986  0.43791  1.0000
  C   C143      1.0  0.03272  0.49893000000000004  0.43921  1.0000
  C   C144      1.0  0.68793  0.51496  0.20495  1.0000
  C   C145      1.0  0.65109  0.5142  0.17912  1.0000
  C   C146      1.0  0.63425  0.47715  0.16894  1.0000
  C   C147      1.0  0.5992000000000002  0.47482000000000013  0.14466  1.0000
  C   C148      1.0  0.58136  0.4373  0.13371  1.0000
  C   C149      1.0  0.54841  0.43592  0.10837  1.0000
  C   C150      1.0  0.5309800000000002  0.4719800000000001  0.09258  1.0000
  C   C151      1.0  0.54696  0.50903  0.10439  1.0000
  C   C152      1.0  0.58109  0.51146  0.13017  1.0000
  C   C153      1.0  0.59873  0.54905  0.14143  1.0000
  C   C154      1.0  0.63288  0.5505  0.16521  1.0000
  C   C155      1.0  0.4981900000000001  0.4696  0.06231  1.0000
  C   C156      1.0  0.46738000000000013  0.49866000000000005  0.061  1.0000
  C   C157      1.0  0.18702  0.7942100000000001  0.48506999999999995  1.0000
  C   C158      1.0  0.15008  0.81989  0.48573000000000005  1.0000
  C   C159      1.0  0.1334  0.83023  0.52281  1.0000
  C   C160      1.0  0.09857000000000003  0.85478  0.52519  1.0000
  C   C161      1.0  0.08090000000000003  0.86601  0.56271  1.0000
  C   C162      1.0  0.0482  0.89166  0.56402  1.0000
  C   C163      1.0  0.030880000000000005  0.90749  0.52794  1.0000
  C   C164      1.0  0.04676  0.89552  0.49093  1.0000
  C   C165      1.0  0.08057  0.86935  0.48853  1.0000
  C   C166      1.0  0.09793000000000003  0.85779  0.45091  1.0000
  C   C167      1.0  0.13187000000000004  0.83371  0.4494  1.0000
  C   C168      1.0  0.99805  0.93769  0.53032  1.0000
  C   C169      1.0  0.96727  0.93896  0.50123  1.0000
  C   C170      1.0  0.31297  0.70652  0.48667000000000005  1.0000
  C   C171      1.0  0.34963  0.68041  0.48730000000000007  1.0000
  C   C172      1.0  0.36634  0.66974  0.52426  1.0000
  C   C173      1.0  0.4009200000000001  0.64479  0.52638  1.0000
  C   C174      1.0  0.41857  0.63332  0.56383  1.0000
  C   C175      1.0  0.45123  0.60758  0.56506  1.0000
  C   C176      1.0  0.46855  0.59194  0.52888  1.0000
  C   C177      1.0  0.4525100000000001  0.6039500000000002  0.49193000000000003  1.0000
  C   C178      1.0  0.4187  0.63015  0.48964  1.0000
  C   C179      1.0  0.4012  0.64189  0.45213  1.0000
  C   C180      1.0  0.36753000000000013  0.66636  0.4509  1.0000
  C   C181      1.0  0.50161  0.56192  0.53086  1.0000
  C   C182      1.0  0.53218  0.56108  0.5015  1.0000
  C   C183      1.0  0.18672000000000005  0.70641  0.01421  1.0000
  C   C184      1.0  0.14984  0.6805200000000001  0.0136  1.0000
  C   C185      1.0  0.1329  0.67026  0.9765900000000001  1.0000
  C   C186      1.0  0.09817000000000002  0.6454800000000003  0.97433  1.0000
  C   C187      1.0  0.08037  0.63436  0.93684  1.0000
  C   C188      1.0  0.047730000000000015  0.60861  0.93548  1.0000
  C   C189      1.0  0.03053  0.59264  0.9715700000000002  1.0000
  C   C190      1.0  0.04659000000000001  0.60439  0.00859  1.0000
  C   C191      1.0  0.08044  0.6305600000000002  0.01098  1.0000
  C   C192      1.0  0.09814000000000003  0.64192  0.04851  1.0000
  C   C193      1.0  0.13197  0.66619  0.04991  1.0000
  C   C194      1.0  0.99776  0.56234  0.9692900000000001  1.0000
  C   C195      1.0  0.9671500000000001  0.5608200000000001  0.99857  1.0000
  C   C196      1.0  0.31328  0.79408  0.014300000000000004  1.0000
  C   C197      1.0  0.35003  0.8200300000000003  0.01385  1.0000
  C   C198      1.0  0.3667700000000001  0.8304  0.9768400000000002  1.0000
  C   C199      1.0  0.4015  0.8550700000000002  0.9745500000000001  1.0000
  C   C200      1.0  0.4191200000000001  0.8661  0.93697  1.0000
  C   C201      1.0  0.4519  0.89162  0.93553  1.0000
  C   C202      1.0  0.46924  0.90746  0.9716000000000001  1.0000
  C   C203      1.0  0.4533000000000001  0.89583  0.00869  1.0000
  C   C204      1.0  0.41939  0.8698  0.0112  1.0000
  C   C205      1.0  0.40182000000000007  0.85841  0.04877  1.0000
  C   C206      1.0  0.36799  0.83415  0.0502  1.0000
  C   C207      1.0  0.50206  0.9376200000000001  0.9692400000000001  1.0000
  C   C208      1.0  0.53294  0.93874  0.99822  1.0000
  C   C209      1.0  0.79408  0.0143  0.31328  1.0000
  C   C210      1.0  0.8200300000000003  0.01385  0.35002  1.0000
  C   C211      1.0  0.8304  0.97684  0.36677  1.0000
  C   C212      1.0  0.8550700000000002  0.97455  0.40150000000000013  1.0000
  C   C213      1.0  0.8661  0.93697  0.41911  1.0000
  C   C214      1.0  0.8916200000000002  0.9355300000000002  0.4519  1.0000
  C   C215      1.0  0.90745  0.9716000000000001  0.46924  1.0000
  C   C216      1.0  0.89583  0.00869  0.4533000000000001  1.0000
  C   C217      1.0  0.8698000000000002  0.0112  0.41939  1.0000
  C   C218      1.0  0.8584100000000002  0.04877  0.40182  1.0000
  C   C219      1.0  0.83415  0.0502  0.36799  1.0000
  C   C220      1.0  0.93762  0.96924  0.50206  1.0000
  C   C221      1.0  0.93874  0.99822  0.53294  1.0000
  C   C222      1.0  0.70641  0.01421  0.18672  1.0000
  C   C223      1.0  0.6805200000000002  0.0136  0.14984  1.0000
  C   C224      1.0  0.67026  0.9765899999999998  0.1329  1.0000
  C   C225      1.0  0.6454800000000003  0.97433  0.09817  1.0000
  C   C226      1.0  0.63436  0.93684  0.08037  1.0000
  C   C227      1.0  0.60861  0.93548  0.04773  1.0000
  C   C228      1.0  0.59264  0.9715700000000002  0.030530000000000005  1.0000
  C   C229      1.0  0.60439  0.00859  0.04659  1.0000
  C   C230      1.0  0.6305600000000002  0.01099  0.08044  1.0000
  C   C231      1.0  0.64192  0.04851  0.09814  1.0000
  C   C232      1.0  0.66619  0.04991  0.13197  1.0000
  C   C233      1.0  0.5623400000000002  0.9693000000000002  0.99776  1.0000
  C   C234      1.0  0.5608300000000003  0.9985700000000001  0.9671500000000001  1.0000
  C   C235      1.0  0.70652  0.48667  0.31297  1.0000
  C   C236      1.0  0.6804100000000002  0.4873  0.34963  1.0000
  C   C237      1.0  0.66974  0.52426  0.36634  1.0000
  C   C238      1.0  0.64479  0.52638  0.40092  1.0000
  C   C239      1.0  0.63332  0.56383  0.41857  1.0000
  C   C240      1.0  0.60758  0.56507  0.45123  1.0000
  C   C241      1.0  0.59194  0.52888  0.46855  1.0000
  C   C242      1.0  0.6039500000000002  0.49193000000000003  0.45251  1.0000
  C   C243      1.0  0.63015  0.4896400000000001  0.4187  1.0000
  C   C244      1.0  0.64189  0.45213  0.4012  1.0000
  C   C245      1.0  0.66636  0.4509  0.36753  1.0000
  C   C246      1.0  0.56192  0.53086  0.5016  1.0000
  C   C247      1.0  0.56108  0.5015  0.53218  1.0000
  C   C248      1.0  0.79421  0.48508000000000007  0.18701  1.0000
  C   C249      1.0  0.8198900000000002  0.48573000000000005  0.15007  1.0000
  C   C250      1.0  0.8302300000000001  0.52281  0.1334  1.0000
  C   C251      1.0  0.8547800000000002  0.52519  0.09856000000000002  1.0000
  C   C252      1.0  0.86601  0.56271  0.0809  1.0000
  C   C253      1.0  0.8916600000000002  0.5640200000000002  0.0482  1.0000
  C   C254      1.0  0.90749  0.52794  0.030880000000000005  1.0000
  C   C255      1.0  0.89552  0.49093000000000003  0.04676000000000001  1.0000
  C   C256      1.0  0.86935  0.48853  0.08057  1.0000
  C   C257      1.0  0.85778  0.45091  0.09793  1.0000
  C   C258      1.0  0.83371  0.4494  0.13187  1.0000
  C   C259      1.0  0.93769  0.53032  0.99805  1.0000
  C   C260      1.0  0.93896  0.50123  0.96727  1.0000
  C   C261      1.0  0.01421  0.18672  0.70641  1.0000
  C   C262      1.0  0.0136  0.14984000000000006  0.68052  1.0000
  C   C263      1.0  0.9765900000000001  0.1329  0.67026  1.0000
  C   C264      1.0  0.97433  0.09817000000000001  0.64548  1.0000
  C   C265      1.0  0.93684  0.08037  0.63436  1.0000
  C   C266      1.0  0.93548  0.04773  0.60861  1.0000
  C   C267      1.0  0.97157  0.030530000000000005  0.59264  1.0000
  C   C268      1.0  0.00859  0.04659  0.60439  1.0000
  C   C269      1.0  0.010990000000000002  0.08044000000000001  0.63056  1.0000
  C   C270      1.0  0.04851  0.09814  0.64192  1.0000
  C   C271      1.0  0.04991000000000002  0.13197  0.6661900000000002  1.0000
  C   C272      1.0  0.9693000000000002  0.99776  0.56233  1.0000
  C   C273      1.0  0.99857  0.9671500000000001  0.5608200000000001  1.0000
  C   C274      1.0  0.0143  0.31329  0.79409  1.0000
  C   C275      1.0  0.013850000000000003  0.3500300000000001  0.82003  1.0000
  C   C276      1.0  0.9768400000000002  0.36677  0.8304  1.0000
  C   C277      1.0  0.9745500000000001  0.4015  0.85507  1.0000
  C   C278      1.0  0.93697  0.41912  0.8661  1.0000
  C   C279      1.0  0.93553  0.4519  0.89162  1.0000
  C   C280      1.0  0.9716  0.46924  0.90745  1.0000
  C   C281      1.0  0.0087  0.4533000000000001  0.89583  1.0000
  C   C282      1.0  0.011200000000000003  0.41939  0.8698  1.0000
  C   C283      1.0  0.048770000000000015  0.40182  0.85841  1.0000
  C   C284      1.0  0.050200000000000015  0.36799  0.83415  1.0000
  C   C285      1.0  0.96924  0.50206  0.9376200000000002  1.0000
  C   C286      1.0  0.99822  0.5329400000000002  0.9387400000000002  1.0000
  C   C287      1.0  0.48508000000000007  0.18702  0.79421  1.0000
  C   C288      1.0  0.48573  0.15008  0.81989  1.0000
  C   C289      1.0  0.52281  0.1334  0.83023  1.0000
  C   C290      1.0  0.52519  0.09857000000000003  0.85478  1.0000
  C   C291      1.0  0.56271  0.0809  0.86601  1.0000
  C   C292      1.0  0.5640200000000002  0.0482  0.8916600000000002  1.0000
  C   C293      1.0  0.52795  0.030880000000000005  0.90749  1.0000
  C   C294      1.0  0.49094  0.04676  0.89552  1.0000
  C   C295      1.0  0.48853  0.08057  0.86935  1.0000
  C   C296      1.0  0.45091  0.09793  0.85778  1.0000
  C   C297      1.0  0.44941  0.13187  0.83371  1.0000
  C   C298      1.0  0.53032  0.9980500000000001  0.9376900000000002  1.0000
  C   C299      1.0  0.50123  0.96727  0.93896  1.0000
  C   C300      1.0  0.48666999999999994  0.3129700000000001  0.70652  1.0000
  C   C301      1.0  0.48730000000000007  0.34963  0.68041  1.0000
  C   C302      1.0  0.5242600000000002  0.3663400000000001  0.66974  1.0000
  C   C303      1.0  0.52638  0.40092  0.64479  1.0000
  C   C304      1.0  0.56383  0.41857  0.63332  1.0000
  C   C305      1.0  0.56507  0.45123000000000013  0.60758  1.0000
  C   C306      1.0  0.52888  0.46855000000000013  0.59194  1.0000
  C   C307      1.0  0.49193  0.45251  0.60395  1.0000
  C   C308      1.0  0.48964  0.4187000000000001  0.63015  1.0000
  C   C309      1.0  0.45213  0.4012  0.64189  1.0000
  C   C310      1.0  0.4509  0.36753  0.66636  1.0000
  C   C311      1.0  0.5308600000000002  0.50161  0.56192  1.0000
  C   C312      1.0  0.5015  0.53218  0.56108  1.0000
  C   C313      1.0  0.81299  0.20580000000000007  0.51492  1.0000
  C   C314      1.0  0.8499300000000002  0.18012000000000003  0.51427  1.0000
  C   C315      1.0  0.8666000000000003  0.16977  0.47719  1.0000
  C   C316      1.0  0.9014400000000002  0.14522  0.47481  1.0000
  C   C317      1.0  0.9191  0.134  0.43729  1.0000
  C   C318      1.0  0.9518  0.10834  0.43598  1.0000
  C   C319      1.0  0.9691200000000001  0.09251000000000002  0.47206  1.0000
  C   C320      1.0  0.9532500000000002  0.10448  0.50907  1.0000
  C   C321      1.0  0.9194400000000003  0.13065  0.51147  1.0000
  C   C322      1.0  0.90208  0.14222  0.54909  1.0000
  C   C323      1.0  0.8681400000000002  0.1663  0.5506  1.0000
  C   C324      1.0  0.0019500000000000001  0.06231  0.46968  1.0000
  C   C325      1.0  0.03273  0.06104  0.49877000000000005  1.0000
  C   C326      1.0  0.6870400000000002  0.29348  0.51333  1.0000
  C   C327      1.0  0.6503800000000002  0.31960000000000005  0.5127  1.0000
  C   C328      1.0  0.63366  0.33026  0.47574  1.0000
  C   C329      1.0  0.5990800000000002  0.35522  0.47362  1.0000
  C   C330      1.0  0.58143  0.36669  0.43617  1.0000
  C   C331      1.0  0.54877  0.39243  0.43494  1.0000
  C   C332      1.0  0.53145  0.40806  0.47112  1.0000
  C   C333      1.0  0.5475000000000002  0.39605  0.50807  1.0000
  C   C334      1.0  0.58131  0.36985  0.51037  1.0000
  C   C335      1.0  0.59881  0.3581100000000001  0.54787  1.0000
  C   C336      1.0  0.63248  0.33364  0.5491  1.0000
  C   C337      1.0  0.49840000000000007  0.4380900000000001  0.46915  1.0000
  C   C338      1.0  0.46783  0.4389200000000001  0.49851  1.0000
  C   C339      1.0  0.8132800000000002  0.29359  0.98579  1.0000
  C   C340      1.0  0.8501700000000002  0.31948  0.9864000000000002  1.0000
  C   C341      1.0  0.8671  0.32974  0.02341  1.0000
  C   C342      1.0  0.90183  0.35452  0.02567  1.0000
  C   C343      1.0  0.9196300000000002  0.36564  0.06316000000000001  1.0000
  C   C344      1.0  0.95227  0.39139  0.06452  1.0000
  C   C345      1.0  0.96948  0.40736  0.02843  1.0000
  C   C346      1.0  0.95342  0.39562  0.9914100000000001  1.0000
  C   C347      1.0  0.9195700000000002  0.36944  0.9890199999999999  1.0000
  C   C348      1.0  0.90186  0.35809  0.9514900000000001  1.0000
  C   C349      1.0  0.8680400000000003  0.3338100000000001  0.9500900000000002  1.0000
  C   C350      1.0  0.00224  0.43767  0.03071  1.0000
  C   C351      1.0  0.03285  0.43918  0.00143  1.0000
  C   C352      1.0  0.68672  0.20592  0.9857  1.0000
  C   C353      1.0  0.64998  0.17998  0.98615  1.0000
  C   C354      1.0  0.63323  0.1696  0.02316  1.0000
  C   C355      1.0  0.5985  0.14493  0.02545  1.0000
  C   C356      1.0  0.5808900000000001  0.13390000000000002  0.06303  1.0000
  C   C357      1.0  0.5481  0.10838  0.06448  1.0000
  C   C358      1.0  0.5307600000000002  0.09255  0.0284  1.0000
  C   C359      1.0  0.5467  0.10417  0.9913100000000001  1.0000
  C   C360      1.0  0.5806200000000002  0.1302  0.9888  1.0000
  C   C361      1.0  0.59818  0.1416  0.95123  1.0000
  C   C362      1.0  0.63201  0.16585  0.9498  1.0000
  C   C363      1.0  0.49794  0.062380000000000005  0.030769999999999995  1.0000
  C   C364      1.0  0.46706  0.061270000000000005  0.00178  1.0000
  C   C365      1.0  0.20592  0.9857  0.68672  1.0000
  C   C366      1.0  0.17998  0.98616  0.64998  1.0000
  C   C367      1.0  0.1696  0.02316  0.63323  1.0000
  C   C368      1.0  0.14494  0.02545  0.5985  1.0000
  C   C369      1.0  0.1339  0.06303  0.58089  1.0000
  C   C370      1.0  0.10838  0.06448  0.5481  1.0000
  C   C371      1.0  0.09255000000000002  0.02840000000000001  0.53076  1.0000
  C   C372      1.0  0.10417000000000003  0.99131  0.5467  1.0000
  C   C373      1.0  0.13020000000000007  0.9888  0.58062  1.0000
  C   C374      1.0  0.1416  0.95123  0.5981800000000003  1.0000
  C   C375      1.0  0.16586  0.9498  0.63201  1.0000
  C   C376      1.0  0.062380000000000005  0.030770000000000002  0.49794  1.0000
  C   C377      1.0  0.061270000000000005  0.00178  0.46706  1.0000
  C   C378      1.0  0.29359  0.9857900000000002  0.8132800000000001  1.0000
  C   C379      1.0  0.3194900000000001  0.9864  0.85017  1.0000
  C   C380      1.0  0.32974  0.02341  0.86711  1.0000
  C   C381      1.0  0.35452  0.02567  0.90183  1.0000
  C   C382      1.0  0.36565  0.06316  0.91963  1.0000
  C   C383      1.0  0.39139  0.06452  0.95227  1.0000
  C   C384      1.0  0.40737  0.02843  0.9694800000000001  1.0000
  C   C385      1.0  0.39562  0.9914100000000001  0.95341  1.0000
  C   C386      1.0  0.36944  0.98902  0.91956  1.0000
  C   C387      1.0  0.35809  0.95149  0.90186  1.0000
  C   C388      1.0  0.33381  0.9500900000000002  0.86804  1.0000
  C   C389      1.0  0.43767  0.03071  0.00224  1.0000
  C   C390      1.0  0.4391800000000001  0.00143  0.03285  1.0000
  C   C391      1.0  0.29348  0.51333  0.68704  1.0000
  C   C392      1.0  0.3196  0.5127  0.65038  1.0000
  C   C393      1.0  0.3302600000000001  0.4757400000000001  0.63366  1.0000
  C   C394      1.0  0.3552200000000001  0.47362  0.59908  1.0000
  C   C395      1.0  0.3666900000000001  0.43617  0.58143  1.0000
  C   C396      1.0  0.39243  0.43494  0.5487700000000002  1.0000
  C   C397      1.0  0.40806  0.4711200000000001  0.53145  1.0000
  C   C398      1.0  0.39605  0.50807  0.5475  1.0000
  C   C399      1.0  0.36985  0.51037  0.58131  1.0000
  C   C400      1.0  0.35811  0.54787  0.5988100000000002  1.0000
  C   C401      1.0  0.3336400000000001  0.5491000000000001  0.63248  1.0000
  C   C402      1.0  0.43809  0.46915  0.4984  1.0000
  C   C403      1.0  0.43892  0.49851000000000006  0.46783  1.0000
  C   C404      1.0  0.20580000000000007  0.51492  0.81299  1.0000
  C   C405      1.0  0.18012000000000006  0.51427  0.84993  1.0000
  C   C406      1.0  0.16977  0.4771900000000001  0.8666  1.0000
  C   C407      1.0  0.14522000000000004  0.47481  0.90144  1.0000
  C   C408      1.0  0.13400000000000004  0.4372900000000001  0.9191  1.0000
  C   C409      1.0  0.10834000000000003  0.43598  0.9518  1.0000
  C   C410      1.0  0.09251000000000002  0.47206  0.9691200000000001  1.0000
  C   C411      1.0  0.10448  0.50907  0.95325  1.0000
  C   C412      1.0  0.13065000000000004  0.51147  0.9194400000000003  1.0000
  C   C413      1.0  0.14222  0.54909  0.90208  1.0000
  C   C414      1.0  0.1663  0.5506  0.86814  1.0000
  C   C415      1.0  0.062310000000000004  0.46968  0.0019500000000000001  1.0000
  C   C416      1.0  0.06104  0.49877000000000005  0.03273  1.0000
  C   C417      1.0  0.9857900000000002  0.81328  0.2935900000000001  1.0000
  C   C418      1.0  0.9864  0.85017  0.31948  1.0000
  C   C419      1.0  0.02341  0.86711  0.32974  1.0000
  C   C420      1.0  0.02567  0.90183  0.35452  1.0000
  C   C421      1.0  0.06316  0.91963  0.36564  1.0000
  C   C422      1.0  0.06453  0.95228  0.39139  1.0000
  C   C423      1.0  0.028430000000000007  0.96948  0.40736  1.0000
  C   C424      1.0  0.99141  0.95342  0.39562  1.0000
  C   C425      1.0  0.9890200000000001  0.91956  0.36944  1.0000
  C   C426      1.0  0.9514900000000002  0.90186  0.35809  1.0000
  C   C427      1.0  0.95009  0.86804  0.33381  1.0000
  C   C428      1.0  0.030710000000000005  0.00224  0.43767  1.0000
  C   C429      1.0  0.0014300000000000003  0.03285000000000001  0.43918  1.0000
  C   C430      1.0  0.9857000000000001  0.68672  0.20592  1.0000
  C   C431      1.0  0.9861500000000001  0.6499800000000002  0.17998  1.0000
  C   C432      1.0  0.02316  0.63323  0.1696  1.0000
  C   C433      1.0  0.02545  0.5985  0.14493  1.0000
  C   C434      1.0  0.06303000000000003  0.58089  0.1339  1.0000
  C   C435      1.0  0.06448000000000002  0.5481000000000003  0.10838  1.0000
  C   C436      1.0  0.0284  0.53076  0.09255000000000001  1.0000
  C   C437      1.0  0.99131  0.5467  0.10417  1.0000
  C   C438      1.0  0.9888  0.58062  0.1302  1.0000
  C   C439      1.0  0.9512300000000002  0.5981800000000003  0.1416  1.0000
  C   C440      1.0  0.9498000000000002  0.6320100000000002  0.16585  1.0000
  C   C441      1.0  0.030770000000000006  0.49794  0.06238  1.0000
  C   C442      1.0  0.0017800000000000003  0.46706  0.06127  1.0000
  C   C443      1.0  0.51492  0.81299  0.20579000000000006  1.0000
  C   C444      1.0  0.5142700000000002  0.84993  0.18011  1.0000
  C   C445      1.0  0.4771900000000001  0.8666  0.16977  1.0000
  C   C446      1.0  0.4748100000000001  0.90144  0.14522  1.0000
  C   C447      1.0  0.4372900000000001  0.9191000000000003  0.134  1.0000
  C   C448      1.0  0.43598  0.9518  0.10834000000000003  1.0000
  C   C449      1.0  0.47206  0.9691200000000001  0.09251  1.0000
  C   C450      1.0  0.50907  0.95325  0.10448000000000003  1.0000
  C   C451      1.0  0.51147  0.91944  0.13065  1.0000
  C   C452      1.0  0.5490900000000002  0.90208  0.14222  1.0000
  C   C453      1.0  0.5506  0.86814  0.16629  1.0000
  C   C454      1.0  0.46968  0.0019500000000000001  0.06231  1.0000
  C   C455      1.0  0.49877000000000005  0.03273  0.06104  1.0000
  C   C456      1.0  0.51333  0.6870400000000002  0.29348  1.0000
  C   C457      1.0  0.5127000000000003  0.65038  0.3196000000000001  1.0000
  C   C458      1.0  0.4757400000000001  0.63366  0.33026  1.0000
  C   C459      1.0  0.47362  0.59908  0.35522  1.0000
  C   C460      1.0  0.43617  0.58143  0.3666800000000001  1.0000
  C   C461      1.0  0.4349400000000001  0.54877  0.39243  1.0000
  C   C462      1.0  0.47113  0.53145  0.40806  1.0000
  C   C463      1.0  0.50807  0.5475000000000001  0.39605  1.0000
  C   C464      1.0  0.51037  0.58131  0.36985000000000007  1.0000
  C   C465      1.0  0.54787  0.59881  0.35811  1.0000
  C   C466      1.0  0.5491000000000003  0.63248  0.33364  1.0000
  C   C467      1.0  0.46915000000000007  0.49840000000000007  0.43809  1.0000
  C   C468      1.0  0.49851  0.46783  0.43892000000000003  1.0000
  C   C469      1.0  0.7941  0.18686  0.01413  1.0000
  C   C470      1.0  0.8199700000000002  0.15008  0.01355  1.0000
  C   C471      1.0  0.8302200000000002  0.13327  0.97652  1.0000
  C   C472      1.0  0.8547800000000002  0.09843000000000003  0.9742399999999999  1.0000
  C   C473      1.0  0.86574  0.0806  0.93672  1.0000
  C   C474      1.0  0.8913600000000003  0.04786  0.9353600000000002  1.0000
  C   C475      1.0  0.90733  0.030650000000000004  0.97147  1.0000
  C   C476      1.0  0.89557  0.04666  0.0085  1.0000
  C   C477      1.0  0.86951  0.08057  0.01092  1.0000
  C   C478      1.0  0.8581300000000002  0.09815  0.0485  1.0000
  C   C479      1.0  0.83405  0.13209  0.04988  1.0000
  C   C480      1.0  0.93755  0.9978199999999999  0.9692000000000001  1.0000
  C   C481      1.0  0.93878  0.9670900000000001  0.9983500000000001  1.0000
  C   C482      1.0  0.70673  0.31351  0.01412  1.0000
  C   C483      1.0  0.6806400000000001  0.35021000000000013  0.01372  1.0000
  C   C484      1.0  0.6701  0.36703  0.97678  1.0000
  C   C485      1.0  0.64516  0.4016200000000001  0.9746000000000001  1.0000
  C   C486      1.0  0.6340200000000003  0.41936  0.9371  1.0000
  C   C487      1.0  0.6083  0.45202  0.93577  1.0000
  C   C488      1.0  0.5923500000000003  0.46918  0.97189  1.0000
  C   C489      1.0  0.6041200000000002  0.45316  0.00892  1.0000
  C   C490      1.0  0.63031  0.4193200000000001  0.0113  1.0000
  C   C491      1.0  0.6418  0.40164  0.0488  1.0000
  C   C492      1.0  0.66625  0.36795  0.05008  1.0000
  C   C493      1.0  0.56205  0.50193  0.96953  1.0000
  C   C494      1.0  0.56062  0.53262  0.99871  1.0000
  C   C495      1.0  0.7066  0.18672  0.48509  1.0000
  C   C496      1.0  0.68071  0.14986  0.48594  1.0000
  C   C497      1.0  0.67022  0.1332  0.52299  1.0000
  C   C498      1.0  0.6453700000000002  0.09852  0.52528  1.0000
  C   C499      1.0  0.6339400000000002  0.08087000000000003  0.56276  1.0000
  C   C500      1.0  0.60815  0.04824  0.56405  1.0000
  C   C501      1.0  0.5923600000000002  0.030929999999999996  0.5279  1.0000
  C   C502      1.0  0.60448  0.0468  0.49093  1.0000
  C   C503      1.0  0.6307200000000002  0.08059  0.48859  1.0000
  C   C504      1.0  0.6423200000000002  0.09802  0.45101  1.0000
  C   C505      1.0  0.66662  0.13181  0.44964  1.0000
  C   C506      1.0  0.56209  0.99812  0.53014  1.0000
  C   C507      1.0  0.5607900000000002  0.9672800000000001  0.50107  1.0000
  C   C508      1.0  0.7950500000000003  0.31207  0.48505000000000004  1.0000
  C   C509      1.0  0.82088  0.34891  0.4858100000000001  1.0000
  C   C510      1.0  0.83107  0.36575000000000013  0.52285  1.0000
  C   C511      1.0  0.85534  0.4008  0.52518  1.0000
  C   C512      1.0  0.8662900000000002  0.4186400000000001  0.5627  1.0000
  C   C513      1.0  0.8916300000000003  0.4516  0.56408  1.0000
  C   C514      1.0  0.90742  0.4690200000000001  0.52802  1.0000
  C   C515      1.0  0.89561  0.45304  0.49097999999999997  1.0000
  C   C516      1.0  0.8698300000000002  0.4189100000000001  0.48854  1.0000
  C   C517      1.0  0.85857  0.4012700000000001  0.45095  1.0000
  C   C518      1.0  0.8347900000000003  0.36712  0.44951  1.0000
  C   C519      1.0  0.93769  0.50181  0.5304  1.0000
  C   C520      1.0  0.93901  0.53262  0.50134  1.0000
  C   C521      1.0  0.01413  0.7941  0.18686  1.0000
  C   C522      1.0  0.01355  0.8199700000000002  0.15008  1.0000
  C   C523      1.0  0.9765200000000002  0.83022  0.13326  1.0000
  C   C524      1.0  0.97424  0.85478  0.09843  1.0000
  C   C525      1.0  0.93672  0.86574  0.0806  1.0000
  C   C526      1.0  0.93536  0.89136  0.04785  1.0000
  C   C527      1.0  0.97147  0.90733  0.03064  1.0000
  C   C528      1.0  0.008500000000000004  0.8955700000000002  0.04666  1.0000
  C   C529      1.0  0.010920000000000003  0.86951  0.08057  1.0000
  C   C530      1.0  0.0485  0.85813  0.09815  1.0000
  C   C531      1.0  0.04988  0.8340500000000001  0.13209  1.0000
  C   C532      1.0  0.9692  0.93755  0.9978200000000002  1.0000
  C   C533      1.0  0.9983499999999998  0.93878  0.96708  1.0000
  C   C534      1.0  0.01412  0.70673  0.31351  1.0000
  C   C535      1.0  0.013720000000000003  0.6806400000000002  0.35021  1.0000
  C   C536      1.0  0.97678  0.6701  0.36703  1.0000
  C   C537      1.0  0.9746000000000001  0.64516  0.40162  1.0000
  C   C538      1.0  0.9371  0.63402  0.41936  1.0000
  C   C539      1.0  0.93577  0.6083000000000002  0.45202  1.0000
  C   C540      1.0  0.9718900000000001  0.5923500000000003  0.46918  1.0000
  C   C541      1.0  0.008920000000000004  0.60412  0.4531600000000001  1.0000
  C   C542      1.0  0.0113  0.63031  0.41932  1.0000
  C   C543      1.0  0.04881  0.6418  0.4016400000000001  1.0000
  C   C544      1.0  0.05009  0.66625  0.3679500000000001  1.0000
  C   C545      1.0  0.96953  0.56205  0.50192  1.0000
  C   C546      1.0  0.99871  0.56062  0.53262  1.0000
  C   C547      1.0  0.48509  0.7066  0.18671  1.0000
  C   C548      1.0  0.48594  0.68071  0.14986000000000002  1.0000
  C   C549      1.0  0.52299  0.6702200000000001  0.1332  1.0000
  C   C550      1.0  0.52528  0.64537  0.09852  1.0000
  C   C551      1.0  0.56276  0.63394  0.08086  1.0000
  C   C552      1.0  0.5640500000000003  0.6081500000000002  0.04824000000000001  1.0000
  C   C553      1.0  0.5279  0.59236  0.03093  1.0000
  C   C554      1.0  0.49093000000000003  0.60448  0.0468  1.0000
  C   C555      1.0  0.4885900000000001  0.63072  0.08059  1.0000
  C   C556      1.0  0.45101  0.6423100000000003  0.09802  1.0000
  C   C557      1.0  0.44964  0.66662  0.13181  1.0000
  C   C558      1.0  0.53014  0.56209  0.99812  1.0000
  C   C559      1.0  0.5010800000000002  0.5607900000000001  0.9672800000000001  1.0000
  C   C560      1.0  0.48505  0.7950500000000003  0.31207  1.0000
  C   C561      1.0  0.48581  0.8208800000000002  0.34891  1.0000
  C   C562      1.0  0.52285  0.83107  0.36575  1.0000
  C   C563      1.0  0.52518  0.8553400000000002  0.4008  1.0000
  C   C564      1.0  0.5627  0.86629  0.41864  1.0000
  C   C565      1.0  0.5640800000000002  0.89163  0.4516  1.0000
  C   C566      1.0  0.52802  0.90742  0.4690200000000001  1.0000
  C   C567      1.0  0.49098  0.89561  0.45304  1.0000
  C   C568      1.0  0.48854  0.86983  0.4189100000000001  1.0000
  C   C569      1.0  0.45095  0.8585700000000003  0.40127  1.0000
  C   C570      1.0  0.44951  0.83479  0.36712  1.0000
  C   C571      1.0  0.5304  0.93769  0.50181  1.0000
  C   C572      1.0  0.50134  0.9390100000000001  0.53262  1.0000
  C   C573      1.0  0.18686  0.01413  0.7941  1.0000
  C   C574      1.0  0.15008  0.01355  0.81997  1.0000
  C   C575      1.0  0.13327  0.97652  0.83022  1.0000
  C   C576      1.0  0.09843  0.9742400000000001  0.85478  1.0000
  C   C577      1.0  0.0806  0.93672  0.86574  1.0000
  C   C578      1.0  0.04786  0.93536  0.89136  1.0000
  C   C579      1.0  0.030650000000000004  0.9714700000000001  0.90733  1.0000
  C   C580      1.0  0.04667000000000002  0.0085  0.89557  1.0000
  C   C581      1.0  0.08057  0.010920000000000003  0.86951  1.0000
  C   C582      1.0  0.09815000000000003  0.0485  0.85813  1.0000
  C   C583      1.0  0.13209  0.04988  0.83405  1.0000
  C   C584      1.0  0.9978200000000002  0.9692000000000001  0.9375500000000002  1.0000
  C   C585      1.0  0.9670900000000001  0.9983500000000001  0.93878  1.0000
  C   C586      1.0  0.31351  0.01412  0.70673  1.0000
  C   C587      1.0  0.3502100000000002  0.01372  0.6806400000000002  1.0000
  C   C588      1.0  0.36703  0.9767800000000001  0.6701  1.0000
  C   C589      1.0  0.4016200000000001  0.97461  0.64516  1.0000
  C   C590      1.0  0.41936  0.9371000000000003  0.63402  1.0000
  C   C591      1.0  0.45202  0.93577  0.6083  1.0000
  C   C592      1.0  0.46918000000000004  0.9718900000000001  0.59235  1.0000
  C   C593      1.0  0.4531600000000001  0.00892  0.60412  1.0000
  C   C594      1.0  0.41932  0.0113  0.63031  1.0000
  C   C595      1.0  0.4016400000000001  0.04881  0.6418  1.0000
  C   C596      1.0  0.36795  0.05009  0.66625  1.0000
  C   C597      1.0  0.50193  0.96953  0.56205  1.0000
  C   C598      1.0  0.5326200000000002  0.99871  0.56062  1.0000
  C   C599      1.0  0.18672000000000005  0.48509  0.7066  1.0000
  C   C600      1.0  0.14987  0.48594  0.6807100000000001  1.0000
  C   C601      1.0  0.1332  0.52299  0.67022  1.0000
  C   C602      1.0  0.09852  0.52528  0.64537  1.0000
  C   C603      1.0  0.08087  0.56276  0.63394  1.0000
  C   C604      1.0  0.04824000000000001  0.5640500000000003  0.60815  1.0000
  C   C605      1.0  0.030930000000000003  0.5279  0.59236  1.0000
  C   C606      1.0  0.04680000000000001  0.49093000000000003  0.60448  1.0000
  C   C607      1.0  0.08059  0.4885900000000001  0.63072  1.0000
  C   C608      1.0  0.09803  0.45101  0.64232  1.0000
  C   C609      1.0  0.13181  0.44964  0.66662  1.0000
  C   C610      1.0  0.9981200000000001  0.53014  0.56209  1.0000
  C   C611      1.0  0.9672800000000001  0.50108  0.56079  1.0000
  C   C612      1.0  0.31207000000000007  0.48505  0.79505  1.0000
  C   C613      1.0  0.34891  0.4858100000000001  0.82088  1.0000
  C   C614      1.0  0.36575  0.52286  0.83107  1.0000
  C   C615      1.0  0.4008000000000001  0.52519  0.85534  1.0000
  C   C616      1.0  0.41864  0.5627  0.86629  1.0000
  C   C617      1.0  0.4516000000000001  0.5640800000000002  0.89163  1.0000
  C   C618      1.0  0.4690200000000001  0.52802  0.90742  1.0000
  C   C619      1.0  0.45304  0.4909800000000001  0.89561  1.0000
  C   C620      1.0  0.41891  0.48854999999999993  0.86983  1.0000
  C   C621      1.0  0.40127  0.45095  0.85857  1.0000
  C   C622      1.0  0.36712  0.44951  0.8347900000000003  1.0000
  C   C623      1.0  0.50181  0.5304  0.9376900000000002  1.0000
  C   C624      1.0  0.5326200000000002  0.50134  0.939  1.0000
  O   O1        1.0  0.21624000000000004  0.79853  0.01997  1.0000
  O   O2        1.0  0.21624000000000004  0.79829  0.95129  1.0000
  O   O3        1.0  0.28299  0.70111  0.02  1.0000
  O   O4        1.0  0.28275  0.7012400000000002  0.95131  1.0000
  O   O5        1.0  0.28305  0.79835  0.48098  1.0000
  O   O6        1.0  0.28305  0.79867  0.54962  1.0000
  O   O7        1.0  0.21622000000000005  0.70224  0.48102  1.0000
  O   O8        1.0  0.21449  0.7030500000000002  0.54966  1.0000
  O   O9        1.0  0.01997000000000001  0.21624  0.79853  1.0000
  O   O10       1.0  0.9512900000000002  0.21624  0.79829  1.0000
  O   O11       1.0  0.02  0.28299  0.70111  1.0000
  O   O12       1.0  0.9513100000000002  0.2827500000000001  0.70124  1.0000
  O   O13       1.0  0.48098  0.28305  0.79835  1.0000
  O   O14       1.0  0.54962  0.28305  0.79867  1.0000
  O   O15       1.0  0.48102  0.21622  0.70224  1.0000
  O   O16       1.0  0.54966  0.21449  0.70305  1.0000
  O   O17       1.0  0.7985300000000002  0.01997  0.21624  1.0000
  O   O18       1.0  0.7982900000000003  0.95129  0.21624  1.0000
  O   O19       1.0  0.70111  0.02  0.28299  1.0000
  O   O20       1.0  0.70124  0.95131  0.28274  1.0000
  O   O21       1.0  0.7983500000000002  0.48098000000000013  0.28305  1.0000
  O   O22       1.0  0.7986600000000001  0.54962  0.28305  1.0000
  O   O23       1.0  0.7022400000000002  0.48102  0.21622000000000005  1.0000
  O   O24       1.0  0.70305  0.54966  0.21449  1.0000
  O   O25       1.0  0.20178  0.78395  0.51909  1.0000
  O   O26       1.0  0.20187  0.78392  0.45044  1.0000
  O   O27       1.0  0.29824  0.71704  0.52067  1.0000
  O   O28       1.0  0.29854  0.71695  0.45193  1.0000
  O   O29       1.0  0.20121000000000006  0.71696  0.98013  1.0000
  O   O30       1.0  0.20168000000000005  0.71676  0.04876000000000001  1.0000
  O   O31       1.0  0.2987300000000001  0.78372  0.98017  1.0000
  O   O32       1.0  0.29852  0.78368  0.04888  1.0000
  O   O33       1.0  0.7837200000000001  0.98017  0.29873  1.0000
  O   O34       1.0  0.7836800000000002  0.04888  0.29852  1.0000
  O   O35       1.0  0.7169600000000003  0.9801300000000001  0.2012  1.0000
  O   O36       1.0  0.71676  0.04876000000000001  0.20168  1.0000
  O   O37       1.0  0.7170300000000002  0.52067  0.29824  1.0000
  O   O38       1.0  0.7169500000000002  0.45193  0.29854  1.0000
  O   O39       1.0  0.78395  0.51909  0.20178  1.0000
  O   O40       1.0  0.78392  0.45044  0.20187  1.0000
  O   O41       1.0  0.9801300000000001  0.20121000000000006  0.71696  1.0000
  O   O42       1.0  0.04876000000000001  0.20168  0.71676  1.0000
  O   O43       1.0  0.9801700000000001  0.29873  0.78372  1.0000
  O   O44       1.0  0.04888000000000001  0.29852  0.7836800000000002  1.0000
  O   O45       1.0  0.5190900000000003  0.20178  0.78395  1.0000
  O   O46       1.0  0.45044  0.20187  0.78392  1.0000
  O   O47       1.0  0.52067  0.29824  0.71704  1.0000
  O   O48       1.0  0.45193  0.29854  0.71695  1.0000
  O   O49       1.0  0.7982200000000003  0.21605  0.48091  1.0000
  O   O50       1.0  0.79814  0.21609  0.54957  1.0000
  O   O51       1.0  0.70177  0.28297  0.47934  1.0000
  O   O52       1.0  0.70147  0.28305  0.54807  1.0000
  O   O53       1.0  0.7988  0.28305  0.01987  1.0000
  O   O54       1.0  0.7983200000000003  0.28324  0.95124  1.0000
  O   O55       1.0  0.70127  0.21628  0.01984  1.0000
  O   O56       1.0  0.70149  0.21633  0.95113  1.0000
  O   O57       1.0  0.21628000000000006  0.019840000000000007  0.70127  1.0000
  O   O58       1.0  0.21633  0.95113  0.70149  1.0000
  O   O59       1.0  0.28305  0.01987  0.7988  1.0000
  O   O60       1.0  0.28324  0.9512400000000002  0.79832  1.0000
  O   O61       1.0  0.28298000000000006  0.47934  0.7017800000000001  1.0000
  O   O62       1.0  0.28306  0.54807  0.70147  1.0000
  O   O63       1.0  0.21606  0.48091  0.79822  1.0000
  O   O64       1.0  0.21609  0.54957  0.79814  1.0000
  O   O65       1.0  0.01987  0.7988000000000002  0.28305  1.0000
  O   O66       1.0  0.9512400000000002  0.79832  0.28324  1.0000
  O   O67       1.0  0.01984  0.7012700000000002  0.21628  1.0000
  O   O68       1.0  0.9511300000000003  0.70149  0.21632  1.0000
  O   O69       1.0  0.48092  0.79822  0.21605  1.0000
  O   O70       1.0  0.54957  0.79814  0.21609  1.0000
  O   O71       1.0  0.47934  0.70177  0.28297  1.0000
  O   O72       1.0  0.54807  0.70147  0.28305  1.0000
  O   O73       1.0  0.78376  0.20147  0.98003  1.0000
  O   O74       1.0  0.78377  0.20172  0.04871  1.0000
  O   O75       1.0  0.7170200000000002  0.2989  0.98  1.0000
  O   O76       1.0  0.71726  0.29877  0.04869  1.0000
  O   O77       1.0  0.7169500000000002  0.20166  0.51903  1.0000
  O   O78       1.0  0.7169600000000003  0.20134  0.45039  1.0000
  O   O79       1.0  0.78378  0.29777  0.51899  1.0000
  O   O80       1.0  0.78552  0.29695  0.45035  1.0000
  O   O81       1.0  0.9800299999999998  0.78376  0.20147  1.0000
  O   O82       1.0  0.04871  0.78377  0.20172  1.0000
  O   O83       1.0  0.98  0.71702  0.2989  1.0000
  O   O84       1.0  0.04869  0.71726  0.29877  1.0000
  O   O85       1.0  0.51903  0.71695  0.20166  1.0000
  O   O86       1.0  0.45039  0.71696  0.20133  1.0000
  O   O87       1.0  0.51899  0.78378  0.29776  1.0000
  O   O88       1.0  0.45035  0.78552  0.29695  1.0000
  O   O89       1.0  0.20147  0.98003  0.78376  1.0000
  O   O90       1.0  0.20172000000000007  0.04871  0.78376  1.0000
  O   O91       1.0  0.2989  0.9800100000000002  0.71701  1.0000
  O   O92       1.0  0.29877000000000004  0.04869  0.71726  1.0000
  O   O93       1.0  0.20166000000000006  0.51903  0.71695  1.0000
  O   O94       1.0  0.20134000000000002  0.45039  0.71696  1.0000
  O   O95       1.0  0.2977700000000001  0.51899  0.78378  1.0000
  O   O96       1.0  0.2969500000000001  0.45035  0.7855200000000002  1.0000
