data_image0
_chemical_formula_structural       Cu24H336C624O96
_chemical_formula_sum              "Cu24 H336 C624 O96"
_cell_length_a       33.24865
_cell_length_b       33.24865
_cell_length_c       33.24865
_cell_angle_alpha    90.00090000000002
_cell_angle_beta     90.00090000000002
_cell_angle_gamma    90.00090000000002

_space_group_name_H-M_alt    "P 1"
_space_group_IT_number       1

loop_
  _space_group_symop_operation_xyz
  'x, y, z'

loop_
  _atom_site_type_symbol
  _atom_site_label
  _atom_site_symmetry_multiplicity
  _atom_site_fract_x
  _atom_site_fract_y
  _atom_site_fract_z
  _atom_site_occupancy
  Cu  Cu1       1.0  0.9633000000000002  0.25022  0.7498999999999998  1.0000
  Cu  Cu2       1.0  0.5366500000000001  0.25018  0.74986  1.0000
  Cu  Cu3       1.0  0.7499  0.9632999999999999  0.25022  1.0000
  Cu  Cu4       1.0  0.74986  0.53665  0.25018  1.0000
  Cu  Cu5       1.0  0.25022  0.7499  0.9633  1.0000
  Cu  Cu6       1.0  0.25018  0.74986  0.53665  1.0000
  Cu  Cu7       1.0  0.74986  0.0367  0.25014  1.0000
  Cu  Cu8       1.0  0.74979  0.46335  0.25012  1.0000
  Cu  Cu9       1.0  0.0367  0.25014  0.74986  1.0000
  Cu  Cu10      1.0  0.4633500000000001  0.25012  0.74978  1.0000
  Cu  Cu11      1.0  0.25012  0.74979  0.46335  1.0000
  Cu  Cu12      1.0  0.2501400000000001  0.74986  0.03669999999999999  1.0000
  Cu  Cu13      1.0  0.25015  0.9632999999999999  0.74986  1.0000
  Cu  Cu14      1.0  0.25022  0.5366600000000002  0.74989  1.0000
  Cu  Cu15      1.0  0.9633000000000002  0.74986  0.25015  1.0000
  Cu  Cu16      1.0  0.53666  0.74989  0.25022  1.0000
  Cu  Cu17      1.0  0.74989  0.25022  0.53665  1.0000
  Cu  Cu18      1.0  0.74987  0.2501500000000001  0.9633  1.0000
  Cu  Cu19      1.0  0.0367  0.74979  0.2501  1.0000
  Cu  Cu20      1.0  0.46336  0.74983  0.25014  1.0000
  Cu  Cu21      1.0  0.25011  0.0367  0.74978  1.0000
  Cu  Cu22      1.0  0.25015  0.4633600000000001  0.74983  1.0000
  Cu  Cu23      1.0  0.74979  0.2501  0.03669999999999999  1.0000
  Cu  Cu24      1.0  0.74983  0.2501500000000001  0.46336  1.0000
  H   H1        1.0  0.93722  0.35563  0.68076  1.0000
  H   H2        1.0  0.06747000000000002  0.41495  0.63529  1.0000
  H   H3        1.0  0.06649  0.35465  0.6800399999999999  1.0000
  H   H4        1.0  0.9002400000000003  0.4090800000000001  0.64339  1.0000
  H   H5        1.0  0.90105  0.46747  0.5973399999999998  1.0000
  H   H6        1.0  0.03074  0.46476  0.59452  1.0000
  H   H7        1.0  0.91343  0.48104  0.53183  1.0000
  H   H8        1.0  0.5628100000000003  0.14449  0.68076  1.0000
  H   H9        1.0  0.43257  0.08512  0.6353799999999997  1.0000
  H   H10       1.0  0.43354  0.14546  0.68005  1.0000
  H   H11       1.0  0.59977  0.09095  0.64343  1.0000
  H   H12       1.0  0.59895  0.03259  0.59738  1.0000
  H   H13       1.0  0.46927000000000013  0.03531  0.59457  1.0000
  H   H14       1.0  0.5866  0.019  0.53183  1.0000
  H   H15       1.0  0.5628  0.35558  0.81928  1.0000
  H   H16       1.0  0.43257  0.4149400000000001  0.86466  1.0000
  H   H17       1.0  0.4335  0.35461  0.82  1.0000
  H   H18       1.0  0.59977  0.40909  0.8566  1.0000
  H   H19       1.0  0.59895  0.46745000000000003  0.90265  1.0000
  H   H20       1.0  0.4693000000000001  0.46477  0.90549  1.0000
  H   H21       1.0  0.58661  0.48102000000000006  0.9682  1.0000
  H   H22       1.0  0.93717  0.1445  0.81928  1.0000
  H   H23       1.0  0.06743  0.08513  0.86458  1.0000
  H   H24       1.0  0.06648  0.14549  0.81999  1.0000
  H   H25       1.0  0.9002400000000003  0.09094  0.85657  1.0000
  H   H26       1.0  0.90106  0.03258  0.90263  1.0000
  H   H27       1.0  0.030730000000000004  0.03529  0.9054499999999998  1.0000
  H   H28       1.0  0.9134100000000003  0.01898  0.96819  1.0000
  H   H29       1.0  0.6807700000000002  0.93722  0.35562  1.0000
  H   H30       1.0  0.63529  0.06746  0.41495  1.0000
  H   H31       1.0  0.68005  0.06648  0.3546499999999999  1.0000
  H   H32       1.0  0.6434000000000002  0.9002400000000003  0.40908  1.0000
  H   H33       1.0  0.59734  0.90104  0.46747  1.0000
  H   H34       1.0  0.59452  0.030730000000000004  0.46475  1.0000
  H   H35       1.0  0.53183  0.91343  0.4810399999999999  1.0000
  H   H36       1.0  0.68076  0.56281  0.14449  1.0000
  H   H37       1.0  0.63538  0.43257  0.08512  1.0000
  H   H38       1.0  0.68005  0.43353  0.14546  1.0000
  H   H39       1.0  0.6434300000000002  0.5997700000000002  0.09095  1.0000
  H   H40       1.0  0.59738  0.59895  0.03259  1.0000
  H   H41       1.0  0.59457  0.46927  0.03530999999999999  1.0000
  H   H42       1.0  0.53183  0.5866000000000002  0.019  1.0000
  H   H43       1.0  0.81928  0.5628  0.35558  1.0000
  H   H44       1.0  0.8646600000000002  0.43257  0.41493999999999986  1.0000
  H   H45       1.0  0.82  0.43349  0.35461  1.0000
  H   H46       1.0  0.8566  0.5997700000000002  0.40909  1.0000
  H   H47       1.0  0.9026500000000001  0.59895  0.46745  1.0000
  H   H48       1.0  0.90549  0.4692900000000001  0.4647599999999999  1.0000
  H   H49       1.0  0.96821  0.58661  0.48102  1.0000
  H   H50       1.0  0.8192900000000002  0.93717  0.1445  1.0000
  H   H51       1.0  0.86458  0.06743  0.08513  1.0000
  H   H52       1.0  0.8199900000000002  0.06648  0.14549  1.0000
  H   H53       1.0  0.85657  0.90023  0.09093  1.0000
  H   H54       1.0  0.90263  0.90106  0.03258  1.0000
  H   H55       1.0  0.90545  0.030720000000000004  0.03529  1.0000
  H   H56       1.0  0.96819  0.9134100000000003  0.018979999999999993  1.0000
  H   H57       1.0  0.35563  0.68077  0.93722  1.0000
  H   H58       1.0  0.41495000000000004  0.63529  0.06746  1.0000
  H   H59       1.0  0.35465  0.68004  0.06647999999999997  1.0000
  H   H60       1.0  0.40908  0.6433900000000001  0.90024  1.0000
  H   H61       1.0  0.46747  0.5973400000000002  0.9010399999999997  1.0000
  H   H62       1.0  0.46476  0.59452  0.03073  1.0000
  H   H63       1.0  0.48105  0.53183  0.91343  1.0000
  H   H64       1.0  0.14449  0.68076  0.56281  1.0000
  H   H65       1.0  0.08512  0.63538  0.43257  1.0000
  H   H66       1.0  0.14546  0.68005  0.4335299999999999  1.0000
  H   H67       1.0  0.09096  0.64343  0.59977  1.0000
  H   H68       1.0  0.03259000000000001  0.59738  0.59895  1.0000
  H   H69       1.0  0.035310000000000015  0.5945700000000003  0.46927  1.0000
  H   H70       1.0  0.019  0.53183  0.5866  1.0000
  H   H71       1.0  0.3555800000000001  0.8192800000000002  0.5628  1.0000
  H   H72       1.0  0.41494  0.8646600000000002  0.43257  1.0000
  H   H73       1.0  0.35461  0.8200000000000002  0.43349  1.0000
  H   H74       1.0  0.40909  0.8566  0.59976  1.0000
  H   H75       1.0  0.4674500000000001  0.90265  0.59895  1.0000
  H   H76       1.0  0.4647700000000001  0.90549  0.46929  1.0000
  H   H77       1.0  0.48103  0.96821  0.5866  1.0000
  H   H78       1.0  0.1445  0.81929  0.93717  1.0000
  H   H79       1.0  0.08513  0.86458  0.06743  1.0000
  H   H80       1.0  0.14549000000000006  0.81999  0.06647  1.0000
  H   H81       1.0  0.09094000000000001  0.85657  0.9002299999999998  1.0000
  H   H82       1.0  0.03259000000000001  0.90263  0.90106  1.0000
  H   H83       1.0  0.03529  0.9054500000000001  0.03072  1.0000
  H   H84       1.0  0.01899  0.9681900000000001  0.91341  1.0000
  H   H85       1.0  0.6444200000000001  0.0628  0.18072  1.0000
  H   H86       1.0  0.58506  0.93256  0.13534  1.0000
  H   H87       1.0  0.6454  0.9335100000000002  0.18  1.0000
  H   H88       1.0  0.59091  0.09977  0.1434  1.0000
  H   H89       1.0  0.5325500000000001  0.09895  0.09735  1.0000
  H   H90       1.0  0.53524  0.9692899999999999  0.09451  1.0000
  H   H91       1.0  0.5189600000000002  0.08659  0.0318  1.0000
  H   H92       1.0  0.85549  0.43718  0.18072999999999995  1.0000
  H   H93       1.0  0.91488  0.56741  0.13543  1.0000
  H   H94       1.0  0.85452  0.5665  0.18001  1.0000
  H   H95       1.0  0.9090700000000003  0.40023  0.14343  1.0000
  H   H96       1.0  0.9674100000000001  0.40106  0.09737999999999997  1.0000
  H   H97       1.0  0.96472  0.53072  0.09456  1.0000
  H   H98       1.0  0.9810000000000001  0.4133900000000001  0.03181  1.0000
  H   H99       1.0  0.6443900000000002  0.43722  0.31923  1.0000
  H   H100      1.0  0.58507  0.56745  0.36471  1.0000
  H   H101      1.0  0.64537  0.56649  0.3199599999999999  1.0000
  H   H102      1.0  0.59093  0.40024  0.3566  1.0000
  H   H103      1.0  0.5325500000000001  0.4010400000000001  0.40265  1.0000
  H   H104      1.0  0.53525  0.53073  0.40548  1.0000
  H   H105      1.0  0.51898  0.41341  0.46818  1.0000
  H   H106      1.0  0.8555300000000002  0.06281  0.31924999999999987  1.0000
  H   H107      1.0  0.9148900000000002  0.93256  0.36462  1.0000
  H   H108      1.0  0.8545400000000002  0.93355  0.31995  1.0000
  H   H109      1.0  0.90906  0.09978  0.35658  1.0000
  H   H110      1.0  0.96743  0.09896000000000002  0.40264  1.0000
  H   H111      1.0  0.9647  0.9692600000000001  0.40543  1.0000
  H   H112      1.0  0.9810300000000001  0.08658  0.46816999999999986  1.0000
  H   H113      1.0  0.06282000000000003  0.31925  0.85553  1.0000
  H   H114      1.0  0.93256  0.36463  0.9148899999999999  1.0000
  H   H115      1.0  0.93356  0.31995  0.85454  1.0000
  H   H116      1.0  0.09978  0.35658  0.90906  1.0000
  H   H117      1.0  0.09896000000000003  0.40264  0.9674299999999999  1.0000
  H   H118      1.0  0.9692700000000001  0.40543  0.9647000000000001  1.0000
  H   H119      1.0  0.08659  0.4681700000000001  0.9810199999999999  1.0000
  H   H120      1.0  0.43722  0.31923  0.64439  1.0000
  H   H121      1.0  0.56745  0.3647100000000001  0.58506  1.0000
  H   H122      1.0  0.56649  0.31996  0.64536  1.0000
  H   H123      1.0  0.40024  0.3566  0.59093  1.0000
  H   H124      1.0  0.40104  0.40265  0.5325499999999997  1.0000
  H   H125      1.0  0.53073  0.40548  0.53525  1.0000
  H   H126      1.0  0.41341  0.46819  0.51898  1.0000
  H   H127      1.0  0.43718  0.18073  0.85549  1.0000
  H   H128      1.0  0.56742  0.13543  0.91487  1.0000
  H   H129      1.0  0.5665  0.18001  0.85452  1.0000
  H   H130      1.0  0.40024  0.14344  0.90907  1.0000
  H   H131      1.0  0.40107  0.09738  0.96741  1.0000
  H   H132      1.0  0.53072  0.09456  0.96471  1.0000
  H   H133      1.0  0.41339  0.03181  0.9809999999999999  1.0000
  H   H134      1.0  0.0628  0.18072  0.64442  1.0000
  H   H135      1.0  0.93256  0.13535  0.58506  1.0000
  H   H136      1.0  0.9335100000000002  0.18000000000000005  0.64539  1.0000
  H   H137      1.0  0.09977000000000003  0.1434  0.59091  1.0000
  H   H138      1.0  0.09895  0.09735  0.5325499999999997  1.0000
  H   H139      1.0  0.9692900000000001  0.09452000000000003  0.5352399999999999  1.0000
  H   H140      1.0  0.08659  0.03181  0.51896  1.0000
  H   H141      1.0  0.31924  0.64439  0.4372199999999999  1.0000
  H   H142      1.0  0.36471  0.58507  0.56745  1.0000
  H   H143      1.0  0.31996  0.6453600000000003  0.56649  1.0000
  H   H144      1.0  0.35661  0.59093  0.40024  1.0000
  H   H145      1.0  0.4026500000000001  0.53255  0.40104  1.0000
  H   H146      1.0  0.4054800000000001  0.53525  0.53073  1.0000
  H   H147      1.0  0.46819  0.51898  0.41341  1.0000
  H   H148      1.0  0.31925  0.85553  0.06281  1.0000
  H   H149      1.0  0.36463  0.91489  0.93255  1.0000
  H   H150      1.0  0.31996  0.85454  0.9335499999999998  1.0000
  H   H151      1.0  0.35658  0.9090600000000002  0.09976999999999997  1.0000
  H   H152      1.0  0.40264  0.96743  0.09895  1.0000
  H   H153      1.0  0.40544  0.9647000000000001  0.9692599999999999  1.0000
  H   H154      1.0  0.46817  0.98102  0.08657999999999998  1.0000
  H   H155      1.0  0.18072  0.64442  0.0628  1.0000
  H   H156      1.0  0.13535  0.58506  0.9325599999999997  1.0000
  H   H157      1.0  0.18001  0.6454  0.93351  1.0000
  H   H158      1.0  0.1434  0.59091  0.09976999999999997  1.0000
  H   H159      1.0  0.09735  0.53255  0.09895  1.0000
  H   H160      1.0  0.09452000000000003  0.53524  0.9692799999999999  1.0000
  H   H161      1.0  0.03181  0.51896  0.08659  1.0000
  H   H162      1.0  0.18073  0.85549  0.4371799999999999  1.0000
  H   H163      1.0  0.13543  0.91488  0.56741  1.0000
  H   H164      1.0  0.18001  0.8545200000000002  0.5665  1.0000
  H   H165      1.0  0.14344000000000007  0.9090700000000003  0.40023  1.0000
  H   H166      1.0  0.09738  0.9674100000000001  0.40106  1.0000
  H   H167      1.0  0.09456  0.96472  0.53072  1.0000
  H   H168      1.0  0.03181  0.981  0.41339  1.0000
  H   H169      1.0  0.35559  0.9372000000000003  0.81928  1.0000
  H   H170      1.0  0.41495000000000004  0.06745  0.86466  1.0000
  H   H171      1.0  0.35461  0.0665  0.82  1.0000
  H   H172      1.0  0.40909  0.9002400000000003  0.8566  1.0000
  H   H173      1.0  0.46746  0.90106  0.90266  1.0000
  H   H174      1.0  0.4647700000000001  0.030720000000000004  0.90549  1.0000
  H   H175      1.0  0.48105  0.9134200000000002  0.9682  1.0000
  H   H176      1.0  0.14451  0.56283  0.81927  1.0000
  H   H177      1.0  0.08513  0.43259  0.86458  1.0000
  H   H178      1.0  0.14549000000000006  0.43351  0.81999  1.0000
  H   H179      1.0  0.09094000000000001  0.5997700000000002  0.85657  1.0000
  H   H180      1.0  0.0326  0.59894  0.90262  1.0000
  H   H181      1.0  0.03529  0.4692900000000001  0.9054499999999998  1.0000
  H   H182      1.0  0.01901  0.58662  0.9682  1.0000
  H   H183      1.0  0.35562  0.56279  0.68077  1.0000
  H   H184      1.0  0.41494  0.43255  0.6353  1.0000
  H   H185      1.0  0.35464  0.4335200000000001  0.68005  1.0000
  H   H186      1.0  0.40907  0.5997700000000002  0.6434  1.0000
  H   H187      1.0  0.46746  0.59896  0.59735  1.0000
  H   H188      1.0  0.46475  0.46928  0.59452  1.0000
  H   H189      1.0  0.48103  0.5866000000000002  0.53182  1.0000
  H   H190      1.0  0.14448000000000003  0.9371900000000002  0.68075  1.0000
  H   H191      1.0  0.08511  0.06745  0.6353799999999997  1.0000
  H   H192      1.0  0.14547  0.06645  0.68005  1.0000
  H   H193      1.0  0.09095  0.90023  0.6434199999999998  1.0000
  H   H194      1.0  0.03258  0.90105  0.59736  1.0000
  H   H195      1.0  0.035310000000000015  0.030740000000000003  0.59457  1.0000
  H   H196      1.0  0.01898  0.9134200000000002  0.53183  1.0000
  H   H197      1.0  0.93719  0.68075  0.14447  1.0000
  H   H198      1.0  0.06745  0.63538  0.08511  1.0000
  H   H199      1.0  0.06645  0.68005  0.14546  1.0000
  H   H200      1.0  0.90023  0.64342  0.09094  1.0000
  H   H201      1.0  0.90105  0.59736  0.03257  1.0000
  H   H202      1.0  0.03074  0.5945700000000003  0.03530999999999999  1.0000
  H   H203      1.0  0.91342  0.53183  0.018979999999999993  1.0000
  H   H204      1.0  0.56279  0.68077  0.35561  1.0000
  H   H205      1.0  0.43255  0.6353  0.41493999999999986  1.0000
  H   H206      1.0  0.4335200000000001  0.68005  0.35464  1.0000
  H   H207      1.0  0.59977  0.6434  0.4090699999999999  1.0000
  H   H208      1.0  0.59896  0.59735  0.46745  1.0000
  H   H209      1.0  0.46928  0.59452  0.46475  1.0000
  H   H210      1.0  0.5866  0.53182  0.48102  1.0000
  H   H211      1.0  0.56283  0.8192700000000003  0.14451  1.0000
  H   H212      1.0  0.43259  0.86458  0.08513  1.0000
  H   H213      1.0  0.43351  0.81999  0.14548  1.0000
  H   H214      1.0  0.59977  0.85657  0.09094  1.0000
  H   H215      1.0  0.59894  0.90262  0.03259  1.0000
  H   H216      1.0  0.46929  0.9054500000000001  0.03529  1.0000
  H   H217      1.0  0.5866200000000003  0.9682000000000001  0.019  1.0000
  H   H218      1.0  0.9372  0.8192800000000002  0.35558  1.0000
  H   H219      1.0  0.06745  0.8646600000000002  0.41493999999999986  1.0000
  H   H220      1.0  0.0665  0.8200000000000002  0.35461  1.0000
  H   H221      1.0  0.9002400000000003  0.8566  0.40909  1.0000
  H   H222      1.0  0.90106  0.90266  0.4674599999999999  1.0000
  H   H223      1.0  0.030720000000000004  0.90549  0.46477  1.0000
  H   H224      1.0  0.91342  0.9682000000000001  0.4810399999999999  1.0000
  H   H225      1.0  0.6807700000000002  0.35561  0.56279  1.0000
  H   H226      1.0  0.6353000000000002  0.4149400000000001  0.43255  1.0000
  H   H227      1.0  0.68005  0.35464  0.43351  1.0000
  H   H228      1.0  0.6434000000000002  0.40907  0.59976  1.0000
  H   H229      1.0  0.59735  0.46745000000000003  0.59896  1.0000
  H   H230      1.0  0.59452  0.46475  0.46928  1.0000
  H   H231      1.0  0.53182  0.48103  0.5866  1.0000
  H   H232      1.0  0.68075  0.14448  0.93719  1.0000
  H   H233      1.0  0.63538  0.08511  0.06744999999999997  1.0000
  H   H234      1.0  0.68005  0.14546  0.06645  1.0000
  H   H235      1.0  0.64342  0.09095  0.9002299999999998  1.0000
  H   H236      1.0  0.5973700000000002  0.03258  0.90105  1.0000
  H   H237      1.0  0.59457  0.03531  0.030739999999999996  1.0000
  H   H238      1.0  0.53184  0.01898  0.91342  1.0000
  H   H239      1.0  0.8192900000000002  0.35559  0.9371999999999998  1.0000
  H   H240      1.0  0.8646600000000002  0.4149400000000001  0.06744999999999997  1.0000
  H   H241      1.0  0.82  0.35461  0.0665  1.0000
  H   H242      1.0  0.85661  0.40909  0.90024  1.0000
  H   H243      1.0  0.9026600000000002  0.46746  0.90105  1.0000
  H   H244      1.0  0.90549  0.46477  0.03072  1.0000
  H   H245      1.0  0.9682000000000001  0.48104  0.91342  1.0000
  H   H246      1.0  0.81928  0.14451000000000003  0.5628299999999998  1.0000
  H   H247      1.0  0.86458  0.08513  0.43258999999999986  1.0000
  H   H248      1.0  0.8199900000000002  0.14548000000000005  0.4335  1.0000
  H   H249      1.0  0.85657  0.09094  0.59977  1.0000
  H   H250      1.0  0.9026200000000002  0.03259  0.5989399999999998  1.0000
  H   H251      1.0  0.90545  0.03529  0.46928  1.0000
  H   H252      1.0  0.9682000000000001  0.019  0.58662  1.0000
  H   H253      1.0  0.06279  0.6443800000000001  0.31924  1.0000
  H   H254      1.0  0.93254  0.58505  0.36471  1.0000
  H   H255      1.0  0.93352  0.6453600000000003  0.3199599999999999  1.0000
  H   H256      1.0  0.09977000000000003  0.59093  0.35661  1.0000
  H   H257      1.0  0.09896000000000003  0.53254  0.40266  1.0000
  H   H258      1.0  0.9692700000000001  0.53525  0.40548  1.0000
  H   H259      1.0  0.08658000000000003  0.51896  0.46818  1.0000
  H   H260      1.0  0.4372  0.85552  0.31924  1.0000
  H   H261      1.0  0.5674400000000003  0.91489  0.36462  1.0000
  H   H262      1.0  0.56647  0.85454  0.31995  1.0000
  H   H263      1.0  0.40024  0.90905  0.35657  1.0000
  H   H264      1.0  0.40106  0.9674200000000001  0.4026299999999999  1.0000
  H   H265      1.0  0.53074  0.9647000000000001  0.40544  1.0000
  H   H266      1.0  0.4134000000000001  0.981  0.46816999999999986  1.0000
  H   H267      1.0  0.4372100000000001  0.64443  0.18072999999999995  1.0000
  H   H268      1.0  0.5674400000000003  0.58506  0.13534999999999994  1.0000
  H   H269      1.0  0.56651  0.6454  0.18  1.0000
  H   H270      1.0  0.40024  0.59092  0.14341  1.0000
  H   H271      1.0  0.40105000000000013  0.53256  0.09735  1.0000
  H   H272      1.0  0.53071  0.53524  0.09452  1.0000
  H   H273      1.0  0.4134000000000001  0.51898  0.0318  1.0000
  H   H274      1.0  0.06284  0.8555000000000003  0.18072  1.0000
  H   H275      1.0  0.9325800000000002  0.9148700000000002  0.13543  1.0000
  H   H276      1.0  0.93353  0.8545200000000002  0.18001  1.0000
  H   H277      1.0  0.09977000000000003  0.9090700000000003  0.14343  1.0000
  H   H278      1.0  0.09895  0.9674200000000001  0.09736999999999997  1.0000
  H   H279      1.0  0.96928  0.96472  0.09456  1.0000
  H   H280      1.0  0.08660000000000002  0.98102  0.03181  1.0000
  H   H281      1.0  0.31924  0.06278  0.64438  1.0000
  H   H282      1.0  0.3647200000000001  0.93254  0.58505  1.0000
  H   H283      1.0  0.31996  0.93352  0.64536  1.0000
  H   H284      1.0  0.35661  0.09977  0.59092  1.0000
  H   H285      1.0  0.40266  0.09896000000000002  0.53254  1.0000
  H   H286      1.0  0.40549  0.9692700000000001  0.53525  1.0000
  H   H287      1.0  0.46818  0.08658  0.51896  1.0000
  H   H288      1.0  0.31924  0.4372  0.8555199999999997  1.0000
  H   H289      1.0  0.36463  0.56744  0.9148899999999999  1.0000
  H   H290      1.0  0.31996  0.56647  0.85454  1.0000
  H   H291      1.0  0.3565700000000001  0.40023  0.90905  1.0000
  H   H292      1.0  0.40263  0.40105  0.96741  1.0000
  H   H293      1.0  0.40544  0.5307400000000001  0.9647000000000001  1.0000
  H   H294      1.0  0.46818  0.4134  0.9809999999999999  1.0000
  H   H295      1.0  0.18073  0.4372100000000001  0.64443  1.0000
  H   H296      1.0  0.13535  0.56744  0.58506  1.0000
  H   H297      1.0  0.18001  0.5665100000000002  0.6454  1.0000
  H   H298      1.0  0.14341  0.40024  0.59092  1.0000
  H   H299      1.0  0.09735  0.40105  0.5325499999999997  1.0000
  H   H300      1.0  0.09452000000000003  0.53071  0.5352399999999999  1.0000
  H   H301      1.0  0.0318  0.4134  0.51898  1.0000
  H   H302      1.0  0.18072  0.06284  0.8555  1.0000
  H   H303      1.0  0.13543  0.9325800000000002  0.91487  1.0000
  H   H304      1.0  0.18002  0.93353  0.8545099999999999  1.0000
  H   H305      1.0  0.14343000000000003  0.09977  0.90907  1.0000
  H   H306      1.0  0.09738  0.09895  0.9674199999999998  1.0000
  H   H307      1.0  0.09456  0.96928  0.96472  1.0000
  H   H308      1.0  0.03182  0.0866  0.9810199999999999  1.0000
  H   H309      1.0  0.64438  0.31924  0.06278  1.0000
  H   H310      1.0  0.58506  0.36472  0.9325399999999999  1.0000
  H   H311      1.0  0.64536  0.31996  0.93352  1.0000
  H   H312      1.0  0.59093  0.35661000000000004  0.09976999999999997  1.0000
  H   H313      1.0  0.53254  0.40266  0.09896  1.0000
  H   H314      1.0  0.53525  0.40548  0.9692699999999999  1.0000
  H   H315      1.0  0.5189600000000002  0.46818  0.08657999999999998  1.0000
  H   H316      1.0  0.85552  0.31924  0.4372  1.0000
  H   H317      1.0  0.9148900000000002  0.36463  0.56744  1.0000
  H   H318      1.0  0.85455  0.31995  0.56647  1.0000
  H   H319      1.0  0.90905  0.35657  0.40023  1.0000
  H   H320      1.0  0.9674200000000001  0.40263  0.40105  1.0000
  H   H321      1.0  0.9647  0.40544  0.53074  1.0000
  H   H322      1.0  0.9810000000000001  0.4681700000000001  0.4134  1.0000
  H   H323      1.0  0.64443  0.18073  0.4372  1.0000
  H   H324      1.0  0.58507  0.13535  0.56744  1.0000
  H   H325      1.0  0.6454  0.18000000000000005  0.56651  1.0000
  H   H326      1.0  0.5909200000000002  0.14341  0.40024  1.0000
  H   H327      1.0  0.53256  0.09735  0.40105  1.0000
  H   H328      1.0  0.53524  0.09452000000000003  0.53071  1.0000
  H   H329      1.0  0.51898  0.031800000000000016  0.4134  1.0000
  H   H330      1.0  0.8555000000000003  0.18072  0.06284  1.0000
  H   H331      1.0  0.91488  0.13543  0.93258  1.0000
  H   H332      1.0  0.85452  0.18002  0.93353  1.0000
  H   H333      1.0  0.9090700000000003  0.14343  0.09976999999999997  1.0000
  H   H334      1.0  0.9674200000000001  0.09737000000000003  0.09894  1.0000
  H   H335      1.0  0.96472  0.09456  0.9692799999999999  1.0000
  H   H336      1.0  0.98102  0.03181  0.08659  1.0000
  C   C1        1.0  0.00125  0.31488  0.70833  1.0000
  C   C2        1.0  0.00154  0.35158  0.68266  1.0000
  C   C3        1.0  0.96546  0.36882  0.67075  1.0000
  C   C4        1.0  0.9651  0.40298  0.64544  1.0000
  C   C5        1.0  0.00262  0.41974  0.63205  1.0000
  C   C6        1.0  0.03916  0.40181  0.64525  1.0000
  C   C7        1.0  0.0387  0.36859  0.66995  1.0000
  C   C8        1.0  0.9286500000000002  0.42116  0.63246  1.0000
  C   C9        1.0  0.92916  0.45356  0.60669  1.0000
  C   C10       1.0  0.96618  0.46974  0.59234  1.0000
  C   C11       1.0  0.00216  0.4530500000000001  0.60554  1.0000
  C   C12       1.0  0.9660900000000001  0.50286  0.56278  1.0000
  C   C13       1.0  0.93671  0.50403  0.53256  1.0000
  C   C14       1.0  0.49890999999999996  0.18557  0.70792  1.0000
  C   C15       1.0  0.49852  0.1486  0.6825999999999998  1.0000
  C   C16       1.0  0.53458  0.13127  0.67077  1.0000
  C   C17       1.0  0.53492  0.09708  0.64549  1.0000
  C   C18       1.0  0.4974  0.08033  0.63209  1.0000
  C   C19       1.0  0.4608700000000001  0.09827  0.6453199999999998  1.0000
  C   C20       1.0  0.4613500000000001  0.13153000000000006  0.66999  1.0000
  C   C21       1.0  0.57136  0.07889  0.6325  1.0000
  C   C22       1.0  0.57085  0.0465  0.60672  1.0000
  C   C23       1.0  0.53383  0.03031  0.5923699999999997  1.0000
  C   C24       1.0  0.49785  0.04702  0.60557  1.0000
  C   C25       1.0  0.5339400000000002  0.9972  0.56279  1.0000
  C   C26       1.0  0.56333  0.99602  0.53257  1.0000
  C   C27       1.0  0.49889  0.31479  0.7916699999999999  1.0000
  C   C28       1.0  0.49849000000000004  0.3515000000000001  0.8173799999999998  1.0000
  C   C29       1.0  0.53456  0.36878  0.82928  1.0000
  C   C30       1.0  0.53491  0.40296  0.85457  1.0000
  C   C31       1.0  0.4974  0.41971  0.86796  1.0000
  C   C32       1.0  0.4608700000000001  0.40177  0.85474  1.0000
  C   C33       1.0  0.46132  0.36852  0.8300599999999998  1.0000
  C   C34       1.0  0.57136  0.42115  0.8675399999999998  1.0000
  C   C35       1.0  0.57085  0.45355  0.8933  1.0000
  C   C36       1.0  0.5338400000000001  0.46974  0.90765  1.0000
  C   C37       1.0  0.49785  0.4530500000000001  0.8944499999999999  1.0000
  C   C38       1.0  0.53395  0.50284  0.93724  1.0000
  C   C39       1.0  0.56333  0.50401  0.9674699999999999  1.0000
  C   C40       1.0  0.00127  0.18553  0.79174  1.0000
  C   C41       1.0  0.00151  0.14869  0.81734  1.0000
  C   C42       1.0  0.96545  0.13135000000000005  0.82923  1.0000
  C   C43       1.0  0.9651  0.09713  0.85452  1.0000
  C   C44       1.0  0.0026  0.08036  0.8679199999999998  1.0000
  C   C45       1.0  0.03912  0.09831  0.85469  1.0000
  C   C46       1.0  0.03865000000000001  0.13159  0.83003  1.0000
  C   C47       1.0  0.92866  0.07890000000000003  0.8675  1.0000
  C   C48       1.0  0.92917  0.04649  0.89326  1.0000
  C   C49       1.0  0.96619  0.03029  0.90762  1.0000
  C   C50       1.0  0.00216  0.047  0.89441  1.0000
  C   C51       1.0  0.9660800000000002  0.9971800000000001  0.93722  1.0000
  C   C52       1.0  0.9367  0.9960100000000001  0.9674499999999999  1.0000
  C   C53       1.0  0.70833  0.00124  0.31488  1.0000
  C   C54       1.0  0.68266  0.00154  0.35158  1.0000
  C   C55       1.0  0.67076  0.9654600000000001  0.36882  1.0000
  C   C56       1.0  0.6454500000000002  0.9651000000000001  0.40298  1.0000
  C   C57       1.0  0.63205  0.002620000000000001  0.41973  1.0000
  C   C58       1.0  0.6452500000000002  0.03916  0.40181  1.0000
  C   C59       1.0  0.6699500000000002  0.03869  0.36858  1.0000
  C   C60       1.0  0.63247  0.9286400000000001  0.42115  1.0000
  C   C61       1.0  0.6066900000000002  0.9291500000000003  0.4535499999999999  1.0000
  C   C62       1.0  0.59235  0.96618  0.46974  1.0000
  C   C63       1.0  0.60554  0.00216  0.45305  1.0000
  C   C64       1.0  0.56279  0.9660800000000002  0.50286  1.0000
  C   C65       1.0  0.53256  0.9367  0.50403  1.0000
  C   C66       1.0  0.70792  0.49891  0.18557  1.0000
  C   C67       1.0  0.6826  0.49852  0.14859999999999995  1.0000
  C   C68       1.0  0.67077  0.53458  0.13127  1.0000
  C   C69       1.0  0.6455  0.53491  0.09707  1.0000
  C   C70       1.0  0.6320900000000003  0.4974  0.08033  1.0000
  C   C71       1.0  0.6453200000000002  0.46087  0.09826  1.0000
  C   C72       1.0  0.66999  0.46134  0.13153  1.0000
  C   C73       1.0  0.63251  0.57136  0.07888999999999997  1.0000
  C   C74       1.0  0.60672  0.57084  0.0465  1.0000
  C   C75       1.0  0.5923700000000001  0.5338300000000002  0.03031  1.0000
  C   C76       1.0  0.6055700000000003  0.49785  0.04700999999999999  1.0000
  C   C77       1.0  0.5628  0.53394  0.9972  1.0000
  C   C78       1.0  0.53257  0.56332  0.99602  1.0000
  C   C79       1.0  0.7916800000000003  0.49889000000000006  0.31479  1.0000
  C   C80       1.0  0.81738  0.49849  0.3515  1.0000
  C   C81       1.0  0.8292800000000002  0.5345600000000001  0.36878  1.0000
  C   C82       1.0  0.8545800000000002  0.53491  0.40295  1.0000
  C   C83       1.0  0.86796  0.4974  0.4197099999999999  1.0000
  C   C84       1.0  0.85475  0.46087  0.40177  1.0000
  C   C85       1.0  0.83006  0.4613200000000001  0.36852  1.0000
  C   C86       1.0  0.8675400000000002  0.57136  0.42115  1.0000
  C   C87       1.0  0.8933000000000002  0.57085  0.4535499999999999  1.0000
  C   C88       1.0  0.9076500000000002  0.5338300000000002  0.46972999999999987  1.0000
  C   C89       1.0  0.8944500000000001  0.49785  0.45304  1.0000
  C   C90       1.0  0.9372400000000001  0.53395  0.50284  1.0000
  C   C91       1.0  0.96748  0.56333  0.50401  1.0000
  C   C92       1.0  0.7917400000000001  0.00126  0.18552  1.0000
  C   C93       1.0  0.8173400000000002  0.0015  0.14868  1.0000
  C   C94       1.0  0.82923  0.96544  0.13134  1.0000
  C   C95       1.0  0.85453  0.9651000000000001  0.09713  1.0000
  C   C96       1.0  0.86792  0.0026  0.08036  1.0000
  C   C97       1.0  0.85469  0.03912  0.09831  1.0000
  C   C98       1.0  0.83003  0.03865  0.13158  1.0000
  C   C99       1.0  0.8675000000000002  0.92866  0.0789  1.0000
  C   C100      1.0  0.8932700000000002  0.92917  0.04648  1.0000
  C   C101      1.0  0.90763  0.96618  0.030289999999999997  1.0000
  C   C102      1.0  0.89441  0.00216  0.047  1.0000
  C   C103      1.0  0.93723  0.9660800000000002  0.99718  1.0000
  C   C104      1.0  0.96746  0.9367  0.9960099999999998  1.0000
  C   C105      1.0  0.31488  0.70833  0.00124  1.0000
  C   C106      1.0  0.35158  0.68266  0.00154  1.0000
  C   C107      1.0  0.36882000000000004  0.67076  0.96545  1.0000
  C   C108      1.0  0.40298000000000006  0.64544  0.9651  1.0000
  C   C109      1.0  0.41974  0.6320500000000002  0.00261  1.0000
  C   C110      1.0  0.4018100000000001  0.64525  0.03916  1.0000
  C   C111      1.0  0.3685900000000001  0.66995  0.03869  1.0000
  C   C112      1.0  0.42116  0.63246  0.92864  1.0000
  C   C113      1.0  0.45356000000000013  0.6066900000000002  0.92915  1.0000
  C   C114      1.0  0.4697500000000001  0.59235  0.96618  1.0000
  C   C115      1.0  0.4530500000000001  0.60554  0.00216  1.0000
  C   C116      1.0  0.5028600000000002  0.56278  0.96608  1.0000
  C   C117      1.0  0.50403  0.53256  0.9367  1.0000
  C   C118      1.0  0.18557  0.70792  0.49890999999999996  1.0000
  C   C119      1.0  0.14861  0.6826  0.49852  1.0000
  C   C120      1.0  0.13127000000000005  0.67077  0.5345799999999998  1.0000
  C   C121      1.0  0.09708  0.6455000000000001  0.5349099999999999  1.0000
  C   C122      1.0  0.08034  0.63209  0.4974  1.0000
  C   C123      1.0  0.09827000000000002  0.64532  0.46087  1.0000
  C   C124      1.0  0.13154  0.66999  0.46134  1.0000
  C   C125      1.0  0.07889  0.6325100000000002  0.57136  1.0000
  C   C126      1.0  0.0465  0.60672  0.57084  1.0000
  C   C127      1.0  0.03032  0.59237  0.53383  1.0000
  C   C128      1.0  0.04702  0.6055700000000003  0.49785  1.0000
  C   C129      1.0  0.9972000000000001  0.56279  0.53394  1.0000
  C   C130      1.0  0.9960200000000001  0.53257  0.56332  1.0000
  C   C131      1.0  0.3147900000000001  0.7916800000000002  0.49888999999999994  1.0000
  C   C132      1.0  0.3515  0.81738  0.49849000000000004  1.0000
  C   C133      1.0  0.36878  0.82928  0.53456  1.0000
  C   C134      1.0  0.40296  0.8545800000000002  0.5349099999999999  1.0000
  C   C135      1.0  0.41971  0.8679600000000002  0.4974  1.0000
  C   C136      1.0  0.40178  0.85475  0.46087  1.0000
  C   C137      1.0  0.36852  0.83006  0.46132  1.0000
  C   C138      1.0  0.42115  0.86754  0.57136  1.0000
  C   C139      1.0  0.45355  0.8933  0.57084  1.0000
  C   C140      1.0  0.46974  0.90765  0.53383  1.0000
  C   C141      1.0  0.4530500000000001  0.8944500000000001  0.49785  1.0000
  C   C142      1.0  0.50284  0.93724  0.53395  1.0000
  C   C143      1.0  0.50401  0.9674700000000002  0.56333  1.0000
  C   C144      1.0  0.18553  0.7917400000000002  0.0012599999999999996  1.0000
  C   C145      1.0  0.14869  0.81734  0.0015  1.0000
  C   C146      1.0  0.13135  0.8292300000000001  0.96544  1.0000
  C   C147      1.0  0.09714  0.85453  0.9651  1.0000
  C   C148      1.0  0.08036  0.86792  0.0026  1.0000
  C   C149      1.0  0.09832  0.85469  0.03911  1.0000
  C   C150      1.0  0.13159  0.83003  0.03865  1.0000
  C   C151      1.0  0.07891  0.8675000000000003  0.9286599999999999  1.0000
  C   C152      1.0  0.04649  0.89327  0.92917  1.0000
  C   C153      1.0  0.03029  0.90763  0.96618  1.0000
  C   C154      1.0  0.047000000000000014  0.89441  0.00215  1.0000
  C   C155      1.0  0.9971800000000001  0.93723  0.96608  1.0000
  C   C156      1.0  0.99601  0.96746  0.9367  1.0000
  C   C157      1.0  0.6852300000000002  0.99876  0.20831  1.0000
  C   C158      1.0  0.64851  0.9984700000000001  0.18262  1.0000
  C   C159      1.0  0.6312300000000002  0.03455  0.17074  1.0000
  C   C160      1.0  0.59706  0.034900000000000014  0.14542999999999995  1.0000
  C   C161      1.0  0.5803  0.9973900000000001  0.13204  1.0000
  C   C162      1.0  0.5982300000000003  0.96086  0.14525  1.0000
  C   C163      1.0  0.63147  0.96132  0.16993999999999995  1.0000
  C   C164      1.0  0.57886  0.07136  0.13246  1.0000
  C   C165      1.0  0.54645  0.07084  0.1067  1.0000
  C   C166      1.0  0.53026  0.033830000000000006  0.09235  1.0000
  C   C167      1.0  0.54696  0.9978500000000001  0.10555  1.0000
  C   C168      1.0  0.49715  0.03393  0.06276  1.0000
  C   C169      1.0  0.49598000000000003  0.06331  0.03252999999999999  1.0000
  C   C170      1.0  0.8144600000000002  0.50108  0.20826999999999996  1.0000
  C   C171      1.0  0.85131  0.50148  0.18266  1.0000
  C   C172      1.0  0.86867  0.46544  0.17076  1.0000
  C   C173      1.0  0.90288  0.46509  0.14548  1.0000
  C   C174      1.0  0.91964  0.5026  0.13208  1.0000
  C   C175      1.0  0.90168  0.53911  0.14532  1.0000
  C   C176      1.0  0.8684000000000002  0.53865  0.16998999999999995  1.0000
  C   C177      1.0  0.9211  0.42865  0.13250999999999993  1.0000
  C   C178      1.0  0.9535100000000001  0.4291700000000001  0.10674  1.0000
  C   C179      1.0  0.9697  0.46618  0.09238  1.0000
  C   C180      1.0  0.953  0.50216  0.10558999999999998  1.0000
  C   C181      1.0  0.002810000000000001  0.4660600000000001  0.06278  1.0000
  C   C182      1.0  0.003980000000000002  0.43667  0.03254  1.0000
  C   C183      1.0  0.68515  0.5011  0.2916599999999999  1.0000
  C   C184      1.0  0.64843  0.50151  0.31734  1.0000
  C   C185      1.0  0.63118  0.46544  0.32925  1.0000
  C   C186      1.0  0.59702  0.46509  0.35457  1.0000
  C   C187      1.0  0.58028  0.5026100000000001  0.36795  1.0000
  C   C188      1.0  0.59821  0.53915  0.35475  1.0000
  C   C189      1.0  0.63144  0.53868  0.3300399999999999  1.0000
  C   C190      1.0  0.5788500000000002  0.42864000000000013  0.36754  1.0000
  C   C191      1.0  0.54646  0.42915  0.3933099999999999  1.0000
  C   C192      1.0  0.53028  0.46617  0.40766  1.0000
  C   C193      1.0  0.5469700000000002  0.50216  0.39447  1.0000
  C   C194      1.0  0.49716  0.4660600000000001  0.4372199999999999  1.0000
  C   C195      1.0  0.49599000000000004  0.4366800000000001  0.46745  1.0000
  C   C196      1.0  0.81445  0.9987399999999999  0.2921  1.0000
  C   C197      1.0  0.85141  0.9984900000000001  0.31742  1.0000
  C   C198      1.0  0.8687300000000002  0.03457  0.32922999999999997  1.0000
  C   C199      1.0  0.90293  0.03491  0.3545099999999999  1.0000
  C   C200      1.0  0.91968  0.9974000000000001  0.36791  1.0000
  C   C201      1.0  0.90175  0.96087  0.35468999999999995  1.0000
  C   C202      1.0  0.86849  0.96134  0.33003  1.0000
  C   C203      1.0  0.92112  0.07136  0.3675  1.0000
  C   C204      1.0  0.9535200000000003  0.07085  0.39329  1.0000
  C   C205      1.0  0.96971  0.03382  0.40763  1.0000
  C   C206      1.0  0.953  0.9978500000000001  0.39443  1.0000
  C   C207      1.0  0.002830000000000001  0.03392  0.43721  1.0000
  C   C208      1.0  0.003999999999999999  0.0633  0.46743  1.0000
  C   C209      1.0  0.99874  0.2921  0.8144399999999998  1.0000
  C   C210      1.0  0.9985  0.31742  0.8514  1.0000
  C   C211      1.0  0.03457000000000001  0.32923  0.86872  1.0000
  C   C212      1.0  0.03491  0.35451000000000005  0.90293  1.0000
  C   C213      1.0  0.9974000000000001  0.36791  0.91967  1.0000
  C   C214      1.0  0.96087  0.35469  0.9017499999999998  1.0000
  C   C215      1.0  0.96134  0.33003  0.86849  1.0000
  C   C216      1.0  0.07136000000000003  0.3675100000000001  0.92112  1.0000
  C   C217      1.0  0.07085  0.39329  0.95352  1.0000
  C   C218      1.0  0.033830000000000006  0.40764  0.96971  1.0000
  C   C219      1.0  0.9978500000000001  0.39443  0.9529999999999997  1.0000
  C   C220      1.0  0.03392  0.4372100000000001  0.00283  1.0000
  C   C221      1.0  0.0633  0.46743  0.004  1.0000
  C   C222      1.0  0.50111  0.29167  0.68514  1.0000
  C   C223      1.0  0.50151  0.31734  0.64843  1.0000
  C   C224      1.0  0.46544  0.32926  0.63118  1.0000
  C   C225      1.0  0.4651000000000001  0.35457  0.59702  1.0000
  C   C226      1.0  0.50261  0.36795  0.58027  1.0000
  C   C227      1.0  0.53915  0.35475  0.5982  1.0000
  C   C228      1.0  0.53869  0.33004  0.63144  1.0000
  C   C229      1.0  0.42864  0.36754  0.57885  1.0000
  C   C230      1.0  0.42915  0.39331  0.54646  1.0000
  C   C231      1.0  0.46617  0.40766000000000013  0.53028  1.0000
  C   C232      1.0  0.50216  0.39447  0.54696  1.0000
  C   C233      1.0  0.4660600000000001  0.43723  0.49715999999999994  1.0000
  C   C234      1.0  0.4366800000000001  0.46745000000000003  0.49599  1.0000
  C   C235      1.0  0.50109  0.20828  0.81446  1.0000
  C   C236      1.0  0.50148  0.18267  0.8513  1.0000
  C   C237      1.0  0.46544  0.17077  0.8686599999999999  1.0000
  C   C238      1.0  0.4651000000000001  0.14548000000000005  0.90288  1.0000
  C   C239      1.0  0.5026  0.13209000000000007  0.91964  1.0000
  C   C240      1.0  0.53911  0.14532  0.90168  1.0000
  C   C241      1.0  0.53865  0.16999  0.8683999999999997  1.0000
  C   C242      1.0  0.4286600000000001  0.13251  0.9210999999999998  1.0000
  C   C243      1.0  0.42917000000000005  0.10674000000000003  0.9535099999999997  1.0000
  C   C244      1.0  0.46618  0.09238000000000003  0.9696999999999999  1.0000
  C   C245      1.0  0.50216  0.10559  0.95299  1.0000
  C   C246      1.0  0.4660600000000001  0.06278  0.00281  1.0000
  C   C247      1.0  0.43667  0.03254  0.00398  1.0000
  C   C248      1.0  0.9987700000000002  0.20831000000000005  0.68523  1.0000
  C   C249      1.0  0.9984700000000001  0.18263  0.64851  1.0000
  C   C250      1.0  0.03455  0.17074  0.63123  1.0000
  C   C251      1.0  0.0349  0.14543000000000006  0.59706  1.0000
  C   C252      1.0  0.9974000000000001  0.13204  0.58029  1.0000
  C   C253      1.0  0.9608600000000003  0.14525000000000005  0.59822  1.0000
  C   C254      1.0  0.9613200000000002  0.16994  0.63147  1.0000
  C   C255      1.0  0.07136000000000003  0.13247000000000006  0.57886  1.0000
  C   C256      1.0  0.07084  0.10670000000000003  0.54645  1.0000
  C   C257      1.0  0.033830000000000006  0.09235  0.53026  1.0000
  C   C258      1.0  0.9978500000000001  0.10555  0.54695  1.0000
  C   C259      1.0  0.03393  0.06277  0.4971499999999999  1.0000
  C   C260      1.0  0.06331  0.03254  0.49598000000000003  1.0000
  C   C261      1.0  0.29167  0.68514  0.5011  1.0000
  C   C262      1.0  0.31734  0.64843  0.5015099999999998  1.0000
  C   C263      1.0  0.32926  0.63118  0.46544  1.0000
  C   C264      1.0  0.3545700000000001  0.59702  0.4650899999999999  1.0000
  C   C265      1.0  0.36796  0.5802800000000001  0.50261  1.0000
  C   C266      1.0  0.3547500000000001  0.5982000000000001  0.53915  1.0000
  C   C267      1.0  0.33004  0.63144  0.53868  1.0000
  C   C268      1.0  0.36754  0.57885  0.42864  1.0000
  C   C269      1.0  0.3933100000000001  0.54646  0.42915  1.0000
  C   C270      1.0  0.40766000000000013  0.5302800000000001  0.46617  1.0000
  C   C271      1.0  0.39447  0.54696  0.50215  1.0000
  C   C272      1.0  0.43723  0.49716  0.46606  1.0000
  C   C273      1.0  0.4674500000000001  0.49599000000000004  0.43668  1.0000
  C   C274      1.0  0.2921  0.81445  0.99874  1.0000
  C   C275      1.0  0.31742  0.85141  0.9984899999999999  1.0000
  C   C276      1.0  0.32923  0.86872  0.03457  1.0000
  C   C277      1.0  0.35451  0.90293  0.03491  1.0000
  C   C278      1.0  0.36792  0.9196800000000002  0.9974  1.0000
  C   C279      1.0  0.35470000000000007  0.9017500000000003  0.96087  1.0000
  C   C280      1.0  0.33004  0.8684900000000002  0.96134  1.0000
  C   C281      1.0  0.36751  0.9211200000000003  0.07136  1.0000
  C   C282      1.0  0.39329  0.95352  0.07085  1.0000
  C   C283      1.0  0.40764  0.96971  0.03381999999999999  1.0000
  C   C284      1.0  0.39443  0.9530000000000002  0.99785  1.0000
  C   C285      1.0  0.4372100000000001  0.002830000000000001  0.03391  1.0000
  C   C286      1.0  0.46743000000000007  0.004  0.0633  1.0000
  C   C287      1.0  0.20832000000000006  0.68523  0.99876  1.0000
  C   C288      1.0  0.18263  0.64851  0.9984699999999999  1.0000
  C   C289      1.0  0.17074  0.63123  0.03455  1.0000
  C   C290      1.0  0.14543  0.59706  0.0349  1.0000
  C   C291      1.0  0.13205  0.5803  0.9973899999999999  1.0000
  C   C292      1.0  0.14526  0.59823  0.9608599999999998  1.0000
  C   C293      1.0  0.16994  0.63147  0.9613199999999997  1.0000
  C   C294      1.0  0.13247  0.57886  0.07135  1.0000
  C   C295      1.0  0.10671000000000003  0.54645  0.07084  1.0000
  C   C296      1.0  0.09235000000000003  0.53026  0.03381999999999999  1.0000
  C   C297      1.0  0.10555  0.54696  0.99785  1.0000
  C   C298      1.0  0.06277  0.49715000000000004  0.03393  1.0000
  C   C299      1.0  0.03254  0.49598  0.06330999999999998  1.0000
  C   C300      1.0  0.20828  0.81446  0.5010799999999997  1.0000
  C   C301      1.0  0.18267  0.8513000000000001  0.50147  1.0000
  C   C302      1.0  0.17077000000000006  0.86867  0.46544  1.0000
  C   C303      1.0  0.14548  0.9028800000000001  0.4650899999999999  1.0000
  C   C304      1.0  0.13209  0.91964  0.5025999999999998  1.0000
  C   C305      1.0  0.14533  0.9016800000000003  0.53911  1.0000
  C   C306      1.0  0.16999  0.8684  0.53864  1.0000
  C   C307      1.0  0.13251000000000004  0.9211  0.42865  1.0000
  C   C308      1.0  0.10674  0.95351  0.42917  1.0000
  C   C309      1.0  0.09238  0.9697  0.4661799999999999  1.0000
  C   C310      1.0  0.10559000000000003  0.9530000000000002  0.50216  1.0000
  C   C311      1.0  0.06278  0.00281  0.46606  1.0000
  C   C312      1.0  0.03254  0.00398  0.43667  1.0000
  C   C313      1.0  0.31478  0.00124  0.7916899999999998  1.0000
  C   C314      1.0  0.3515  0.00154  0.8173799999999998  1.0000
  C   C315      1.0  0.36877  0.9654500000000001  0.82927  1.0000
  C   C316      1.0  0.4029500000000001  0.9651000000000001  0.85457  1.0000
  C   C317      1.0  0.41971  0.0026100000000000003  0.86796  1.0000
  C   C318      1.0  0.40178  0.03914  0.85475  1.0000
  C   C319      1.0  0.3685400000000001  0.03869  0.83007  1.0000
  C   C320      1.0  0.42115  0.92865  0.8675399999999998  1.0000
  C   C321      1.0  0.45356000000000013  0.9291600000000002  0.8933  1.0000
  C   C322      1.0  0.4697500000000001  0.96618  0.90765  1.0000
  C   C323      1.0  0.4530500000000001  0.00216  0.8944499999999999  1.0000
  C   C324      1.0  0.5028600000000002  0.9660800000000002  0.93724  1.0000
  C   C325      1.0  0.50403  0.9367  0.9674699999999999  1.0000
  C   C326      1.0  0.18554  0.49892  0.79173  1.0000
  C   C327      1.0  0.1487  0.49853  0.81734  1.0000
  C   C328      1.0  0.13134  0.53457  0.82924  1.0000
  C   C329      1.0  0.09713  0.53491  0.85452  1.0000
  C   C330      1.0  0.08036  0.4974100000000001  0.8679199999999998  1.0000
  C   C331      1.0  0.09833  0.4609  0.85468  1.0000
  C   C332      1.0  0.13161  0.46136  0.83002  1.0000
  C   C333      1.0  0.07891  0.57135  0.8675  1.0000
  C   C334      1.0  0.0465  0.57084  0.89326  1.0000
  C   C335      1.0  0.03031  0.5338300000000002  0.90763  1.0000
  C   C336      1.0  0.04701000000000002  0.49785  0.89441  1.0000
  C   C337      1.0  0.9972000000000001  0.53395  0.9372299999999998  1.0000
  C   C338      1.0  0.9960300000000001  0.56333  0.96746  1.0000
  C   C339      1.0  0.31486  0.4989  0.7083399999999999  1.0000
  C   C340      1.0  0.35157  0.49850000000000005  0.68267  1.0000
  C   C341      1.0  0.36883  0.53457  0.67075  1.0000
  C   C342      1.0  0.40299  0.53491  0.64544  1.0000
  C   C343      1.0  0.4197300000000001  0.49739  0.63205  1.0000
  C   C344      1.0  0.4018  0.4608600000000001  0.64526  1.0000
  C   C345      1.0  0.36857  0.4613200000000001  0.66996  1.0000
  C   C346      1.0  0.42116  0.57137  0.63246  1.0000
  C   C347      1.0  0.45355  0.57086  0.60669  1.0000
  C   C348      1.0  0.4697300000000001  0.53384  0.59234  1.0000
  C   C349      1.0  0.45304  0.49785  0.60554  1.0000
  C   C350      1.0  0.50284  0.53394  0.56278  1.0000
  C   C351      1.0  0.50401  0.56332  0.5325499999999997  1.0000
  C   C352      1.0  0.18556000000000006  0.0012700000000000003  0.7079  1.0000
  C   C353      1.0  0.1486  0.00151  0.68259  1.0000
  C   C354      1.0  0.13128  0.96544  0.67077  1.0000
  C   C355      1.0  0.09708  0.9650900000000001  0.6454999999999999  1.0000
  C   C356      1.0  0.08033000000000003  0.0026  0.63209  1.0000
  C   C357      1.0  0.09826  0.03914  0.64531  1.0000
  C   C358      1.0  0.13152  0.03866  0.6699699999999997  1.0000
  C   C359      1.0  0.07889  0.92865  0.6325  1.0000
  C   C360      1.0  0.04649  0.9291600000000002  0.60672  1.0000
  C   C361      1.0  0.030300000000000004  0.96618  0.5923699999999997  1.0000
  C   C362      1.0  0.04701000000000002  0.00216  0.60558  1.0000
  C   C363      1.0  0.9971800000000001  0.9660900000000001  0.5628  1.0000
  C   C364      1.0  0.99601  0.93671  0.53257  1.0000
  C   C365      1.0  0.00127  0.70791  0.18556  1.0000
  C   C366      1.0  0.00151  0.68259  0.14859999999999995  1.0000
  C   C367      1.0  0.96544  0.67077  0.13127999999999995  1.0000
  C   C368      1.0  0.96509  0.6455000000000001  0.09708  1.0000
  C   C369      1.0  0.0026  0.63209  0.08033  1.0000
  C   C370      1.0  0.039140000000000015  0.64531  0.09825  1.0000
  C   C371      1.0  0.03866  0.66997  0.13152  1.0000
  C   C372      1.0  0.9286500000000002  0.6325  0.07888  1.0000
  C   C373      1.0  0.92916  0.60672  0.04648999999999998  1.0000
  C   C374      1.0  0.96618  0.59237  0.030299999999999997  1.0000
  C   C375      1.0  0.00216  0.60558  0.047  1.0000
  C   C376      1.0  0.9660900000000001  0.5628  0.99718  1.0000
  C   C377      1.0  0.93671  0.53257  0.996  1.0000
  C   C378      1.0  0.4989  0.7083400000000002  0.31486  1.0000
  C   C379      1.0  0.49850000000000005  0.68267  0.3515699999999999  1.0000
  C   C380      1.0  0.5345700000000002  0.67075  0.36882  1.0000
  C   C381      1.0  0.53491  0.64544  0.40298  1.0000
  C   C382      1.0  0.49739000000000005  0.6320500000000002  0.41973  1.0000
  C   C383      1.0  0.46086  0.64526  0.4018  1.0000
  C   C384      1.0  0.46132  0.66996  0.36857  1.0000
  C   C385      1.0  0.57137  0.63246  0.42115  1.0000
  C   C386      1.0  0.57086  0.6066900000000002  0.45354  1.0000
  C   C387      1.0  0.5338400000000001  0.59234  0.46972999999999987  1.0000
  C   C388      1.0  0.49785  0.60554  0.45304  1.0000
  C   C389      1.0  0.5339400000000002  0.56278  0.50284  1.0000
  C   C390      1.0  0.56332  0.53256  0.50401  1.0000
  C   C391      1.0  0.49892  0.79173  0.18554  1.0000
  C   C392      1.0  0.49853  0.81734  0.1487  1.0000
  C   C393      1.0  0.5345700000000002  0.82924  0.13134  1.0000
  C   C394      1.0  0.53491  0.8545200000000002  0.09711999999999997  1.0000
  C   C395      1.0  0.49741  0.86792  0.08036  1.0000
  C   C396      1.0  0.4609000000000001  0.85468  0.09832  1.0000
  C   C397      1.0  0.46136  0.8300200000000001  0.13160999999999998  1.0000
  C   C398      1.0  0.57135  0.8675000000000003  0.0789  1.0000
  C   C399      1.0  0.57084  0.8932600000000003  0.0465  1.0000
  C   C400      1.0  0.53383  0.90763  0.030299999999999997  1.0000
  C   C401      1.0  0.49785  0.89441  0.04700999999999999  1.0000
  C   C402      1.0  0.53395  0.93723  0.9972  1.0000
  C   C403      1.0  0.5633400000000002  0.96746  0.9960299999999999  1.0000
  C   C404      1.0  0.00124  0.79169  0.31478  1.0000
  C   C405      1.0  0.00154  0.81738  0.3515  1.0000
  C   C406      1.0  0.96545  0.82927  0.36877  1.0000
  C   C407      1.0  0.9651  0.85457  0.40295  1.0000
  C   C408      1.0  0.00261  0.8679600000000002  0.4197099999999999  1.0000
  C   C409      1.0  0.039140000000000015  0.85475  0.4017799999999999  1.0000
  C   C410      1.0  0.03869  0.83007  0.36853  1.0000
  C   C411      1.0  0.9286500000000002  0.86754  0.42114  1.0000
  C   C412      1.0  0.92917  0.8933  0.4535499999999999  1.0000
  C   C413      1.0  0.96618  0.90765  0.46975  1.0000
  C   C414      1.0  0.00216  0.89446  0.45305  1.0000
  C   C415      1.0  0.9660800000000002  0.93724  0.50285  1.0000
  C   C416      1.0  0.9367  0.9674700000000002  0.5040199999999998  1.0000
  C   C417      1.0  0.70834  0.31486  0.49889999999999995  1.0000
  C   C418      1.0  0.68267  0.35157000000000005  0.4985  1.0000
  C   C419      1.0  0.6707500000000002  0.36883000000000005  0.53456  1.0000
  C   C420      1.0  0.64544  0.40298  0.5349099999999999  1.0000
  C   C421      1.0  0.63205  0.41973  0.49739  1.0000
  C   C422      1.0  0.64526  0.4018000000000001  0.46086  1.0000
  C   C423      1.0  0.66996  0.36857  0.46132  1.0000
  C   C424      1.0  0.63247  0.42115  0.57136  1.0000
  C   C425      1.0  0.6066900000000002  0.45355  0.57085  1.0000
  C   C426      1.0  0.59235  0.46973  0.53383  1.0000
  C   C427      1.0  0.60554  0.45304  0.49785  1.0000
  C   C428      1.0  0.5627800000000002  0.50284  0.53394  1.0000
  C   C429      1.0  0.53256  0.50401  0.56332  1.0000
  C   C430      1.0  0.70791  0.18556  0.0012699999999999996  1.0000
  C   C431      1.0  0.68259  0.1486  0.00151  1.0000
  C   C432      1.0  0.67077  0.13128  0.96543  1.0000
  C   C433      1.0  0.6455  0.09708  0.9650899999999999  1.0000
  C   C434      1.0  0.6320900000000003  0.08033  0.0026  1.0000
  C   C435      1.0  0.64531  0.09825  0.03914  1.0000
  C   C436      1.0  0.66997  0.13152  0.03866  1.0000
  C   C437      1.0  0.6325  0.07889  0.92864  1.0000
  C   C438      1.0  0.60672  0.04649  0.9291599999999998  1.0000
  C   C439      1.0  0.5923700000000001  0.0303  0.96618  1.0000
  C   C440      1.0  0.60558  0.047  0.00215  1.0000
  C   C441      1.0  0.5628  0.9971800000000001  0.9660899999999999  1.0000
  C   C442      1.0  0.53258  0.9960100000000001  0.9367  1.0000
  C   C443      1.0  0.79169  0.31478  0.00124  1.0000
  C   C444      1.0  0.81738  0.3515000000000001  0.00154  1.0000
  C   C445      1.0  0.82927  0.36877  0.96545  1.0000
  C   C446      1.0  0.8545700000000002  0.4029500000000001  0.9651  1.0000
  C   C447      1.0  0.86796  0.41971  0.00261  1.0000
  C   C448      1.0  0.85475  0.40178  0.03914  1.0000
  C   C449      1.0  0.8300700000000002  0.36853000000000014  0.03869  1.0000
  C   C450      1.0  0.8675400000000002  0.42115  0.92865  1.0000
  C   C451      1.0  0.8933000000000002  0.45356  0.9291599999999998  1.0000
  C   C452      1.0  0.90766  0.4697500000000001  0.96618  1.0000
  C   C453      1.0  0.8944600000000003  0.4530500000000001  0.00215  1.0000
  C   C454      1.0  0.9372400000000001  0.50286  0.96607  1.0000
  C   C455      1.0  0.96747  0.50403  0.9367  1.0000
  C   C456      1.0  0.79173  0.18554  0.49892  1.0000
  C   C457      1.0  0.8173400000000002  0.1487  0.4985299999999999  1.0000
  C   C458      1.0  0.8292400000000002  0.13134  0.53457  1.0000
  C   C459      1.0  0.85453  0.09713  0.5349099999999999  1.0000
  C   C460      1.0  0.86792  0.08036  0.4974  1.0000
  C   C461      1.0  0.85468  0.09832  0.46089  1.0000
  C   C462      1.0  0.83002  0.13161  0.4613599999999999  1.0000
  C   C463      1.0  0.8675000000000002  0.07890000000000003  0.5713499999999998  1.0000
  C   C464      1.0  0.8932700000000002  0.0465  0.57083  1.0000
  C   C465      1.0  0.90763  0.0303  0.53382  1.0000
  C   C466      1.0  0.8944200000000002  0.04701  0.49785  1.0000
  C   C467      1.0  0.93723  0.9972  0.53395  1.0000
  C   C468      1.0  0.96746  0.99603  0.56333  1.0000
  C   C469      1.0  0.99876  0.68513  0.29167  1.0000
  C   C470      1.0  0.9984700000000001  0.64843  0.31735  1.0000
  C   C471      1.0  0.03455  0.63119  0.32925  1.0000
  C   C472      1.0  0.0349  0.59702  0.35456  1.0000
  C   C473      1.0  0.99739  0.58027  0.36795  1.0000
  C   C474      1.0  0.96085  0.5981900000000002  0.35475  1.0000
  C   C475      1.0  0.96131  0.63142  0.33005  1.0000
  C   C476      1.0  0.07136000000000003  0.57885  0.36754  1.0000
  C   C477      1.0  0.07085  0.54645  0.3933099999999999  1.0000
  C   C478      1.0  0.033830000000000006  0.53026  0.40766  1.0000
  C   C479      1.0  0.9978500000000001  0.54695  0.39447  1.0000
  C   C480      1.0  0.03392  0.4971400000000001  0.4372199999999999  1.0000
  C   C481      1.0  0.0633  0.49598  0.46744  1.0000
  C   C482      1.0  0.5011  0.81443  0.29208  1.0000
  C   C483      1.0  0.50148  0.8514  0.3174  1.0000
  C   C484      1.0  0.4654300000000001  0.86873  0.32922999999999997  1.0000
  C   C485      1.0  0.46509  0.90293  0.3545099999999999  1.0000
  C   C486      1.0  0.50261  0.9196700000000002  0.36791  1.0000
  C   C487      1.0  0.53913  0.90174  0.35468  1.0000
  C   C488      1.0  0.53866  0.86847  0.33002  1.0000
  C   C489      1.0  0.42865  0.92111  0.3675  1.0000
  C   C490      1.0  0.42916  0.9535  0.39328  1.0000
  C   C491      1.0  0.46618  0.96969  0.40763  1.0000
  C   C492      1.0  0.50216  0.95299  0.39443  1.0000
  C   C493      1.0  0.46607  0.00281  0.43721  1.0000
  C   C494      1.0  0.4366800000000001  0.00398  0.46743  1.0000
  C   C495      1.0  0.50112  0.6852200000000002  0.20833  1.0000
  C   C496      1.0  0.50152  0.64851  0.18262  1.0000
  C   C497      1.0  0.46544  0.63122  0.17073  1.0000
  C   C498      1.0  0.46509  0.59705  0.14542999999999995  1.0000
  C   C499      1.0  0.50261  0.5803  0.13204  1.0000
  C   C500      1.0  0.53914  0.59823  0.14526  1.0000
  C   C501      1.0  0.53869  0.63148  0.16993999999999995  1.0000
  C   C502      1.0  0.42864  0.57886  0.13247  1.0000
  C   C503      1.0  0.42916  0.54646  0.1067  1.0000
  C   C504      1.0  0.46617  0.5302700000000002  0.09235  1.0000
  C   C505      1.0  0.50215  0.54696  0.10555  1.0000
  C   C506      1.0  0.4660600000000001  0.49717  0.06276  1.0000
  C   C507      1.0  0.4366800000000001  0.496  0.03252999999999999  1.0000
  C   C508      1.0  0.99874  0.81448  0.20826  1.0000
  C   C509      1.0  0.9985  0.85132  0.18266  1.0000
  C   C510      1.0  0.03456  0.86866  0.17076999999999995  1.0000
  C   C511      1.0  0.03491  0.9028700000000002  0.14548  1.0000
  C   C512      1.0  0.99741  0.91965  0.13208  1.0000
  C   C513      1.0  0.9608900000000002  0.9016900000000002  0.14530999999999994  1.0000
  C   C514      1.0  0.96136  0.8684200000000002  0.16997  1.0000
  C   C515      1.0  0.07135  0.9211  0.1325  1.0000
  C   C516      1.0  0.07084  0.95352  0.10674  1.0000
  C   C517      1.0  0.03382000000000002  0.9697200000000001  0.09238  1.0000
  C   C518      1.0  0.9978500000000001  0.9530000000000002  0.10558999999999998  1.0000
  C   C519      1.0  0.03393  0.00282  0.06278  1.0000
  C   C520      1.0  0.06331  0.004  0.03255  1.0000
  C   C521      1.0  0.29168  0.99876  0.68513  1.0000
  C   C522      1.0  0.31735000000000013  0.9984600000000001  0.64842  1.0000
  C   C523      1.0  0.32925  0.03455  0.63118  1.0000
  C   C524      1.0  0.35456  0.034900000000000014  0.59702  1.0000
  C   C525      1.0  0.36796  0.9973900000000001  0.58027  1.0000
  C   C526      1.0  0.35476  0.9608500000000002  0.59819  1.0000
  C   C527      1.0  0.3300500000000001  0.9613100000000002  0.63142  1.0000
  C   C528      1.0  0.36754  0.07136  0.57885  1.0000
  C   C529      1.0  0.39332  0.07085  0.54645  1.0000
  C   C530      1.0  0.40766000000000013  0.033830000000000006  0.53026  1.0000
  C   C531      1.0  0.39447  0.9978500000000001  0.54695  1.0000
  C   C532      1.0  0.43722  0.03392  0.49714  1.0000
  C   C533      1.0  0.4674500000000001  0.0633  0.49598000000000003  1.0000
  C   C534      1.0  0.29209  0.5011  0.81443  1.0000
  C   C535      1.0  0.3174000000000001  0.50148  0.8514  1.0000
  C   C536      1.0  0.3292400000000001  0.46543  0.86873  1.0000
  C   C537      1.0  0.35451  0.46509  0.90293  1.0000
  C   C538      1.0  0.36791  0.5026100000000001  0.91967  1.0000
  C   C539      1.0  0.35469  0.53913  0.90174  1.0000
  C   C540      1.0  0.33002  0.53866  0.86847  1.0000
  C   C541      1.0  0.3675000000000001  0.42864000000000013  0.92111  1.0000
  C   C542      1.0  0.39328  0.42916  0.9535  1.0000
  C   C543      1.0  0.40764  0.46618  0.9696899999999999  1.0000
  C   C544      1.0  0.39443  0.50216  0.95299  1.0000
  C   C545      1.0  0.4372100000000001  0.46607  0.00281  1.0000
  C   C546      1.0  0.46743000000000007  0.4366800000000001  0.00398  1.0000
  C   C547      1.0  0.20833  0.50111  0.68522  1.0000
  C   C548      1.0  0.18263  0.50152  0.64851  1.0000
  C   C549      1.0  0.17073  0.46544  0.6312199999999998  1.0000
  C   C550      1.0  0.14543  0.46509  0.59705  1.0000
  C   C551      1.0  0.13205  0.5026100000000001  0.5802999999999998  1.0000
  C   C552      1.0  0.14526  0.53914  0.5982299999999998  1.0000
  C   C553      1.0  0.16995  0.53869  0.63148  1.0000
  C   C554      1.0  0.13247  0.42864000000000013  0.57886  1.0000
  C   C555      1.0  0.10671000000000003  0.42916  0.54646  1.0000
  C   C556      1.0  0.09235000000000003  0.46617  0.53027  1.0000
  C   C557      1.0  0.10555  0.5021500000000001  0.54696  1.0000
  C   C558      1.0  0.06277  0.4660600000000001  0.49717  1.0000
  C   C559      1.0  0.03253  0.4366800000000001  0.496  1.0000
  C   C560      1.0  0.20826  0.9987399999999999  0.81448  1.0000
  C   C561      1.0  0.18266  0.9985  0.85132  1.0000
  C   C562      1.0  0.17077000000000006  0.03456  0.8686599999999999  1.0000
  C   C563      1.0  0.14548  0.03491  0.90287  1.0000
  C   C564      1.0  0.13209  0.9974000000000001  0.91964  1.0000
  C   C565      1.0  0.14532  0.96089  0.90169  1.0000
  C   C566      1.0  0.16998  0.96136  0.86842  1.0000
  C   C567      1.0  0.13251000000000004  0.07135  0.9210999999999998  1.0000
  C   C568      1.0  0.10674  0.07084  0.95352  1.0000
  C   C569      1.0  0.09238  0.03382  0.9697200000000001  1.0000
  C   C570      1.0  0.10559000000000003  0.9978500000000001  0.9529999999999997  1.0000
  C   C571      1.0  0.06278  0.03393  0.00282  1.0000
  C   C572      1.0  0.03255  0.06331  0.004  1.0000
  C   C573      1.0  0.6851300000000002  0.29168  0.99876  1.0000
  C   C574      1.0  0.64843  0.31735  0.99846  1.0000
  C   C575      1.0  0.63119  0.32925  0.03455  1.0000
  C   C576      1.0  0.59702  0.35456  0.0349  1.0000
  C   C577      1.0  0.5802700000000002  0.36796  0.9973899999999999  1.0000
  C   C578      1.0  0.59819  0.35476000000000013  0.96085  1.0000
  C   C579      1.0  0.63142  0.33005  0.96131  1.0000
  C   C580      1.0  0.5788500000000002  0.36754  0.07136  1.0000
  C   C581      1.0  0.54645  0.39331  0.07085  1.0000
  C   C582      1.0  0.53026  0.40766000000000013  0.03383  1.0000
  C   C583      1.0  0.54696  0.39447  0.99785  1.0000
  C   C584      1.0  0.49713999999999997  0.43722  0.03391999999999999  1.0000
  C   C585      1.0  0.49598000000000003  0.46744  0.0633  1.0000
  C   C586      1.0  0.8144300000000002  0.2920800000000001  0.5011  1.0000
  C   C587      1.0  0.8514000000000003  0.3174  0.50148  1.0000
  C   C588      1.0  0.86874  0.32923  0.4654299999999999  1.0000
  C   C589      1.0  0.90293  0.35451  0.4650899999999999  1.0000
  C   C590      1.0  0.91967  0.36791  0.5025999999999998  1.0000
  C   C591      1.0  0.90174  0.35468  0.53913  1.0000
  C   C592      1.0  0.86847  0.33002  0.5386599999999998  1.0000
  C   C593      1.0  0.92112  0.3675  0.42864  1.0000
  C   C594      1.0  0.9535100000000001  0.39328  0.42916  1.0000
  C   C595      1.0  0.96969  0.40764  0.4661799999999999  1.0000
  C   C596      1.0  0.9529900000000002  0.39443  0.50216  1.0000
  C   C597      1.0  0.002810000000000001  0.4372100000000001  0.46607  1.0000
  C   C598      1.0  0.003980000000000002  0.46743  0.43668  1.0000
  C   C599      1.0  0.68522  0.20833  0.50111  1.0000
  C   C600      1.0  0.64851  0.18262000000000003  0.5015099999999998  1.0000
  C   C601      1.0  0.6312300000000002  0.17073  0.46544  1.0000
  C   C602      1.0  0.59705  0.14543000000000006  0.4650899999999999  1.0000
  C   C603      1.0  0.5803  0.13205  0.50261  1.0000
  C   C604      1.0  0.5982300000000003  0.14526  0.53914  1.0000
  C   C605      1.0  0.63148  0.16994  0.53869  1.0000
  C   C606      1.0  0.57886  0.13247000000000006  0.42864  1.0000
  C   C607      1.0  0.54646  0.10671  0.42916  1.0000
  C   C608      1.0  0.5302700000000002  0.09235  0.46617  1.0000
  C   C609      1.0  0.54696  0.10555  0.50215  1.0000
  C   C610      1.0  0.49717000000000006  0.06276000000000002  0.46605  1.0000
  C   C611      1.0  0.496  0.03253  0.43668  1.0000
  C   C612      1.0  0.81448  0.20826000000000006  0.99874  1.0000
  C   C613      1.0  0.85132  0.18266  0.9985  1.0000
  C   C614      1.0  0.8686600000000002  0.17077  0.03456  1.0000
  C   C615      1.0  0.90287  0.14548000000000005  0.0349  1.0000
  C   C616      1.0  0.9196500000000002  0.13208  0.9974  1.0000
  C   C617      1.0  0.90169  0.14531  0.9608899999999998  1.0000
  C   C618      1.0  0.86842  0.16998  0.96136  1.0000
  C   C619      1.0  0.9211  0.1325  0.07135  1.0000
  C   C620      1.0  0.9535200000000003  0.10674000000000003  0.07083  1.0000
  C   C621      1.0  0.96972  0.09238000000000003  0.03381999999999999  1.0000
  C   C622      1.0  0.95301  0.10559  0.99785  1.0000
  C   C623      1.0  0.00282  0.06278  0.03393  1.0000
  C   C624      1.0  0.004  0.03255  0.06330999999999998  1.0000
  O   O1        1.0  0.9668500000000001  0.30057  0.71825  1.0000
  O   O2        1.0  0.03551  0.30028  0.71842  1.0000
  O   O3        1.0  0.5333100000000001  0.20005  0.7176199999999998  1.0000
  O   O4        1.0  0.4646200000000001  0.20026  0.71776  1.0000
  O   O5        1.0  0.53333  0.3005800000000001  0.78172  1.0000
  O   O6        1.0  0.46465  0.3000200000000001  0.78169  1.0000
  O   O7        1.0  0.96693  0.2  0.78181  1.0000
  O   O8        1.0  0.03557  0.20018  0.7817799999999999  1.0000
  O   O9        1.0  0.71826  0.9668400000000001  0.30057  1.0000
  O   O10       1.0  0.71842  0.03551  0.30027  1.0000
  O   O11       1.0  0.71763  0.5333100000000001  0.20005  1.0000
  O   O12       1.0  0.71776  0.46462  0.20026  1.0000
  O   O13       1.0  0.7817200000000001  0.53333  0.30057  1.0000
  O   O14       1.0  0.7816900000000002  0.46465  0.30002  1.0000
  O   O15       1.0  0.7818200000000002  0.96693  0.2  1.0000
  O   O16       1.0  0.78178  0.03556  0.20017999999999994  1.0000
  O   O17       1.0  0.3005700000000001  0.71826  0.9668399999999999  1.0000
  O   O18       1.0  0.3002700000000001  0.7184200000000002  0.03551  1.0000
  O   O19       1.0  0.20005  0.7176300000000002  0.5333  1.0000
  O   O20       1.0  0.20026000000000005  0.7177600000000002  0.46461999999999987  1.0000
  O   O21       1.0  0.30058  0.78172  0.53333  1.0000
  O   O22       1.0  0.30003  0.78169  0.46465  1.0000
  O   O23       1.0  0.2  0.78182  0.9669300000000001  1.0000
  O   O24       1.0  0.20018  0.78178  0.03556  1.0000
  O   O25       1.0  0.6994800000000002  0.03317  0.21832  1.0000
  O   O26       1.0  0.69999  0.96451  0.21826  1.0000
  O   O27       1.0  0.80003  0.4667  0.21815999999999994  1.0000
  O   O28       1.0  0.7998100000000002  0.53536  0.21826  1.0000
  O   O29       1.0  0.6993500000000002  0.46668  0.28162  1.0000
  O   O30       1.0  0.69987  0.53536  0.28171  1.0000
  O   O31       1.0  0.79992  0.0331  0.28238  1.0000
  O   O32       1.0  0.7998  0.96442  0.28224  1.0000
  O   O33       1.0  0.0331  0.28238  0.79992  1.0000
  O   O34       1.0  0.96442  0.28225  0.79979  1.0000
  O   O35       1.0  0.4666900000000001  0.28163  0.69934  1.0000
  O   O36       1.0  0.5353600000000001  0.28171  0.69986  1.0000
  O   O37       1.0  0.4667  0.21817  0.80003  1.0000
  O   O38       1.0  0.53537  0.21826  0.7998099999999998  1.0000
  O   O39       1.0  0.03317  0.21832  0.69948  1.0000
  O   O40       1.0  0.9645199999999999  0.21826  0.69999  1.0000
  O   O41       1.0  0.28163  0.69935  0.46668  1.0000
  O   O42       1.0  0.28171  0.69987  0.53535  1.0000
  O   O43       1.0  0.2823800000000001  0.79992  0.0331  1.0000
  O   O44       1.0  0.2822500000000001  0.7998  0.9644200000000002  1.0000
  O   O45       1.0  0.21832  0.69948  0.03317  1.0000
  O   O46       1.0  0.21827  0.69999  0.96451  1.0000
  O   O47       1.0  0.21817  0.80003  0.4666999999999999  1.0000
  O   O48       1.0  0.21826  0.79981  0.53536  1.0000
  O   O49       1.0  0.30053  0.9668400000000001  0.78168  1.0000
  O   O50       1.0  0.30001  0.03549  0.78174  1.0000
  O   O51       1.0  0.19997000000000006  0.5333100000000001  0.78184  1.0000
  O   O52       1.0  0.20020000000000002  0.46464  0.78174  1.0000
  O   O53       1.0  0.30066  0.53332  0.7183799999999998  1.0000
  O   O54       1.0  0.30014000000000013  0.46465  0.71829  1.0000
  O   O55       1.0  0.20009  0.9669100000000002  0.7176199999999998  1.0000
  O   O56       1.0  0.20021000000000005  0.03559  0.71776  1.0000
  O   O57       1.0  0.96691  0.71762  0.20008  1.0000
  O   O58       1.0  0.03559  0.7177600000000002  0.20021  1.0000
  O   O59       1.0  0.53332  0.71838  0.30066  1.0000
  O   O60       1.0  0.46465  0.7182900000000002  0.30014  1.0000
  O   O61       1.0  0.5333100000000001  0.78184  0.19997  1.0000
  O   O62       1.0  0.4646400000000001  0.78174  0.2002  1.0000
  O   O63       1.0  0.9668400000000001  0.78169  0.30053  1.0000
  O   O64       1.0  0.035490000000000015  0.78174  0.30001  1.0000
  O   O65       1.0  0.71838  0.30066  0.53332  1.0000
  O   O66       1.0  0.7183000000000003  0.30014  0.46465  1.0000
  O   O67       1.0  0.71762  0.20009  0.9668999999999999  1.0000
  O   O68       1.0  0.71776  0.20021  0.03558  1.0000
  O   O69       1.0  0.7816900000000002  0.30053  0.9668399999999999  1.0000
  O   O70       1.0  0.78174  0.30001  0.03549  1.0000
  O   O71       1.0  0.78184  0.19997  0.5333  1.0000
  O   O72       1.0  0.78174  0.2002  0.46464  1.0000
  O   O73       1.0  0.03316  0.69943  0.28175  1.0000
  O   O74       1.0  0.9644900000000001  0.69973  0.28157999999999994  1.0000
  O   O75       1.0  0.4667  0.79995  0.28238  1.0000
  O   O76       1.0  0.53539  0.79974  0.28224  1.0000
  O   O77       1.0  0.46668  0.69943  0.21829  1.0000
  O   O78       1.0  0.53535  0.69998  0.21831  1.0000
  O   O79       1.0  0.03308000000000001  0.8  0.21819  1.0000
  O   O80       1.0  0.9644400000000001  0.79983  0.21822  1.0000
  O   O81       1.0  0.28175  0.03316  0.69943  1.0000
  O   O82       1.0  0.28159  0.9644899999999998  0.69973  1.0000
  O   O83       1.0  0.2823800000000001  0.4667  0.79995  1.0000
  O   O84       1.0  0.2822500000000001  0.53539  0.79974  1.0000
  O   O85       1.0  0.21829000000000007  0.46668  0.69943  1.0000
  O   O86       1.0  0.21832  0.5353500000000001  0.69998  1.0000
  O   O87       1.0  0.21819000000000005  0.03308  0.8  1.0000
  O   O88       1.0  0.21823  0.96444  0.79983  1.0000
  O   O89       1.0  0.69943  0.28175  0.03316  1.0000
  O   O90       1.0  0.69973  0.28158  0.96449  1.0000
  O   O91       1.0  0.7999500000000003  0.28238  0.4666999999999999  1.0000
  O   O92       1.0  0.7997500000000002  0.28225  0.5353899999999998  1.0000
  O   O93       1.0  0.69943  0.21829000000000007  0.46667  1.0000
  O   O94       1.0  0.6999800000000003  0.21831  0.53535  1.0000
  O   O95       1.0  0.8  0.21819  0.03307  1.0000
  O   O96       1.0  0.79983  0.21823  0.9644399999999999  1.0000
