data_image0
_chemical_formula_structural       Cu16H272C416O80
_chemical_formula_sum              "Cu16 H272 C416 O80"
_cell_length_a       26.83425
_cell_length_b       30.61203
_cell_length_c       30.61203
_cell_angle_alpha    78.87317999999999
_cell_angle_beta     63.93059000000001
_cell_angle_gamma    63.93059000000001

_symmetry_space_group_name_H-M    'P 1'
_symmetry_Int_Tables_number       1

loop_
  _symmetry_equiv_pos_as_xyz
  'x,y,z'

loop_
  _atom_site_type_symbol
  _atom_site_label
  _atom_site_symmetry_multiplicity
  _atom_site_fract_x
  _atom_site_fract_y
  _atom_site_fract_z
  _atom_site_occupancy
  Cu  Cu1       1.0  0.9917  0.96893  0.03092  1.0000
  Cu  Cu2       1.0  0.9917  0.53092  0.46893  1.0000
  Cu  Cu3       1.0  0.008290000000000032  0.46908  0.53106  1.0000
  Cu  Cu4       1.0  0.008290000000000011  0.03107  0.96908  1.0000
  Cu  Cu5       1.0  0.7866099999999999  0.25055  0.75055  1.0000
  Cu  Cu6       1.0  0.6958  0.2504  0.75039  1.0000
  Cu  Cu7       1.0  0.21337999999999996  0.74945  0.24944999999999998  1.0000
  Cu  Cu8       1.0  0.30419000000000007  0.74961  0.2496  1.0000
  Cu  Cu9       1.0  0.9605600000000003  0.03104  0.53104  1.0000
  Cu  Cu10      1.0  0.5227199999999999  0.46902  0.96901  1.0000
  Cu  Cu11      1.0  0.03942999999999993  0.96896  0.46896  1.0000
  Cu  Cu12      1.0  0.47726999999999997  0.53099  0.03099  1.0000
  Cu  Cu13      1.0  0.03650000000000005  0.75067  0.25067  1.0000
  Cu  Cu14      1.0  0.9456800000000001  0.75051  0.25051  1.0000
  Cu  Cu15      1.0  0.9634900000000002  0.24933  0.74933  1.0000
  Cu  Cu16      1.0  0.05431999999999998  0.24949  0.74949  1.0000
  H   H1        1.0  0.028550000000000113  0.96919  0.8478099999999998  1.0000
  H   H2        1.0  0.055239999999999914  0.77941  0.82548  1.0000
  H   H3        1.0  0.9539000000000001  0.882  0.9630499999999999  1.0000
  H   H4        1.0  0.9305600000000004  0.9433800000000002  0.80241  1.0000
  H   H5        1.0  0.03744999999999998  0.91964  0.78712  1.0000
  H   H6        1.0  0.95999  0.8335800000000001  0.90212  1.0000
  H   H7        1.0  0.9360999999999999  0.84692  0.68611  1.0000
  H   H8        1.0  0.7982500000000001  0.00466  0.73318  1.0000
  H   H9        1.0  0.94208  0.00926  0.75773  1.0000
  H   H10       1.0  0.88293  0.9356  0.68806  1.0000
  H   H11       1.0  0.8925600000000002  0.09952  0.7598  1.0000
  H   H12       1.0  0.7488400000000002  0.09511000000000001  0.73593  1.0000
  H   H13       1.0  0.04145999999999989  0.7072600000000002  0.84037  1.0000
  H   H14       1.0  0.11757  0.70113  0.8045  1.0000
  H   H15       1.0  0.06289000000000003  0.6336  0.798  1.0000
  H   H16       1.0  0.11107000000000006  0.61919  0.82887  1.0000
  H   H17       1.0  0.13943999999999998  0.62641  0.7646  1.0000
  H   H18       1.0  0.8459600000000003  0.5311  0.65286  1.0000
  H   H19       1.0  0.6602199999999998  0.72059  0.6741699999999999  1.0000
  H   H20       1.0  0.8002  0.61781  0.53708  1.0000
  H   H21       1.0  0.67605  0.5567  0.69717  1.0000
  H   H22       1.0  0.7438699999999996  0.58039  0.71329  1.0000
  H   H23       1.0  0.6960599999999999  0.66608  0.59769  1.0000
  H   H24       1.0  0.46858000000000005  0.65371  0.81398  1.0000
  H   H25       1.0  0.53566  0.49629  0.76644  1.0000
  H   H26       1.0  0.7090000000000005  0.49122  0.7419899999999998  1.0000
  H   H27       1.0  0.50582  0.56496  0.81195  1.0000
  H   H28       1.0  0.7516199999999998  0.40091  0.74026  1.0000
  H   H29       1.0  0.57937  0.4057  0.76387  1.0000
  H   H30       1.0  0.58906  0.7927900000000001  0.6596699999999999  1.0000
  H   H31       1.0  0.6230900000000005  0.79869  0.69562  1.0000
  H   H32       1.0  0.4942000000000002  0.8665  0.702  1.0000
  H   H33       1.0  0.5591200000000003  0.88072  0.6710399999999999  1.0000
  H   H34       1.0  0.5301999999999994  0.8735800000000001  0.73532  1.0000
  H   H35       1.0  0.9714399999999997  0.6521900000000003  0.53081  1.0000
  H   H36       1.0  0.9447500000000003  0.6745200000000001  0.72059  1.0000
  H   H37       1.0  0.046079999999999975  0.53695  0.618  1.0000
  H   H38       1.0  0.06943000000000005  0.69759  0.55662  1.0000
  H   H39       1.0  0.9625299999999999  0.71288  0.58036  1.0000
  H   H40       1.0  0.03999000000000002  0.5978800000000001  0.66642  1.0000
  H   H41       1.0  0.06389000000000004  0.81389  0.65308  1.0000
  H   H42       1.0  0.20175000000000012  0.76682  0.49534  1.0000
  H   H43       1.0  0.05790999999999992  0.7422700000000002  0.4907399999999999  1.0000
  H   H44       1.0  0.11705999999999998  0.81194  0.5644  1.0000
  H   H45       1.0  0.10742999999999991  0.7402000000000002  0.4004799999999999  1.0000
  H   H46       1.0  0.25115  0.76407  0.4048899999999999  1.0000
  H   H47       1.0  0.9585300000000003  0.6596300000000002  0.7927399999999998  1.0000
  H   H48       1.0  0.8824199999999999  0.6955  0.79887  1.0000
  H   H49       1.0  0.9371  0.702  0.8664  1.0000
  H   H50       1.0  0.8889200000000002  0.67113  0.8808099999999998  1.0000
  H   H51       1.0  0.8605499999999999  0.7354  0.87359  1.0000
  H   H52       1.0  0.15402000000000016  0.84714  0.9689  1.0000
  H   H53       1.0  0.33977000000000007  0.82583  0.7794099999999998  1.0000
  H   H54       1.0  0.19977999999999999  0.96292  0.88219  1.0000
  H   H55       1.0  0.32394000000000006  0.80283  0.9432999999999999  1.0000
  H   H56       1.0  0.25611  0.78671  0.91961  1.0000
  H   H57       1.0  0.30393  0.90231  0.8339199999999998  1.0000
  H   H58       1.0  0.53141  0.68602  0.84629  1.0000
  H   H59       1.0  0.46433999999999986  0.7335600000000001  0.0037099999999999993  1.0000
  H   H60       1.0  0.2909899999999999  0.7580100000000002  0.00878  1.0000
  H   H61       1.0  0.49417  0.68805  0.93504  1.0000
  H   H62       1.0  0.24837000000000006  0.75973  0.09908999999999997  1.0000
  H   H63       1.0  0.42062  0.73613  0.0943  1.0000
  H   H64       1.0  0.41092  0.84033  0.7072099999999998  1.0000
  H   H65       1.0  0.3769  0.8043800000000001  0.70131  1.0000
  H   H66       1.0  0.5057899999999999  0.7980000000000003  0.6335  1.0000
  H   H67       1.0  0.4408700000000001  0.82896  0.61928  1.0000
  H   H68       1.0  0.46978999999999993  0.76468  0.62642  1.0000
  H   H69       1.0  0.97144  0.030810000000000004  0.15219  1.0000
  H   H70       1.0  0.94476  0.2206  0.17452  1.0000
  H   H71       1.0  0.04609000000000001  0.11801  0.03695  1.0000
  H   H72       1.0  0.06943000000000002  0.05663000000000001  0.19759  1.0000
  H   H73       1.0  0.9625400000000001  0.08036  0.21287999999999999  1.0000
  H   H74       1.0  0.04000000000000001  0.16642  0.09788  1.0000
  H   H75       1.0  0.06389000000000002  0.15308  0.31389  1.0000
  H   H76       1.0  0.20175000000000007  0.99534  0.26682  1.0000
  H   H77       1.0  0.05790999999999999  0.99074  0.24227  1.0000
  H   H78       1.0  0.11707000000000002  0.0644  0.31194  1.0000
  H   H79       1.0  0.10742999999999991  0.9004800000000001  0.2402  1.0000
  H   H80       1.0  0.25115  0.90489  0.26407  1.0000
  H   H81       1.0  0.9585299999999999  0.2927400000000001  0.15963  1.0000
  H   H82       1.0  0.88242  0.29887  0.1955  1.0000
  H   H83       1.0  0.9371099999999999  0.3664  0.202  1.0000
  H   H84       1.0  0.8889199999999999  0.38081  0.17113  1.0000
  H   H85       1.0  0.8605500000000003  0.37359  0.23539999999999994  1.0000
  H   H86       1.0  0.15402999999999994  0.4689000000000001  0.34714  1.0000
  H   H87       1.0  0.33977000000000007  0.27941  0.32582  1.0000
  H   H88       1.0  0.19979  0.38219  0.46292  1.0000
  H   H89       1.0  0.3239500000000002  0.4433  0.30282  1.0000
  H   H90       1.0  0.25611999999999996  0.41961  0.28671  1.0000
  H   H91       1.0  0.30393  0.33393  0.40231  1.0000
  H   H92       1.0  0.5314099999999998  0.3463  0.18602  1.0000
  H   H93       1.0  0.4643400000000002  0.50371  0.23356  1.0000
  H   H94       1.0  0.29099  0.50878  0.25801  1.0000
  H   H95       1.0  0.49418000000000023  0.43504  0.18804999999999994  1.0000
  H   H96       1.0  0.24837000000000006  0.59909  0.25973  1.0000
  H   H97       1.0  0.42061999999999994  0.5943  0.23613  1.0000
  H   H98       1.0  0.4109300000000001  0.20721000000000003  0.34033  1.0000
  H   H99       1.0  0.37689999999999996  0.20131000000000004  0.30438  1.0000
  H   H100      1.0  0.5057899999999999  0.1335  0.298  1.0000
  H   H101      1.0  0.44087000000000004  0.11928  0.32896  1.0000
  H   H102      1.0  0.46978999999999993  0.12642  0.26468  1.0000
  H   H103      1.0  0.028550000000000082  0.34781  0.46917999999999993  1.0000
  H   H104      1.0  0.055239999999999984  0.32548  0.2794  1.0000
  H   H105      1.0  0.9539100000000001  0.46305  0.38199  1.0000
  H   H106      1.0  0.9305600000000002  0.30241  0.44337  1.0000
  H   H107      1.0  0.037460000000000035  0.28712  0.41964  1.0000
  H   H108      1.0  0.96  0.40212  0.33358  1.0000
  H   H109      1.0  0.9361  0.18611  0.34691999999999995  1.0000
  H   H110      1.0  0.7982500000000001  0.23318  0.50466  1.0000
  H   H111      1.0  0.94208  0.25773  0.50926  1.0000
  H   H112      1.0  0.88293  0.18806  0.43559999999999993  1.0000
  H   H113      1.0  0.8925600000000001  0.2598  0.5995199999999998  1.0000
  H   H114      1.0  0.7488400000000002  0.23593  0.5951099999999998  1.0000
  H   H115      1.0  0.04145999999999996  0.34037000000000006  0.20726  1.0000
  H   H116      1.0  0.11757  0.3045  0.20113  1.0000
  H   H117      1.0  0.06289  0.29800000000000004  0.1336  1.0000
  H   H118      1.0  0.11106999999999999  0.32887000000000005  0.11918999999999998  1.0000
  H   H119      1.0  0.13943999999999998  0.2646  0.12641  1.0000
  H   H120      1.0  0.8459699999999999  0.15286  0.0311  1.0000
  H   H121      1.0  0.6602200000000001  0.17418  0.22059  1.0000
  H   H122      1.0  0.80021  0.03708  0.11781  1.0000
  H   H123      1.0  0.6760499999999999  0.19717000000000007  0.0567  1.0000
  H   H124      1.0  0.74388  0.21329  0.08038999999999999  1.0000
  H   H125      1.0  0.6960600000000001  0.09769  0.16608  1.0000
  H   H126      1.0  0.4685900000000001  0.31398  0.1537  1.0000
  H   H127      1.0  0.53565  0.26645  0.99629  1.0000
  H   H128      1.0  0.7090000000000002  0.24199  0.99121  1.0000
  H   H129      1.0  0.50582  0.31195  0.06496  1.0000
  H   H130      1.0  0.7516200000000005  0.24027  0.9008999999999999  1.0000
  H   H131      1.0  0.57937  0.26387  0.9057  1.0000
  H   H132      1.0  0.5890699999999999  0.15967000000000003  0.29278999999999994  1.0000
  H   H133      1.0  0.62309  0.19562  0.29869  1.0000
  H   H134      1.0  0.4942000000000001  0.202  0.3665  1.0000
  H   H135      1.0  0.55913  0.17104  0.38072  1.0000
  H   H136      1.0  0.5301999999999999  0.23532  0.37358  1.0000
  H   H137      1.0  0.9985200000000001  0.84722  0.5309  1.0000
  H   H138      1.0  0.8342900000000001  0.8257  0.72067  1.0000
  H   H139      1.0  0.8366800000000001  0.96289  0.6178699999999998  1.0000
  H   H140      1.0  0.87308  0.8028  0.55687  1.0000
  H   H141      1.0  0.9570800000000002  0.78674  0.58003  1.0000
  H   H142      1.0  0.7935000000000002  0.90224  0.6660599999999998  1.0000
  H   H143      1.0  0.7827200000000001  0.6861  0.65372  1.0000
  H   H144      1.0  0.8022400000000001  0.73347  0.49651  1.0000
  H   H145      1.0  0.9509799999999999  0.75805  0.49122  1.0000
  H   H146      1.0  0.8177500000000003  0.68826  0.56501  1.0000
  H   H147      1.0  0.9917  0.75981  0.40094  1.0000
  H   H148      1.0  0.8432099999999999  0.73594  0.40597  1.0000
  H   H149      1.0  0.7487599999999999  0.8402000000000001  0.7926  1.0000
  H   H150      1.0  0.81886  0.80424  0.79852  1.0000
  H   H151      1.0  0.6963399999999998  0.7980000000000003  0.86637  1.0000
  H   H152      1.0  0.7302700000000001  0.82893  0.88054  1.0000
  H   H153      1.0  0.76575  0.7646100000000001  0.87348  1.0000
  H   H154      1.0  0.37638  0.65292  0.96903  1.0000
  H   H155      1.0  0.38093999999999995  0.6745000000000001  0.77946  1.0000
  H   H156      1.0  0.4174600000000001  0.53712  0.8824  1.0000
  H   H157      1.0  0.2329300000000001  0.69763  0.9434999999999998  1.0000
  H   H158      1.0  0.32468000000000014  0.7132400000000001  0.91915  1.0000
  H   H159      1.0  0.36250999999999994  0.59772  0.83375  1.0000
  H   H160      1.0  0.12187999999999999  0.81397  0.84694  1.0000
  H   H161      1.0  0.031129999999999897  0.7667300000000002  0.00486  1.0000
  H   H162      1.0  0.19972000000000004  0.74232  0.00928  1.0000
  H   H163      1.0  0.07071000000000001  0.81221  0.93564  1.0000
  H   H164      1.0  0.15231000000000003  0.74035  0.09957  1.0000
  H   H165      1.0  0.9846299999999999  0.76396  0.09534999999999999  1.0000
  H   H166      1.0  0.3820999999999998  0.65953  0.70709  1.0000
  H   H167      1.0  0.42243000000000036  0.6952200000000001  0.70091  1.0000
  H   H168      1.0  0.36085000000000006  0.70199  0.63357  1.0000
  H   H169      1.0  0.44005  0.67109  0.61894  1.0000
  H   H170      1.0  0.40396  0.73533  0.62635  1.0000
  H   H171      1.0  0.0014700000000000075  0.9691  0.65278  1.0000
  H   H172      1.0  0.16570000000000001  0.7793300000000002  0.6742999999999998  1.0000
  H   H173      1.0  0.1633  0.88214  0.53711  1.0000
  H   H174      1.0  0.12691  0.94312  0.69719  1.0000
  H   H175      1.0  0.0429099999999999  0.9199700000000002  0.71326  1.0000
  H   H176      1.0  0.20648999999999998  0.83394  0.59776  1.0000
  H   H177      1.0  0.21726999999999982  0.84628  0.8139  1.0000
  H   H178      1.0  0.19775000000000006  0.0034900000000000005  0.76653  1.0000
  H   H179      1.0  0.049010000000000026  0.00878  0.7419499999999999  1.0000
  H   H180      1.0  0.1822300000000002  0.935  0.8117399999999998  1.0000
  H   H181      1.0  0.008290000000000106  0.09907  0.7401799999999997  1.0000
  H   H182      1.0  0.15678  0.09403  0.76406  1.0000
  H   H183      1.0  0.25123  0.7074  0.6598  1.0000
  H   H184      1.0  0.18113000000000015  0.70148  0.6957599999999998  1.0000
  H   H185      1.0  0.3036499999999999  0.63363  0.702  1.0000
  H   H186      1.0  0.2697200000000001  0.61946  0.6710699999999998  1.0000
  H   H187      1.0  0.23424000000000006  0.62652  0.73539  1.0000
  H   H188      1.0  0.6236  0.53097  0.8470799999999999  1.0000
  H   H189      1.0  0.6190399999999999  0.72054  0.8255  1.0000
  H   H190      1.0  0.5825200000000005  0.6176  0.96288  1.0000
  H   H191      1.0  0.7670600000000001  0.55651  0.80237  1.0000
  H   H192      1.0  0.6753099999999999  0.58085  0.78676  1.0000
  H   H193      1.0  0.6374700000000002  0.6662500000000002  0.9022799999999997  1.0000
  H   H194      1.0  0.8781100000000003  0.65306  0.68603  1.0000
  H   H195      1.0  0.9688599999999999  0.49514  0.73327  1.0000
  H   H196      1.0  0.80027  0.49072  0.75768  1.0000
  H   H197      1.0  0.92927  0.56436  0.68779  1.0000
  H   H198      1.0  0.8476800000000002  0.40043000000000006  0.7596499999999999  1.0000
  H   H199      1.0  0.015370000000000028  0.40465  0.73604  1.0000
  H   H200      1.0  0.6178899999999999  0.79291  0.84047  1.0000
  H   H201      1.0  0.5775600000000003  0.79909  0.80478  1.0000
  H   H202      1.0  0.6391400000000002  0.86643  0.79801  1.0000
  H   H203      1.0  0.5599400000000004  0.88106  0.82891  1.0000
  H   H204      1.0  0.59602  0.87365  0.76467  1.0000
  H   H205      1.0  0.0014699999999999744  0.15278  0.4691  1.0000
  H   H206      1.0  0.16570000000000001  0.17431  0.27933  1.0000
  H   H207      1.0  0.16331000000000004  0.03711  0.38213  1.0000
  H   H208      1.0  0.12691000000000002  0.1972  0.44312  1.0000
  H   H209      1.0  0.04291  0.21326  0.41997  1.0000
  H   H210      1.0  0.20649  0.09776  0.33393999999999996  1.0000
  H   H211      1.0  0.21726999999999996  0.3139  0.34626999999999997  1.0000
  H   H212      1.0  0.19776  0.26654  0.50349  1.0000
  H   H213      1.0  0.049009999999999936  0.24195000000000003  0.50878  1.0000
  H   H214      1.0  0.18224000000000007  0.31174  0.4349899999999999  1.0000
  H   H215      1.0  0.008290000000000014  0.24019000000000001  0.59906  1.0000
  H   H216      1.0  0.15678000000000003  0.26406  0.59403  1.0000
  H   H217      1.0  0.2512300000000001  0.1598  0.2074  1.0000
  H   H218      1.0  0.18113  0.19576000000000002  0.20147999999999996  1.0000
  H   H219      1.0  0.30365000000000003  0.202  0.13363  1.0000
  H   H220      1.0  0.26971999999999996  0.17107000000000006  0.11945  1.0000
  H   H221      1.0  0.23425  0.23539  0.12652  1.0000
  H   H222      1.0  0.62361  0.34708  0.03097  1.0000
  H   H223      1.0  0.61905  0.3255  0.22054  1.0000
  H   H224      1.0  0.58253  0.4628900000000001  0.1176  1.0000
  H   H225      1.0  0.7670599999999999  0.3023700000000001  0.0565  1.0000
  H   H226      1.0  0.67531  0.28676  0.08085  1.0000
  H   H227      1.0  0.63748  0.40229000000000004  0.16624  1.0000
  H   H228      1.0  0.87811  0.18603000000000003  0.15306  1.0000
  H   H229      1.0  0.9688700000000002  0.23327  0.99513  1.0000
  H   H230      1.0  0.8002700000000001  0.25768  0.99071  1.0000
  H   H231      1.0  0.92928  0.18779000000000004  0.06436  1.0000
  H   H232      1.0  0.8476800000000002  0.25965  0.9004299999999997  1.0000
  H   H233      1.0  0.015369999999999962  0.23604  0.90465  1.0000
  H   H234      1.0  0.61789  0.34047000000000005  0.29291  1.0000
  H   H235      1.0  0.57756  0.30478  0.29908999999999997  1.0000
  H   H236      1.0  0.6391400000000002  0.29801000000000005  0.36643  1.0000
  H   H237      1.0  0.55994  0.32891  0.38106  1.0000
  H   H238      1.0  0.59603  0.26468  0.37365  1.0000
  H   H239      1.0  0.9985200000000002  0.0309  0.34722  1.0000
  H   H240      1.0  0.8342900000000001  0.22067000000000003  0.32569999999999993  1.0000
  H   H241      1.0  0.83669  0.11787000000000002  0.46289  1.0000
  H   H242      1.0  0.87309  0.05688  0.3028  1.0000
  H   H243      1.0  0.9570800000000002  0.08003  0.28674  1.0000
  H   H244      1.0  0.7935  0.16606  0.40224  1.0000
  H   H245      1.0  0.78273  0.15373  0.1861  1.0000
  H   H246      1.0  0.8022400000000003  0.99651  0.23345999999999997  1.0000
  H   H247      1.0  0.9509800000000002  0.9912200000000001  0.25805  1.0000
  H   H248      1.0  0.81776  0.06501  0.18826  1.0000
  H   H249      1.0  0.9917  0.90094  0.25981  1.0000
  H   H250      1.0  0.8432100000000001  0.90597  0.23594  1.0000
  H   H251      1.0  0.7487600000000001  0.2926  0.3402  1.0000
  H   H252      1.0  0.8188700000000001  0.29852  0.30424  1.0000
  H   H253      1.0  0.69634  0.3663700000000001  0.298  1.0000
  H   H254      1.0  0.73028  0.38055000000000005  0.32893  1.0000
  H   H255      1.0  0.76575  0.37348  0.26461  1.0000
  H   H256      1.0  0.37639000000000006  0.46903  0.15292  1.0000
  H   H257      1.0  0.38095000000000007  0.27946  0.1745  1.0000
  H   H258      1.0  0.41747  0.3824  0.03711  1.0000
  H   H259      1.0  0.2329300000000001  0.4435  0.19763  1.0000
  H   H260      1.0  0.32468  0.41915  0.21324  1.0000
  H   H261      1.0  0.3625200000000001  0.33376  0.09771  1.0000
  H   H262      1.0  0.12189000000000003  0.34694  0.31396999999999997  1.0000
  H   H263      1.0  0.03113000000000003  0.50486  0.26673  1.0000
  H   H264      1.0  0.19972000000000006  0.50928  0.24231999999999998  1.0000
  H   H265      1.0  0.07072  0.43564  0.31221  1.0000
  H   H266      1.0  0.15230999999999997  0.5995700000000003  0.24035  1.0000
  H   H267      1.0  0.9846299999999999  0.59535  0.26396  1.0000
  H   H268      1.0  0.38210999999999995  0.20709  0.15952999999999998  1.0000
  H   H269      1.0  0.42244000000000004  0.20091  0.19522  1.0000
  H   H270      1.0  0.3608600000000001  0.13357  0.20199  1.0000
  H   H271      1.0  0.44006  0.11894  0.17108999999999996  1.0000
  H   H272      1.0  0.40397  0.12635  0.23532  1.0000
  C   C1        1.0  0.98601  0.9576700000000001  0.94519  1.0000
  C   C2        1.0  0.9893300000000002  0.92912  0.90914  1.0000
  C   C3        1.0  0.9679000000000001  0.84281  0.74149  1.0000
  C   C4        1.0  0.013080000000000026  0.93982  0.85944  1.0000
  C   C5        1.0  0.029910000000000027  0.79689  0.8028299999999998  1.0000
  C   C6        1.0  0.031120000000000026  0.76908  0.77029  1.0000
  C   C7        1.0  0.9667099999999998  0.8713100000000003  0.77446  1.0000
  C   C8        1.0  0.97128  0.89018  0.9244199999999998  1.0000
  C   C9        1.0  0.9333000000000001  0.92237  0.776  1.0000
  C   C10       1.0  0.99735  0.87444  0.84068  1.0000
  C   C11       1.0  0.00017999999999998334  0.79132  0.73991  1.0000
  C   C12       1.0  0.99846  0.84697  0.8052699999999999  1.0000
  C   C13       1.0  0.017350000000000143  0.91238  0.8256999999999998  1.0000
  C   C14       1.0  0.9751200000000002  0.86317  0.89046  1.0000
  C   C15       1.0  0.9037900000000004  0.94634  0.7452499999999997  1.0000
  C   C16       1.0  0.9353900000000004  0.86781  0.7115299999999999  1.0000
  C   C17       1.0  0.7883900000000001  0.15719000000000005  0.7495799999999999  1.0000
  C   C18       1.0  0.8192800000000001  0.025190000000000008  0.7388699999999998  1.0000
  C   C19       1.0  0.8994300000000003  0.02782  0.7533699999999999  1.0000
  C   C20       1.0  0.81745  0.10297  0.74821  1.0000
  C   C21       1.0  0.87364  5.999999999999998e-05  0.7457899999999998  1.0000
  C   C22       1.0  0.9049999999999999  0.9177200000000002  0.71297  1.0000
  C   C23       1.0  0.8721200000000005  0.07837  0.75437  1.0000
  C   C24       1.0  0.79129  0.07585000000000001  0.74048  1.0000
  C   C25       1.0  0.08036000000000001  0.69392  0.80549  1.0000
  C   C26       1.0  0.09958  0.64016  0.79871  1.0000
  C   C27       1.0  0.8895400000000002  0.54234  0.55565  1.0000
  C   C28       1.0  0.82816  0.57099  0.59143  1.0000
  C   C29       1.0  0.5519599999999999  0.6573400000000001  0.7584  1.0000
  C   C30       1.0  0.8126400000000001  0.56031  0.64114  1.0000
  C   C31       1.0  0.6296100000000001  0.70319  0.69687  1.0000
  C   C32       1.0  0.5704  0.73098  0.72951  1.0000
  C   C33       1.0  0.61228  0.62885  0.72531  1.0000
  C   C34       1.0  0.7866400000000001  0.60973  0.57576  1.0000
  C   C35       1.0  0.6314300000000002  0.57784  0.72375  1.0000
  C   C36       1.0  0.7125799999999998  0.6254600000000002  0.65932  1.0000
  C   C37       1.0  0.53138  0.70874  0.75996  1.0000
  C   C38       1.0  0.6505900000000003  0.65311  0.6944799999999999  1.0000
  C   C39       1.0  0.75537  0.58764  0.67468  1.0000
  C   C40       1.0  0.7291499999999997  0.6366500000000003  0.60951  1.0000
  C   C41       1.0  0.5949400000000001  0.5541  0.7546899999999999  1.0000
  C   C42       1.0  0.51421  0.63261  0.78852  1.0000
  C   C43       1.0  0.69448  0.34363  0.7512  1.0000
  C   C44       1.0  0.58287  0.47555  0.7609899999999998  1.0000
  C   C45       1.0  0.6804200000000001  0.4727200000000001  0.74654  1.0000
  C   C46       1.0  0.6680800000000001  0.39779  0.75202  1.0000
  C   C47       1.0  0.6191699999999999  0.50046  0.75415  1.0000
  C   C48       1.0  0.53512  0.58272  0.78707  1.0000
  C   C49       1.0  0.7045300000000001  0.42220000000000013  0.74571  1.0000
  C   C50       1.0  0.60707  0.42491  0.75949  1.0000
  C   C51       1.0  0.5796199999999999  0.8060800000000002  0.6945599999999997  1.0000
  C   C52       1.0  0.5382600000000001  0.85985  0.70122  1.0000
  C   C53       1.0  0.01397000000000004  0.55481  0.54233  1.0000
  C   C54       1.0  0.010659999999999956  0.5908600000000002  0.57088  1.0000
  C   C55       1.0  0.03209000000000003  0.75851  0.65719  1.0000
  C   C56       1.0  0.9868999999999999  0.6405600000000001  0.56018  1.0000
  C   C57       1.0  0.9700800000000002  0.69717  0.70311  1.0000
  C   C58       1.0  0.9688700000000001  0.72971  0.73092  1.0000
  C   C59       1.0  0.03327000000000002  0.72554  0.6286899999999997  1.0000
  C   C60       1.0  0.028709999999999927  0.57558  0.60982  1.0000
  C   C61       1.0  0.06668999999999996  0.7240000000000001  0.57763  1.0000
  C   C62       1.0  0.0026400000000000646  0.65932  0.62556  1.0000
  C   C63       1.0  0.9998099999999999  0.7600900000000003  0.70868  1.0000
  C   C64       1.0  0.0015299999999999578  0.69473  0.65303  1.0000
  C   C65       1.0  0.9826399999999998  0.6743000000000001  0.58762  1.0000
  C   C66       1.0  0.024870000000000093  0.60954  0.6368299999999999  1.0000
  C   C67       1.0  0.09620000000000001  0.75475  0.55366  1.0000
  C   C68       1.0  0.06459999999999998  0.7884700000000002  0.63219  1.0000
  C   C69       1.0  0.2116  0.75042  0.34280999999999995  1.0000
  C   C70       1.0  0.1807100000000001  0.76113  0.47481  1.0000
  C   C71       1.0  0.10055999999999989  0.7466300000000002  0.47218  1.0000
  C   C72       1.0  0.18254  0.7517900000000002  0.39703  1.0000
  C   C73       1.0  0.12635000000000002  0.75421  0.4999399999999999  1.0000
  C   C74       1.0  0.09499  0.78703  0.58228  1.0000
  C   C75       1.0  0.12787000000000012  0.74563  0.42163999999999996  1.0000
  C   C76       1.0  0.2087  0.75952  0.42414999999999997  1.0000
  C   C77       1.0  0.9196300000000001  0.69451  0.80608  1.0000
  C   C78       1.0  0.90041  0.70129  0.8598399999999998  1.0000
  C   C79       1.0  0.11045000000000002  0.94435  0.95766  1.0000
  C   C80       1.0  0.1718299999999999  0.9085700000000001  0.92901  1.0000
  C   C81       1.0  0.4480300000000001  0.7416  0.8426599999999999  1.0000
  C   C82       1.0  0.1873500000000002  0.8588600000000001  0.9396899999999998  1.0000
  C   C83       1.0  0.3703800000000001  0.80313  0.79681  1.0000
  C   C84       1.0  0.42957999999999996  0.77049  0.76902  1.0000
  C   C85       1.0  0.38771  0.77469  0.8711499999999999  1.0000
  C   C86       1.0  0.2133500000000003  0.92424  0.8902699999999998  1.0000
  C   C87       1.0  0.36856000000000017  0.7762500000000002  0.92216  1.0000
  C   C88       1.0  0.28740999999999994  0.84068  0.87454  1.0000
  C   C89       1.0  0.46861000000000036  0.74004  0.79126  1.0000
  C   C90       1.0  0.3494  0.80552  0.84689  1.0000
  C   C91       1.0  0.24461999999999995  0.8253300000000002  0.9123599999999998  1.0000
  C   C92       1.0  0.27084000000000014  0.8905  0.86335  1.0000
  C   C93       1.0  0.4050500000000001  0.74531  0.9458999999999999  1.0000
  C   C94       1.0  0.48578  0.71148  0.8673899999999999  1.0000
  C   C95       1.0  0.3055100000000001  0.7488  0.15636999999999995  1.0000
  C   C96       1.0  0.41712  0.73901  0.02445  1.0000
  C   C97       1.0  0.31957999999999986  0.7534600000000002  0.02728  1.0000
  C   C98       1.0  0.33191000000000004  0.74798  0.10221  1.0000
  C   C99       1.0  0.38081999999999977  0.74585  0.99954  1.0000
  C   C100      1.0  0.46486999999999995  0.71293  0.91728  1.0000
  C   C101      1.0  0.2954699999999999  0.7542900000000002  0.07779999999999997  1.0000
  C   C102      1.0  0.39292  0.74051  0.07508999999999999  1.0000
  C   C103      1.0  0.42037000000000013  0.8054400000000002  0.6939199999999998  1.0000
  C   C104      1.0  0.46172  0.79878  0.64015  1.0000
  C   C105      1.0  0.013980000000000022  0.04233  0.054809999999999984  1.0000
  C   C106      1.0  0.010670000000000013  0.07088  0.09085999999999997  1.0000
  C   C107      1.0  0.03208999999999998  0.15719000000000005  0.25851  1.0000
  C   C108      1.0  0.98691  0.06019000000000001  0.14055  1.0000
  C   C109      1.0  0.97008  0.20311  0.19717  1.0000
  C   C110      1.0  0.96888  0.23092000000000001  0.22971  1.0000
  C   C111      1.0  0.03327999999999999  0.1287  0.22554  1.0000
  C   C112      1.0  0.02871999999999999  0.10982000000000003  0.07556999999999998  1.0000
  C   C113      1.0  0.06669  0.07763  0.224  1.0000
  C   C114      1.0  0.002640000000000015  0.12556  0.15932  1.0000
  C   C115      1.0  0.99981  0.20868  0.26009  1.0000
  C   C116      1.0  0.001529999999999991  0.15303  0.19472  1.0000
  C   C117      1.0  0.9826400000000002  0.08762  0.1743  1.0000
  C   C118      1.0  0.024880000000000013  0.13683  0.10953999999999997  1.0000
  C   C119      1.0  0.09620000000000001  0.05367  0.25475  1.0000
  C   C120      1.0  0.0646  0.13219  0.28847  1.0000
  C   C121      1.0  0.21160000000000007  0.84281  0.25042  1.0000
  C   C122      1.0  0.1807100000000001  0.97481  0.26113  1.0000
  C   C123      1.0  0.10055999999999994  0.9721800000000002  0.24662999999999993  1.0000
  C   C124      1.0  0.18253999999999995  0.89703  0.25179  1.0000
  C   C125      1.0  0.12634999999999996  0.9999400000000002  0.25421  1.0000
  C   C126      1.0  0.09499000000000002  0.08228  0.28702  1.0000
  C   C127      1.0  0.12786999999999993  0.9216400000000002  0.24563  1.0000
  C   C128      1.0  0.2086999999999999  0.9241500000000002  0.25952  1.0000
  C   C129      1.0  0.9196300000000002  0.30608  0.19451  1.0000
  C   C130      1.0  0.90041  0.35984000000000005  0.20128  1.0000
  C   C131      1.0  0.11045000000000005  0.45766  0.44435  1.0000
  C   C132      1.0  0.1718299999999999  0.42901000000000006  0.40856  1.0000
  C   C133      1.0  0.44802999999999993  0.34266000000000013  0.2416  1.0000
  C   C134      1.0  0.18734999999999996  0.4397  0.35886  1.0000
  C   C135      1.0  0.37038000000000004  0.29681  0.30313  1.0000
  C   C136      1.0  0.42959  0.26902  0.27049  1.0000
  C   C137      1.0  0.3877100000000002  0.37115  0.27469  1.0000
  C   C138      1.0  0.21335000000000018  0.39027  0.4242399999999999  1.0000
  C   C139      1.0  0.3685599999999998  0.42217  0.27625  1.0000
  C   C140      1.0  0.2874099999999999  0.37454000000000004  0.34067  1.0000
  C   C141      1.0  0.4686099999999999  0.29126  0.24003  1.0000
  C   C142      1.0  0.34939999999999993  0.34689000000000003  0.30551  1.0000
  C   C143      1.0  0.24461999999999998  0.4123600000000001  0.32532  1.0000
  C   C144      1.0  0.2708400000000001  0.36336000000000007  0.39049  1.0000
  C   C145      1.0  0.4050499999999999  0.4459000000000001  0.2453  1.0000
  C   C146      1.0  0.48578  0.36739000000000005  0.21147999999999995  1.0000
  C   C147      1.0  0.30550999999999995  0.65637  0.24879  1.0000
  C   C148      1.0  0.41711999999999994  0.52445  0.23900999999999997  1.0000
  C   C149      1.0  0.3195800000000001  0.52728  0.25346  1.0000
  C   C150      1.0  0.33190999999999987  0.60221  0.24798  1.0000
  C   C151      1.0  0.38082  0.49954000000000004  0.24585  1.0000
  C   C152      1.0  0.46488  0.41728  0.21293  1.0000
  C   C153      1.0  0.29547000000000007  0.5778  0.25429  1.0000
  C   C154      1.0  0.39292  0.57509  0.24051  1.0000
  C   C155      1.0  0.4203800000000001  0.19392  0.30543999999999993  1.0000
  C   C156      1.0  0.46173000000000003  0.14015  0.29877  1.0000
  C   C157      1.0  0.98602  0.44519  0.45767  1.0000
  C   C158      1.0  0.98933  0.4091400000000001  0.42912  1.0000
  C   C159      1.0  0.9679000000000002  0.24149000000000004  0.34280999999999995  1.0000
  C   C160      1.0  0.013090000000000029  0.35945  0.43981  1.0000
  C   C161      1.0  0.029909999999999992  0.30283  0.29688999999999993  1.0000
  C   C162      1.0  0.031119999999999995  0.27029  0.26908  1.0000
  C   C163      1.0  0.9667199999999999  0.27446  0.37129999999999996  1.0000
  C   C164      1.0  0.97128  0.42443  0.39018  1.0000
  C   C165      1.0  0.93331  0.27601  0.42237  1.0000
  C   C166      1.0  0.99736  0.3406800000000001  0.37444  1.0000
  C   C167      1.0  0.0001900000000000192  0.23991  0.29132  1.0000
  C   C168      1.0  0.9984600000000001  0.30528  0.3469599999999999  1.0000
  C   C169      1.0  0.01735000000000001  0.3257  0.41238  1.0000
  C   C170      1.0  0.97512  0.39046  0.36317  1.0000
  C   C171      1.0  0.9038  0.24525  0.44632999999999995  1.0000
  C   C172      1.0  0.9354  0.21153  0.36780999999999997  1.0000
  C   C173      1.0  0.7883900000000001  0.24959  0.65719  1.0000
  C   C174      1.0  0.8192800000000002  0.23887  0.52519  1.0000
  C   C175      1.0  0.8994299999999998  0.25337  0.52782  1.0000
  C   C176      1.0  0.81745  0.24822000000000005  0.60297  1.0000
  C   C177      1.0  0.8736399999999999  0.24579000000000006  0.50006  1.0000
  C   C178      1.0  0.9050100000000001  0.21298  0.41772  1.0000
  C   C179      1.0  0.87212  0.25437  0.57836  1.0000
  C   C180      1.0  0.79129  0.24048  0.57584  1.0000
  C   C181      1.0  0.08036999999999998  0.30549  0.19392  1.0000
  C   C182      1.0  0.09958000000000004  0.29872  0.14016  1.0000
  C   C183      1.0  0.88954  0.05565  0.04233999999999999  1.0000
  C   C184      1.0  0.82816  0.09144  0.07099  1.0000
  C   C185      1.0  0.55196  0.2584  0.15734  1.0000
  C   C186      1.0  0.8126400000000003  0.14114  0.0603  1.0000
  C   C187      1.0  0.62961  0.19687  0.20319  1.0000
  C   C188      1.0  0.57041  0.22951  0.23098  1.0000
  C   C189      1.0  0.61228  0.22531  0.12885  1.0000
  C   C190      1.0  0.7866400000000001  0.07576  0.10973  1.0000
  C   C191      1.0  0.6314300000000003  0.22375  0.07783  1.0000
  C   C192      1.0  0.71258  0.15932  0.12546  1.0000
  C   C193      1.0  0.53138  0.25997  0.20874  1.0000
  C   C194      1.0  0.6505999999999998  0.19449  0.15311  1.0000
  C   C195      1.0  0.75537  0.17468  0.08764  1.0000
  C   C196      1.0  0.72916  0.10951000000000002  0.13665  1.0000
  C   C197      1.0  0.59495  0.2547  0.0541  1.0000
  C   C198      1.0  0.51422  0.28852  0.13261  1.0000
  C   C199      1.0  0.69448  0.25121  0.84363  1.0000
  C   C200      1.0  0.5828699999999999  0.261  0.97555  1.0000
  C   C201      1.0  0.68042  0.24654  0.97272  1.0000
  C   C202      1.0  0.66808  0.25202  0.8977799999999999  1.0000
  C   C203      1.0  0.6191700000000002  0.25415  0.00045  1.0000
  C   C204      1.0  0.5351200000000002  0.28707  0.08272  1.0000
  C   C205      1.0  0.7045300000000001  0.24571  0.9222  1.0000
  C   C206      1.0  0.60707  0.25949  0.92491  1.0000
  C   C207      1.0  0.57962  0.19456  0.3060799999999999  1.0000
  C   C208      1.0  0.53827  0.20123  0.35985  1.0000
  C   C209      1.0  0.9448200000000001  0.94446  0.5422  1.0000
  C   C210      1.0  0.9192899999999999  0.90864  0.57095  1.0000
  C   C211      1.0  0.8106000000000003  0.74147  0.65744  1.0000
  C   C212      1.0  0.9535300000000001  0.85893  0.56022  1.0000
  C   C213      1.0  0.8265899999999999  0.8029600000000002  0.7032  1.0000
  C   C214      1.0  0.8001000000000005  0.77031  0.73099  1.0000
  C   C215      1.0  0.8377400000000003  0.7745600000000001  0.62895  1.0000
  C   C216      1.0  0.8620700000000003  0.92422  0.60975  1.0000
  C   C217      1.0  0.8551900000000001  0.77619  0.57796  1.0000
  C   C218      1.0  0.8718600000000001  0.8406100000000001  0.6254599999999999  1.0000
  C   C219      1.0  0.79154  0.73984  0.70883  1.0000
  C   C220      1.0  0.8452  0.8054  0.65314  1.0000
  C   C221      1.0  0.9299400000000002  0.8253500000000003  0.5874999999999998  1.0000
  C   C222      1.0  0.8384799999999998  0.89043  0.63667  1.0000
  C   C223      1.0  0.8496899999999998  0.74531  0.5542  1.0000
  C   C224      1.0  0.80294  0.71148  0.63267  1.0000
  C   C225      1.0  0.94518  0.7495300000000003  0.34373999999999993  1.0000
  C   C226      1.0  0.8439800000000001  0.73889  0.47569  1.0000
  C   C227      1.0  0.9269599999999999  0.7534200000000001  0.47278  1.0000
  C   C228      1.0  0.9199500000000004  0.7480600000000002  0.39787999999999996  1.0000
  C   C229      1.0  0.8733699999999999  0.74582  0.50057  1.0000
  C   C230      1.0  0.82227  0.713  0.5828  1.0000
  C   C231      1.0  0.95014  0.7542900000000002  0.42227999999999993  1.0000
  C   C232      1.0  0.86659  0.7403900000000001  0.42507  1.0000
  C   C233      1.0  0.7742900000000003  0.80536  0.8059699999999999  1.0000
  C   C234      1.0  0.73965  0.79871  0.85974  1.0000
  C   C235      1.0  0.43126000000000003  0.55558  0.9579499999999999  1.0000
  C   C236      1.0  0.3985600000000001  0.59137  0.92929  1.0000
  C   C237      1.0  0.20916000000000004  0.75839  0.84287  1.0000
  C   C238      1.0  0.37255  0.6411  0.93977  1.0000
  C   C239      1.0  0.33282999999999996  0.69705  0.79687  1.0000
  C   C240      1.0  0.3014599999999999  0.72957  0.76907  1.0000
  C   C241      1.0  0.24102  0.72543  0.87136  1.0000
  C   C242      1.0  0.39597000000000004  0.57578  0.89045  1.0000
  C   C243      1.0  0.20919  0.72398  0.92246  1.0000
  C   C244      1.0  0.33810000000000007  0.65937  0.8744199999999998  1.0000
  C   C245      1.0  0.24001000000000014  0.75989  0.7913899999999998  1.0000
  C   C246      1.0  0.30369000000000007  0.6946300000000002  0.84694  1.0000
  C   C247      1.0  0.34307999999999994  0.67462  0.9122  1.0000
  C   C248      1.0  0.3658  0.60955  0.86333  1.0000
  C   C249      1.0  0.14884000000000006  0.75482  0.94641  1.0000
  C   C250      1.0  0.14661000000000005  0.78849  0.86785  1.0000
  C   C251      1.0  0.03767999999999998  0.7511  0.1573  1.0000
  C   C252      1.0  0.05793999999999993  0.7610800000000001  0.02532  1.0000
  C   C253      1.0  0.15269  0.74667  0.02787999999999999  1.0000
  C   C254      1.0  0.06552000000000004  0.75197  0.10307  1.0000
  C   C255      1.0  0.11923999999999993  0.7542500000000001  0.00016  1.0000
  C   C256      1.0  0.1177100000000001  0.78713  0.91778  1.0000
  C   C257      1.0  0.1264100000000001  0.74574  0.07844  1.0000
  C   C258      1.0  0.03162000000000003  0.7595  0.07599  1.0000
  C   C259      1.0  0.3860600000000002  0.6944000000000001  0.6937899999999999  1.0000
  C   C260      1.0  0.39835000000000004  0.7012  0.6400599999999999  1.0000
  C   C261      1.0  0.05516999999999996  0.95779  0.55554  1.0000
  C   C262      1.0  0.08069000000000004  0.92905  0.59136  1.0000
  C   C263      1.0  0.18938999999999984  0.84256  0.75853  1.0000
  C   C264      1.0  0.04644999999999988  0.93978  0.64107  1.0000
  C   C265      1.0  0.17340000000000008  0.7968  0.6970399999999999  1.0000
  C   C266      1.0  0.19989  0.76901  0.72969  1.0000
  C   C267      1.0  0.16225000000000006  0.87105  0.72544  1.0000
  C   C268      1.0  0.13792000000000004  0.89025  0.57578  1.0000
  C   C269      1.0  0.14478999999999986  0.9220400000000002  0.72381  1.0000
  C   C270      1.0  0.12813000000000005  0.87454  0.65939  1.0000
  C   C271      1.0  0.20844999999999986  0.7911700000000003  0.76016  1.0000
  C   C272      1.0  0.15478999999999998  0.8468600000000002  0.6946  1.0000
  C   C273      1.0  0.07003999999999995  0.9125000000000001  0.67465  1.0000
  C   C274      1.0  0.16149999999999998  0.86333  0.60957  1.0000
  C   C275      1.0  0.15029999999999993  0.9458  0.7546899999999999  1.0000
  C   C276      1.0  0.19705000000000003  0.86733  0.78852  1.0000
  C   C277      1.0  0.05481999999999993  0.15626000000000007  0.75047  1.0000
  C   C278      1.0  0.15602000000000013  0.02431  0.7611099999999997  1.0000
  C   C279      1.0  0.07302999999999998  0.02722  0.74657  1.0000
  C   C280      1.0  0.08003999999999999  0.10212  0.75193  1.0000
  C   C281      1.0  0.12662000000000004  0.99943  0.75418  1.0000
  C   C282      1.0  0.17771  0.9172  0.7869999999999998  1.0000
  C   C283      1.0  0.04985000000000005  0.07773  0.74571  1.0000
  C   C284      1.0  0.1334  0.07494  0.75961  1.0000
  C   C285      1.0  0.2257000000000001  0.69403  0.69464  1.0000
  C   C286      1.0  0.26034000000000024  0.64026  0.70129  1.0000
  C   C287      1.0  0.5687300000000002  0.54205  0.94442  1.0000
  C   C288      1.0  0.6014300000000004  0.57071  0.9086299999999998  1.0000
  C   C289      1.0  0.7908199999999997  0.6571300000000001  0.74161  1.0000
  C   C290      1.0  0.6274400000000001  0.56023  0.8589  1.0000
  C   C291      1.0  0.6671599999999999  0.7031300000000003  0.80295  1.0000
  C   C292      1.0  0.6985299999999999  0.73093  0.77043  1.0000
  C   C293      1.0  0.7589700000000001  0.62864  0.77457  1.0000
  C   C294      1.0  0.60402  0.60955  0.92422  1.0000
  C   C295      1.0  0.7908000000000001  0.57754  0.77602  1.0000
  C   C296      1.0  0.66189  0.62558  0.84063  1.0000
  C   C297      1.0  0.7599700000000003  0.70861  0.7401099999999998  1.0000
  C   C298      1.0  0.6963000000000003  0.65306  0.8053699999999998  1.0000
  C   C299      1.0  0.65691  0.5878  0.82538  1.0000
  C   C300      1.0  0.63419  0.63667  0.89045  1.0000
  C   C301      1.0  0.8511500000000001  0.55359  0.7451799999999998  1.0000
  C   C302      1.0  0.8533699999999995  0.63215  0.71151  1.0000
  C   C303      1.0  0.9623100000000003  0.3427  0.7488999999999999  1.0000
  C   C304      1.0  0.94205  0.47468000000000005  0.73892  1.0000
  C   C305      1.0  0.8473000000000003  0.47212  0.7533299999999999  1.0000
  C   C306      1.0  0.93447  0.39694  0.74803  1.0000
  C   C307      1.0  0.8807500000000001  0.49984  0.74574  1.0000
  C   C308      1.0  0.8822800000000001  0.58222  0.7128699999999999  1.0000
  C   C309      1.0  0.8735900000000001  0.4215700000000001  0.75426  1.0000
  C   C310      1.0  0.96837  0.42401  0.7405  1.0000
  C   C311      1.0  0.6139299999999995  0.80621  0.8056  1.0000
  C   C312      1.0  0.6016400000000004  0.8599400000000003  0.7988  1.0000
  C   C313      1.0  0.05517000000000002  0.05555  0.4577899999999999  1.0000
  C   C314      1.0  0.08070000000000001  0.09136000000000002  0.42905  1.0000
  C   C315      1.0  0.18938999999999998  0.25853  0.34256  1.0000
  C   C316      1.0  0.046459999999999974  0.14107  0.43978  1.0000
  C   C317      1.0  0.17340999999999998  0.19705  0.29679  1.0000
  C   C318      1.0  0.19989000000000018  0.22969000000000006  0.26901  1.0000
  C   C319      1.0  0.16224999999999998  0.22544000000000006  0.3710499999999999  1.0000
  C   C320      1.0  0.13791999999999996  0.07578  0.39024  1.0000
  C   C321      1.0  0.14480000000000004  0.22381  0.42203  1.0000
  C   C322      1.0  0.12813000000000008  0.15939  0.3745399999999999  1.0000
  C   C323      1.0  0.20845  0.26016  0.29116  1.0000
  C   C324      1.0  0.15478999999999998  0.1946  0.34686  1.0000
  C   C325      1.0  0.07005000000000007  0.17466  0.4124899999999999  1.0000
  C   C326      1.0  0.16151  0.10957  0.36333  1.0000
  C   C327      1.0  0.15031000000000014  0.25469  0.44579999999999986  1.0000
  C   C328      1.0  0.19706000000000004  0.28852  0.36733  1.0000
  C   C329      1.0  0.054820000000000015  0.25047  0.65626  1.0000
  C   C330      1.0  0.15601999999999985  0.26111  0.5243  1.0000
  C   C331      1.0  0.07303  0.24658  0.52722  1.0000
  C   C332      1.0  0.08004000000000006  0.25194  0.60212  1.0000
  C   C333      1.0  0.12661999999999998  0.25418  0.49942  1.0000
  C   C334      1.0  0.17772000000000007  0.287  0.41719999999999996  1.0000
  C   C335      1.0  0.04985000000000002  0.24571  0.57772  1.0000
  C   C336      1.0  0.13339999999999996  0.25961  0.57493  1.0000
  C   C337      1.0  0.22570000000000004  0.19465  0.19402999999999998  1.0000
  C   C338      1.0  0.26034  0.20129  0.14026  1.0000
  C   C339      1.0  0.56873  0.44442  0.04204  1.0000
  C   C340      1.0  0.6014399999999999  0.4086300000000001  0.07071  1.0000
  C   C341      1.0  0.79083  0.24162  0.15713  1.0000
  C   C342      1.0  0.6274400000000001  0.35890000000000005  0.06022  1.0000
  C   C343      1.0  0.66716  0.30295  0.20312  1.0000
  C   C344      1.0  0.6985300000000001  0.27043  0.23092999999999997  1.0000
  C   C345      1.0  0.75898  0.27457  0.12864  1.0000
  C   C346      1.0  0.60402  0.42422  0.10954999999999997  1.0000
  C   C347      1.0  0.7908000000000001  0.27603  0.07754  1.0000
  C   C348      1.0  0.66189  0.34063  0.12558  1.0000
  C   C349      1.0  0.75998  0.24011  0.20860999999999996  1.0000
  C   C350      1.0  0.6963000000000001  0.30537  0.15306  1.0000
  C   C351      1.0  0.65691  0.32538  0.0878  1.0000
  C   C352      1.0  0.63419  0.39046  0.13667  1.0000
  C   C353      1.0  0.85115  0.24518  0.05359  1.0000
  C   C354      1.0  0.85338  0.21151000000000006  0.13215  1.0000
  C   C355      1.0  0.96231  0.24890000000000007  0.8426999999999999  1.0000
  C   C356      1.0  0.9420500000000005  0.23892  0.97468  1.0000
  C   C357      1.0  0.8472999999999999  0.25333  0.97211  1.0000
  C   C358      1.0  0.9344699999999999  0.24803  0.89693  1.0000
  C   C359      1.0  0.88075  0.24575  0.9998399999999998  1.0000
  C   C360      1.0  0.88228  0.21287  0.08221999999999999  1.0000
  C   C361      1.0  0.87359  0.25427  0.92156  1.0000
  C   C362      1.0  0.96837  0.24050000000000002  0.924  1.0000
  C   C363      1.0  0.6139300000000001  0.30561  0.3062  1.0000
  C   C364      1.0  0.60164  0.2988  0.35993999999999987  1.0000
  C   C365      1.0  0.9448200000000002  0.04221000000000001  0.44444999999999996  1.0000
  C   C366      1.0  0.9193000000000003  0.07095  0.40864  1.0000
  C   C367      1.0  0.8106000000000002  0.15744  0.24147  1.0000
  C   C368      1.0  0.9535400000000005  0.06022  0.35892999999999997  1.0000
  C   C369      1.0  0.8265900000000003  0.20321  0.3029499999999999  1.0000
  C   C370      1.0  0.8001  0.23099  0.27031  1.0000
  C   C371      1.0  0.8377400000000002  0.12895  0.27456  1.0000
  C   C372      1.0  0.86208  0.10975  0.4242199999999999  1.0000
  C   C373      1.0  0.8552000000000002  0.07797000000000001  0.27619  1.0000
  C   C374      1.0  0.8718600000000001  0.12546  0.3406099999999999  1.0000
  C   C375      1.0  0.7915400000000001  0.20884  0.23984  1.0000
  C   C376      1.0  0.8452  0.15314  0.3054  1.0000
  C   C377      1.0  0.92995  0.08751  0.32534  1.0000
  C   C378      1.0  0.83849  0.13667  0.39043  1.0000
  C   C379      1.0  0.84969  0.0542  0.24531  1.0000
  C   C380      1.0  0.8029400000000001  0.13267  0.21147999999999995  1.0000
  C   C381      1.0  0.9451799999999999  0.8437400000000002  0.24953  1.0000
  C   C382      1.0  0.84398  0.9756900000000002  0.23888999999999994  1.0000
  C   C383      1.0  0.92696  0.9727800000000001  0.25342  1.0000
  C   C384      1.0  0.9199500000000004  0.89788  0.24805999999999995  1.0000
  C   C385      1.0  0.87337  0.00057  0.24581999999999996  1.0000
  C   C386      1.0  0.8222800000000001  0.0828  0.213  1.0000
  C   C387      1.0  0.95014  0.92228  0.25429  1.0000
  C   C388      1.0  0.86659  0.92507  0.24039  1.0000
  C   C389      1.0  0.77429  0.30597  0.30535  1.0000
  C   C390      1.0  0.73966  0.35974000000000006  0.29871  1.0000
  C   C391      1.0  0.43126  0.45796  0.05558  1.0000
  C   C392      1.0  0.3985599999999998  0.42929  0.09137  1.0000
  C   C393      1.0  0.20917000000000008  0.34287  0.25838  1.0000
  C   C394      1.0  0.37255  0.43978000000000006  0.1411  1.0000
  C   C395      1.0  0.33283000000000007  0.29688  0.19704999999999998  1.0000
  C   C396      1.0  0.3014700000000001  0.26907  0.22957  1.0000
  C   C397      1.0  0.24102000000000004  0.37136  0.22542999999999994  1.0000
  C   C398      1.0  0.39596999999999993  0.39045  0.07578  1.0000
  C   C399      1.0  0.20919  0.42246  0.22396999999999997  1.0000
  C   C400      1.0  0.3381  0.37442  0.15936999999999998  1.0000
  C   C401      1.0  0.24002  0.29139  0.25989  1.0000
  C   C402      1.0  0.30369  0.34694  0.19463  1.0000
  C   C403      1.0  0.34308000000000005  0.4122  0.17462  1.0000
  C   C404      1.0  0.36581  0.36333  0.10953999999999997  1.0000
  C   C405      1.0  0.14883999999999997  0.44641000000000003  0.25482  1.0000
  C   C406      1.0  0.14661999999999997  0.36785  0.28849  1.0000
  C   C407      1.0  0.03767999999999998  0.6573  0.2511  1.0000
  C   C408      1.0  0.05794  0.52532  0.26108  1.0000
  C   C409      1.0  0.15269000000000002  0.52788  0.24667  1.0000
  C   C410      1.0  0.06551999999999997  0.6030700000000001  0.25197  1.0000
  C   C411      1.0  0.11924000000000005  0.50016  0.25425  1.0000
  C   C412      1.0  0.11772000000000003  0.41778  0.28713  1.0000
  C   C413      1.0  0.12640999999999997  0.57844  0.24574  1.0000
  C   C414      1.0  0.03162  0.57599  0.2595  1.0000
  C   C415      1.0  0.38606  0.19380000000000006  0.19439  1.0000
  C   C416      1.0  0.39835000000000004  0.14006  0.20119999999999993  1.0000
  O   O1        1.0  0.9774  0.9396400000000001  0.98804  1.0000
  O   O2        1.0  0.81916  0.17893  0.75078  1.0000
  O   O3        1.0  0.9932600000000001  0.9974000000000001  0.93031  1.0000
  O   O4        1.0  0.7351799999999998  0.17805  0.7494999999999999  1.0000
  O   O5        1.0  0.06279000000000001  0.71962  0.76619  1.0000
  O   O6        1.0  0.90577  0.56002  0.51263  1.0000
  O   O7        1.0  0.74792  0.32207  0.75068  1.0000
  O   O8        1.0  0.9215499999999999  0.50283  0.57093  1.0000
  O   O9        1.0  0.6623  0.32263  0.75114  1.0000
  O   O10       1.0  0.5482299999999999  0.78044  0.7337299999999999  1.0000
  O   O11       1.0  0.022589999999999996  0.51196  0.56036  1.0000
  O   O12       1.0  0.18082999999999994  0.74922  0.32107  1.0000
  O   O13       1.0  0.006719999999999997  0.56969  0.5026  1.0000
  O   O14       1.0  0.26481  0.7505  0.32195  1.0000
  O   O15       1.0  0.9371999999999998  0.73381  0.78038  1.0000
  O   O16       1.0  0.09421999999999998  0.98737  0.93997  1.0000
  O   O17       1.0  0.25206999999999996  0.7493200000000002  0.17793  1.0000
  O   O18       1.0  0.07844000000000001  0.9290700000000001  0.9971699999999999  1.0000
  O   O19       1.0  0.3376899999999999  0.7488600000000001  0.17737  1.0000
  O   O20       1.0  0.4517599999999999  0.7662700000000001  0.71956  1.0000
  O   O21       1.0  0.02258999999999999  0.06036000000000001  0.011959999999999997  1.0000
  O   O22       1.0  0.18082999999999994  0.82107  0.24922  1.0000
  O   O23       1.0  0.006729999999999996  0.0026000000000000003  0.06969  1.0000
  O   O24       1.0  0.26481  0.82195  0.2505  1.0000
  O   O25       1.0  0.9372000000000001  0.28039  0.23380999999999993  1.0000
  O   O26       1.0  0.09421999999999998  0.43998  0.48737  1.0000
  O   O27       1.0  0.25207  0.67793  0.24931999999999996  1.0000
  O   O28       1.0  0.07844999999999995  0.4971700000000001  0.42907  1.0000
  O   O29       1.0  0.3377000000000002  0.67737  0.24885999999999994  1.0000
  O   O30       1.0  0.45176000000000005  0.21956  0.26627  1.0000
  O   O31       1.0  0.9773999999999999  0.48804000000000003  0.43964  1.0000
  O   O32       1.0  0.81916  0.25078  0.67893  1.0000
  O   O33       1.0  0.9932700000000004  0.43031  0.4973999999999999  1.0000
  O   O34       1.0  0.73518  0.2495  0.6780499999999998  1.0000
  O   O35       1.0  0.06279000000000001  0.26619  0.21961  1.0000
  O   O36       1.0  0.90578  0.012630000000000002  0.06002  1.0000
  O   O37       1.0  0.7479200000000001  0.25068  0.82207  1.0000
  O   O38       1.0  0.92155  0.07093  0.00283  1.0000
  O   O39       1.0  0.6623000000000001  0.25114  0.82263  1.0000
  O   O40       1.0  0.54824  0.23373  0.28044  1.0000
  O   O41       1.0  0.9180199999999998  0.98745  0.55993  1.0000
  O   O42       1.0  0.99772  0.7507600000000002  0.32218  1.0000
  O   O43       1.0  0.9920700000000001  0.92924  0.5026  1.0000
  O   O44       1.0  0.91297  0.7495200000000002  0.32273  1.0000
  O   O45       1.0  0.7822399999999995  0.76612  0.78041  1.0000
  O   O46       1.0  0.46547  0.51263  0.94012  1.0000
  O   O47       1.0  0.06933000000000002  0.7506  0.17902  1.0000
  O   O48       1.0  0.4235799999999999  0.57079  0.99754  1.0000
  O   O49       1.0  0.9844800000000001  0.75098  0.17819  1.0000
  O   O50       1.0  0.32909999999999995  0.7337500000000001  0.71961  1.0000
  O   O51       1.0  0.08196999999999993  0.9400600000000001  0.51255  1.0000
  O   O52       1.0  0.0022700000000000125  0.17782  0.74923  1.0000
  O   O53       1.0  0.007919999999999929  0.9974000000000001  0.57075  1.0000
  O   O54       1.0  0.08701999999999997  0.17727  0.75048  1.0000
  O   O55       1.0  0.21774999999999992  0.71959  0.73388  1.0000
  O   O56       1.0  0.53452  0.55988  0.98737  1.0000
  O   O57       1.0  0.93066  0.32098  0.7494  1.0000
  O   O58       1.0  0.5764  0.50246  0.92922  1.0000
  O   O59       1.0  0.0155100000000001  0.32181  0.7490099999999998  1.0000
  O   O60       1.0  0.6708799999999998  0.7803900000000003  0.76625  1.0000
  O   O61       1.0  0.08198000000000008  0.01255  0.4400699999999999  1.0000
  O   O62       1.0  0.0022699999999999465  0.24924  0.67782  1.0000
  O   O63       1.0  0.007930000000000036  0.07076  0.4973999999999999  1.0000
  O   O64       1.0  0.08702000000000001  0.25048  0.67726  1.0000
  O   O65       1.0  0.21775000000000003  0.23389  0.21959  1.0000
  O   O66       1.0  0.5345199999999999  0.48737  0.05988  1.0000
  O   O67       1.0  0.9306600000000002  0.24941000000000005  0.82097  1.0000
  O   O68       1.0  0.57641  0.42922000000000005  0.00246  1.0000
  O   O69       1.0  0.015510000000000133  0.24902  0.8218099999999998  1.0000
  O   O70       1.0  0.6708899999999999  0.26625  0.28039  1.0000
  O   O71       1.0  0.91802  0.05994  0.48745  1.0000
  O   O72       1.0  0.9977199999999999  0.82218  0.25076  1.0000
  O   O73       1.0  0.9920700000000001  0.0026000000000000003  0.42924999999999996  1.0000
  O   O74       1.0  0.91297  0.82273  0.24952  1.0000
  O   O75       1.0  0.78224  0.28041  0.26611  1.0000
  O   O76       1.0  0.46548  0.4401200000000001  0.01263  1.0000
  O   O77       1.0  0.06933000000000002  0.67902  0.2506  1.0000
  O   O78       1.0  0.42359  0.49754  0.07078  1.0000
  O   O79       1.0  0.9844800000000001  0.67819  0.25099  1.0000
  O   O80       1.0  0.32911  0.21961  0.23375  1.0000
