data_image0
_chemical_formula_structural       Zn24H72C288N24O144
_chemical_formula_sum              "Zn24 H72 C288 N24 O144"
_cell_length_a       29.76415
_cell_length_b       29.76405
_cell_length_c       29.76411
_cell_angle_alpha    60.00982
_cell_angle_beta     60.01135
_cell_angle_gamma    60.01127999999999

_symmetry_space_group_name_H-M    'P 1'
_symmetry_Int_Tables_number       1

loop_
  _symmetry_equiv_pos_as_xyz
  'x,y,z'

loop_
  _atom_site_type_symbol
  _atom_site_label
  _atom_site_symmetry_multiplicity
  _atom_site_fract_x
  _atom_site_fract_y
  _atom_site_fract_z
  _atom_site_occupancy
  Zn  Zn1       1.0  0.5  0.86144  0.13856  1.0000
  Zn  Zn2       1.0  0.5  0.7751  0.22489000000000003  1.0000
  Zn  Zn3       1.0  0.8614299999999999  0.50001  0.50001  1.0000
  Zn  Zn4       1.0  0.77511  0.49999  0.49999  1.0000
  Zn  Zn5       1.0  0.4999999999999999  0.1385599999999999  0.8614400000000002  1.0000
  Zn  Zn6       1.0  0.5  0.22489  0.7751  1.0000
  Zn  Zn7       1.0  0.13855999999999988  0.49999000000000027  0.4999800000000001  1.0000
  Zn  Zn8       1.0  0.22489000000000006  0.50001  0.50001  1.0000
  Zn  Zn9       1.0  0.4999900000000001  0.4999800000000001  0.13857  1.0000
  Zn  Zn10      1.0  0.50001  0.50001  0.22489000000000003  1.0000
  Zn  Zn11      1.0  0.13855999999999977  0.8614400000000004  0.5  1.0000
  Zn  Zn12      1.0  0.22489000000000017  0.77511  0.5  1.0000
  Zn  Zn13      1.0  0.5000100000000001  0.5000199999999999  0.8614300000000003  1.0000
  Zn  Zn14      1.0  0.4999900000000001  0.49999000000000027  0.77511  1.0000
  Zn  Zn15      1.0  0.8614400000000004  0.13856000000000004  0.5  1.0000
  Zn  Zn16      1.0  0.7751000000000005  0.22489  0.5  1.0000
  Zn  Zn17      1.0  0.8614300000000001  0.5  0.13856  1.0000
  Zn  Zn18      1.0  0.7750999999999996  0.5  0.22489000000000003  1.0000
  Zn  Zn19      1.0  0.49999000000000005  0.13856999999999997  0.4999800000000001  1.0000
  Zn  Zn20      1.0  0.5000100000000001  0.22489  0.50001  1.0000
  Zn  Zn21      1.0  0.13855999999999985  0.49999999999999994  0.8614400000000002  1.0000
  Zn  Zn22      1.0  0.22489000000000003  0.5  0.77511  1.0000
  Zn  Zn23      1.0  0.50001  0.8614300000000003  0.50002  1.0000
  Zn  Zn24      1.0  0.49999000000000005  0.77511  0.49999  1.0000
  H   H1        1.0  0.3283099999999999  0.9611200000000002  0.18288000000000001  1.0000
  H   H2        1.0  0.9611400000000001  0.32832999999999996  0.5276800000000001  1.0000
  H   H3        1.0  0.52768  0.18289999999999995  0.9610900000000002  1.0000
  H   H4        1.0  0.18289999999999998  0.52768  0.32829  1.0000
  H   H5        1.0  0.52768  0.32829  0.1829  1.0000
  H   H6        1.0  0.1828999999999999  0.9610900000000001  0.5276800000000001  1.0000
  H   H7        1.0  0.32832000000000017  0.5276799999999999  0.9611500000000002  1.0000
  H   H8        1.0  0.9611300000000002  0.18289  0.3283  1.0000
  H   H9        1.0  0.9610900000000001  0.52768  0.1829  1.0000
  H   H10       1.0  0.3282899999999999  0.1829  0.5276800000000001  1.0000
  H   H11       1.0  0.18287999999999993  0.32831  0.96113  1.0000
  H   H12       1.0  0.5276799999999998  0.9611500000000002  0.32833  1.0000
  H   H13       1.0  0.6716800000000003  0.03884999999999999  0.47232  1.0000
  H   H14       1.0  0.03886999999999985  0.6717000000000002  0.81711  1.0000
  H   H15       1.0  0.4723099999999997  0.8171000000000003  0.6717100000000003  1.0000
  H   H16       1.0  0.8171  0.47232  0.0389  1.0000
  H   H17       1.0  0.47232  0.6716700000000001  0.03885  1.0000
  H   H18       1.0  0.8171200000000004  0.03887  0.67169  1.0000
  H   H19       1.0  0.6717099999999999  0.47232000000000024  0.8171  1.0000
  H   H20       1.0  0.03889999999999998  0.8171  0.47232  1.0000
  H   H21       1.0  0.03884999999999997  0.47231999999999996  0.6716700000000001  1.0000
  H   H22       1.0  0.6716900000000001  0.8171100000000002  0.03888  1.0000
  H   H23       1.0  0.81709  0.6717100000000001  0.47232  1.0000
  H   H24       1.0  0.4723200000000001  0.03891000000000002  0.8171  1.0000
  H   H25       1.0  0.6716900000000003  0.038880000000000005  0.81711  1.0000
  H   H26       1.0  0.03884999999999994  0.6716700000000001  0.47232  1.0000
  H   H27       1.0  0.47231999999999996  0.8171000000000003  0.03891  1.0000
  H   H28       1.0  0.8170900000000002  0.47231999999999996  0.6717100000000003  1.0000
  H   H29       1.0  0.4723199999999999  0.6717100000000003  0.81709  1.0000
  H   H30       1.0  0.8171  0.03889999999999998  0.47232  1.0000
  H   H31       1.0  0.6716800000000004  0.47232  0.03885  1.0000
  H   H32       1.0  0.03886999999999991  0.8171100000000002  0.67169  1.0000
  H   H33       1.0  0.038899999999999865  0.47232000000000024  0.8171  1.0000
  H   H34       1.0  0.6717100000000001  0.8171  0.47232  1.0000
  H   H35       1.0  0.8171200000000004  0.6716900000000001  0.03887  1.0000
  H   H36       1.0  0.4723200000000001  0.03884999999999999  0.6716700000000001  1.0000
  H   H37       1.0  0.3283199999999998  0.9611500000000002  0.5276800000000001  1.0000
  H   H38       1.0  0.9611300000000002  0.32830000000000004  0.18289000000000005  1.0000
  H   H39       1.0  0.52768  0.1829  0.32829  1.0000
  H   H40       1.0  0.18289999999999992  0.5276799999999999  0.9610900000000002  1.0000
  H   H41       1.0  0.5276799999999999  0.3283299999999999  0.9611500000000002  1.0000
  H   H42       1.0  0.18287999999999996  0.9611300000000003  0.32831  1.0000
  H   H43       1.0  0.32829  0.52768  0.1829  1.0000
  H   H44       1.0  0.9610900000000001  0.1829  0.5276800000000001  1.0000
  H   H45       1.0  0.9611399999999999  0.52768  0.32832  1.0000
  H   H46       1.0  0.32831  0.18288  0.96112  1.0000
  H   H47       1.0  0.18289999999999992  0.32829  0.5276800000000001  1.0000
  H   H48       1.0  0.52768  0.9610900000000001  0.1829  1.0000
  H   H49       1.0  0.33149999999999996  0.8219600000000001  0.3315  1.0000
  H   H50       1.0  0.82196  0.33149  0.51504  1.0000
  H   H51       1.0  0.51504  0.33148  0.82196  1.0000
  H   H52       1.0  0.33151999999999987  0.51504  0.33153  1.0000
  H   H53       1.0  0.5150299999999998  0.3315300000000001  0.33153  1.0000
  H   H54       1.0  0.33148  0.8219600000000001  0.51504  1.0000
  H   H55       1.0  0.33147999999999994  0.51504  0.82196  1.0000
  H   H56       1.0  0.8219500000000002  0.3315  0.3315  1.0000
  H   H57       1.0  0.8219600000000004  0.51504  0.33149000000000006  1.0000
  H   H58       1.0  0.33153  0.3315300000000002  0.51503  1.0000
  H   H59       1.0  0.33149999999999996  0.3315  0.82196  1.0000
  H   H60       1.0  0.5150399999999999  0.8219600000000001  0.33148  1.0000
  H   H61       1.0  0.6685100000000002  0.17804  0.48496  1.0000
  H   H62       1.0  0.17805  0.6684900000000001  0.6684900000000001  1.0000
  H   H63       1.0  0.48496000000000006  0.6684700000000001  0.66847  1.0000
  H   H64       1.0  0.66851  0.48496  0.17804000000000006  1.0000
  H   H65       1.0  0.48495  0.6685200000000002  0.17804000000000006  1.0000
  H   H66       1.0  0.6685  0.17804  0.6685  1.0000
  H   H67       1.0  0.6684700000000003  0.48496  0.66847  1.0000
  H   H68       1.0  0.17804  0.6685100000000002  0.48496  1.0000
  H   H69       1.0  0.17803999999999998  0.48496  0.66851  1.0000
  H   H70       1.0  0.6684899999999998  0.6685000000000002  0.17804000000000006  1.0000
  H   H71       1.0  0.66847  0.6684700000000001  0.48496  1.0000
  H   H72       1.0  0.48495  0.17804  0.66852  1.0000
  C   C1        1.0  0.3949200000000002  0.8623799999999999  0.22676000000000002  1.0000
  C   C2        1.0  0.33528000000000013  0.88922  0.25434  1.0000
  C   C3        1.0  0.3067700000000002  0.94152  0.22524  1.0000
  C   C4        1.0  0.16549000000000005  0.052289999999999996  0.24474000000000007  1.0000
  C   C5        1.0  0.1534200000000001  0.10663  0.2007  1.0000
  C   C6        1.0  0.8623900000000002  0.3949500000000001  0.51592  1.0000
  C   C7        1.0  0.8892199999999999  0.3353000000000001  0.52116  1.0000
  C   C8        1.0  0.9415200000000002  0.30679000000000006  0.52647  1.0000
  C   C9        1.0  0.05226999999999998  0.16549  0.53748  1.0000
  C   C10       1.0  0.10662000000000002  0.15340999999999996  0.53924  1.0000
  C   C11       1.0  0.51593  0.22675999999999996  0.8623500000000001  1.0000
  C   C12       1.0  0.5211599999999998  0.2543400000000001  0.8892  1.0000
  C   C13       1.0  0.5264699999999999  0.22525000000000006  0.9415000000000001  1.0000
  C   C14       1.0  0.53748  0.24474  0.052300000000000006  1.0000
  C   C15       1.0  0.53925  0.20069000000000006  0.10663  1.0000
  C   C16       1.0  0.22678000000000004  0.51592  0.39495  1.0000
  C   C17       1.0  0.2543500000000001  0.52115  0.33531  1.0000
  C   C18       1.0  0.22526  0.5264600000000002  0.30679  1.0000
  C   C19       1.0  0.24475000000000008  0.5374900000000001  0.16549000000000005  1.0000
  C   C20       1.0  0.20070000000000018  0.53925  0.15342  1.0000
  C   C21       1.0  0.5159200000000002  0.3949500000000001  0.22678  1.0000
  C   C22       1.0  0.52115  0.33531  0.25436  1.0000
  C   C23       1.0  0.5264599999999999  0.30679  0.22526000000000004  1.0000
  C   C24       1.0  0.5374900000000001  0.16549  0.24475  1.0000
  C   C25       1.0  0.53925  0.15342  0.20071  1.0000
  C   C26       1.0  0.22675999999999982  0.8623500000000002  0.51593  1.0000
  C   C27       1.0  0.25434000000000007  0.8892  0.52116  1.0000
  C   C28       1.0  0.22524999999999987  0.9415000000000003  0.52647  1.0000
  C   C29       1.0  0.24473  0.0523  0.53748  1.0000
  C   C30       1.0  0.20068999999999998  0.10663  0.53925  1.0000
  C   C31       1.0  0.39494999999999997  0.5159300000000001  0.8623900000000002  1.0000
  C   C32       1.0  0.3353000000000001  0.5211600000000001  0.8892200000000001  1.0000
  C   C33       1.0  0.3067900000000003  0.52647  0.94152  1.0000
  C   C34       1.0  0.16549000000000005  0.5374800000000001  0.05227000000000001  1.0000
  C   C35       1.0  0.15341000000000016  0.53925  0.10662000000000002  1.0000
  C   C36       1.0  0.8623800000000005  0.22676000000000002  0.39493  1.0000
  C   C37       1.0  0.8892100000000001  0.25434  0.33529  1.0000
  C   C38       1.0  0.94152  0.22524000000000002  0.30677  1.0000
  C   C39       1.0  0.05229  0.24475000000000002  0.16549000000000005  1.0000
  C   C40       1.0  0.10663000000000004  0.20071  0.15342  1.0000
  C   C41       1.0  0.8623499999999998  0.51593  0.22676000000000002  1.0000
  C   C42       1.0  0.8892000000000001  0.5211600000000001  0.25434  1.0000
  C   C43       1.0  0.9415000000000001  0.52647  0.22525  1.0000
  C   C44       1.0  0.05229999999999988  0.5374800000000001  0.24473000000000003  1.0000
  C   C45       1.0  0.10663000000000003  0.53925  0.20069000000000004  1.0000
  C   C46       1.0  0.39495000000000025  0.22678  0.51592  1.0000
  C   C47       1.0  0.3353100000000001  0.25435000000000013  0.52115  1.0000
  C   C48       1.0  0.3067900000000002  0.22525999999999996  0.5264600000000002  1.0000
  C   C49       1.0  0.16549000000000003  0.24475000000000005  0.53749  1.0000
  C   C50       1.0  0.15341999999999997  0.20071  0.53925  1.0000
  C   C51       1.0  0.2267500000000002  0.39492  0.86238  1.0000
  C   C52       1.0  0.2543299999999999  0.3352800000000001  0.8892200000000001  1.0000
  C   C53       1.0  0.22523000000000015  0.30677  0.94152  1.0000
  C   C54       1.0  0.24474000000000012  0.16549  0.05229000000000001  1.0000
  C   C55       1.0  0.20071  0.15342000000000006  0.10663  1.0000
  C   C56       1.0  0.5159199999999999  0.8624000000000003  0.39495  1.0000
  C   C57       1.0  0.5211599999999997  0.8892300000000001  0.3353000000000001  1.0000
  C   C58       1.0  0.5264700000000001  0.9415300000000002  0.30679  1.0000
  C   C59       1.0  0.53748  0.052260000000000015  0.16549000000000005  1.0000
  C   C60       1.0  0.5392400000000003  0.10661  0.1534  1.0000
  C   C61       1.0  0.60505  0.1376  0.4840700000000001  1.0000
  C   C62       1.0  0.6647  0.11078000000000002  0.47884  1.0000
  C   C63       1.0  0.6932000000000001  0.05847000000000005  0.47353000000000006  1.0000
  C   C64       1.0  0.8345099999999995  0.9477300000000002  0.46252  1.0000
  C   C65       1.0  0.8465900000000003  0.8933800000000001  0.4607500000000001  1.0000
  C   C66       1.0  0.1376199999999998  0.6050700000000001  0.7732300000000002  1.0000
  C   C67       1.0  0.11077999999999981  0.6647100000000001  0.7456600000000002  1.0000
  C   C68       1.0  0.05847999999999973  0.6932200000000002  0.7747600000000002  1.0000
  C   C69       1.0  0.9477100000000004  0.83451  0.75525  1.0000
  C   C70       1.0  0.8933700000000002  0.84658  0.79929  1.0000
  C   C71       1.0  0.4840700000000001  0.77322  0.60505  1.0000
  C   C72       1.0  0.4788399999999999  0.7456400000000002  0.66469  1.0000
  C   C73       1.0  0.47353  0.77474  0.69321  1.0000
  C   C74       1.0  0.46250999999999975  0.7552400000000002  0.8345100000000002  1.0000
  C   C75       1.0  0.46074  0.7992900000000001  0.84658  1.0000
  C   C76       1.0  0.7732400000000004  0.4840700000000001  0.13764  1.0000
  C   C77       1.0  0.7456600000000002  0.47884000000000004  0.1108  1.0000
  C   C78       1.0  0.7747500000000003  0.47353  0.0585  1.0000
  C   C79       1.0  0.7552600000000004  0.46252000000000004  0.9477000000000001  1.0000
  C   C80       1.0  0.7993000000000005  0.46075000000000005  0.89337  1.0000
  C   C81       1.0  0.48407000000000017  0.6050500000000001  0.13760000000000003  1.0000
  C   C82       1.0  0.4788300000000001  0.6647000000000001  0.11077000000000001  1.0000
  C   C83       1.0  0.47353  0.6932100000000002  0.05847  1.0000
  C   C84       1.0  0.4625200000000004  0.83451  0.94773  1.0000
  C   C85       1.0  0.4607499999999999  0.84659  0.89338  1.0000
  C   C86       1.0  0.7732399999999999  0.13761  0.60507  1.0000
  C   C87       1.0  0.7456600000000002  0.11077999999999999  0.6647100000000002  1.0000
  C   C88       1.0  0.77476  0.05847999999999998  0.69322  1.0000
  C   C89       1.0  0.7552500000000001  0.9477100000000002  0.8345000000000002  1.0000
  C   C90       1.0  0.79928  0.89337  0.84658  1.0000
  C   C91       1.0  0.60505  0.4840799999999999  0.7732200000000002  1.0000
  C   C92       1.0  0.66469  0.47885000000000005  0.74564  1.0000
  C   C93       1.0  0.69321  0.47354  0.77474  1.0000
  C   C94       1.0  0.8345000000000004  0.46251  0.75525  1.0000
  C   C95       1.0  0.8465800000000002  0.46075000000000005  0.79929  1.0000
  C   C96       1.0  0.13764000000000012  0.77324  0.4840700000000001  1.0000
  C   C97       1.0  0.11079999999999984  0.7456600000000002  0.47884  1.0000
  C   C98       1.0  0.05850000000000005  0.77475  0.47353000000000006  1.0000
  C   C99       1.0  0.9477  0.7552700000000002  0.46252  1.0000
  C   C100      1.0  0.8933700000000002  0.7993  0.4607500000000001  1.0000
  C   C101      1.0  0.1376  0.4840700000000002  0.60505  1.0000
  C   C102      1.0  0.11076999999999995  0.4788400000000001  0.6647  1.0000
  C   C103      1.0  0.05847000000000001  0.47352999999999995  0.69321  1.0000
  C   C104      1.0  0.9477299999999997  0.46251999999999993  0.8345100000000002  1.0000
  C   C105      1.0  0.8933800000000003  0.46075000000000005  0.84659  1.0000
  C   C106      1.0  0.6050700000000003  0.77324  0.13762000000000002  1.0000
  C   C107      1.0  0.6647100000000002  0.7456600000000002  0.11078000000000003  1.0000
  C   C108      1.0  0.6932200000000001  0.77476  0.05848  1.0000
  C   C109      1.0  0.8345099999999999  0.7552500000000002  0.94771  1.0000
  C   C110      1.0  0.84657  0.7992900000000001  0.89337  1.0000
  C   C111      1.0  0.77322  0.60505  0.48408000000000007  1.0000
  C   C112      1.0  0.7456399999999999  0.6646900000000001  0.4788500000000001  1.0000
  C   C113      1.0  0.7747400000000001  0.6932099999999999  0.47353000000000006  1.0000
  C   C114      1.0  0.7552400000000001  0.83451  0.46251000000000003  1.0000
  C   C115      1.0  0.7992900000000002  0.8465799999999999  0.4607500000000001  1.0000
  C   C116      1.0  0.48407000000000006  0.13763999999999998  0.7732400000000001  1.0000
  C   C117      1.0  0.47883999999999993  0.11079999999999993  0.7456600000000002  1.0000
  C   C118      1.0  0.47353000000000023  0.05849999999999996  0.77475  1.0000
  C   C119      1.0  0.4625099999999998  0.9477000000000001  0.7552600000000002  1.0000
  C   C120      1.0  0.4607500000000001  0.89337  0.7993100000000002  1.0000
  C   C121      1.0  0.6050700000000002  0.13761999999999994  0.7732300000000002  1.0000
  C   C122      1.0  0.66471  0.11077999999999992  0.7456600000000002  1.0000
  C   C123      1.0  0.6932199999999997  0.05847999999999995  0.7747600000000002  1.0000
  C   C124      1.0  0.8345099999999999  0.9477100000000002  0.75525  1.0000
  C   C125      1.0  0.8465699999999999  0.89337  0.79929  1.0000
  C   C126      1.0  0.13760000000000006  0.60505  0.4840700000000001  1.0000
  C   C127      1.0  0.11076999999999995  0.6647000000000001  0.47884  1.0000
  C   C128      1.0  0.0584700000000001  0.6932099999999999  0.47353000000000006  1.0000
  C   C129      1.0  0.9477299999999997  0.83451  0.46252  1.0000
  C   C130      1.0  0.8933800000000002  0.84659  0.4607500000000001  1.0000
  C   C131      1.0  0.4840700000000002  0.77324  0.13764  1.0000
  C   C132      1.0  0.47882999999999987  0.7456600000000002  0.1108  1.0000
  C   C133      1.0  0.47353  0.77475  0.0585  1.0000
  C   C134      1.0  0.4625099999999998  0.7552600000000003  0.9477000000000001  1.0000
  C   C135      1.0  0.46075000000000027  0.7993100000000001  0.89337  1.0000
  C   C136      1.0  0.7732200000000004  0.4840800000000002  0.60505  1.0000
  C   C137      1.0  0.7456399999999996  0.47885000000000005  0.66469  1.0000
  C   C138      1.0  0.77474  0.47352999999999995  0.69321  1.0000
  C   C139      1.0  0.75525  0.46251  0.8345100000000002  1.0000
  C   C140      1.0  0.7992900000000003  0.46075000000000005  0.84658  1.0000
  C   C141      1.0  0.48407000000000017  0.6050499999999999  0.7732200000000002  1.0000
  C   C142      1.0  0.4788400000000002  0.6646900000000001  0.74564  1.0000
  C   C143      1.0  0.47353  0.6932100000000002  0.77474  1.0000
  C   C144      1.0  0.4625100000000001  0.83451  0.75524  1.0000
  C   C145      1.0  0.46074000000000037  0.84658  0.79929  1.0000
  C   C146      1.0  0.7732400000000001  0.13763999999999998  0.4840700000000001  1.0000
  C   C147      1.0  0.7456600000000001  0.1108  0.47884  1.0000
  C   C148      1.0  0.7747500000000003  0.05850000000000003  0.47353000000000006  1.0000
  C   C149      1.0  0.75526  0.9477000000000001  0.46252  1.0000
  C   C150      1.0  0.7993000000000001  0.89337  0.4607500000000001  1.0000
  C   C151      1.0  0.60505  0.4840700000000001  0.13760000000000003  1.0000
  C   C152      1.0  0.66469  0.47884000000000004  0.11078000000000003  1.0000
  C   C153      1.0  0.6932000000000003  0.47353  0.05847  1.0000
  C   C154      1.0  0.8345100000000004  0.46251999999999993  0.94773  1.0000
  C   C155      1.0  0.8465900000000002  0.46075000000000005  0.89338  1.0000
  C   C156      1.0  0.13762000000000002  0.77324  0.60507  1.0000
  C   C157      1.0  0.11077999999999981  0.7456600000000002  0.6647100000000002  1.0000
  C   C158      1.0  0.058480000000000025  0.77476  0.69322  1.0000
  C   C159      1.0  0.9477099999999999  0.7552500000000002  0.8345100000000002  1.0000
  C   C160      1.0  0.8933700000000001  0.7992900000000001  0.84658  1.0000
  C   C161      1.0  0.1376400000000002  0.48406999999999994  0.7732400000000001  1.0000
  C   C162      1.0  0.11079999999999982  0.47884  0.7456600000000002  1.0000
  C   C163      1.0  0.05850000000000008  0.47352999999999995  0.77475  1.0000
  C   C164      1.0  0.9477000000000001  0.46252000000000004  0.7552600000000002  1.0000
  C   C165      1.0  0.8933700000000003  0.46075000000000005  0.7993  1.0000
  C   C166      1.0  0.6050499999999998  0.77322  0.4840700000000001  1.0000
  C   C167      1.0  0.66469  0.7456400000000002  0.47884  1.0000
  C   C168      1.0  0.69321  0.7747399999999999  0.47353000000000006  1.0000
  C   C169      1.0  0.8345  0.7552500000000002  0.46251000000000003  1.0000
  C   C170      1.0  0.84658  0.7992900000000001  0.4607500000000001  1.0000
  C   C171      1.0  0.7732399999999998  0.6050700000000001  0.13761  1.0000
  C   C172      1.0  0.74566  0.6647100000000001  0.11078000000000003  1.0000
  C   C173      1.0  0.77476  0.6932200000000002  0.05848  1.0000
  C   C174      1.0  0.7552500000000003  0.83451  0.94771  1.0000
  C   C175      1.0  0.7992800000000002  0.84658  0.89337  1.0000
  C   C176      1.0  0.4840700000000002  0.1376  0.60505  1.0000
  C   C177      1.0  0.47884  0.11077000000000002  0.6647  1.0000
  C   C178      1.0  0.47353  0.058470000000000015  0.6932  1.0000
  C   C179      1.0  0.4625199999999996  0.9477300000000002  0.8345100000000002  1.0000
  C   C180      1.0  0.4607499999999999  0.8933800000000001  0.84659  1.0000
  C   C181      1.0  0.39494999999999986  0.86239  0.51593  1.0000
  C   C182      1.0  0.3353  0.88922  0.52116  1.0000
  C   C183      1.0  0.30679  0.9415300000000004  0.52647  1.0000
  C   C184      1.0  0.16549000000000005  0.05226999999999998  0.53748  1.0000
  C   C185      1.0  0.15341000000000002  0.10661999999999999  0.53924  1.0000
  C   C186      1.0  0.86237  0.39493  0.22676000000000002  1.0000
  C   C187      1.0  0.8892100000000003  0.3352900000000001  0.25434  1.0000
  C   C188      1.0  0.9415200000000001  0.30677  0.22524  1.0000
  C   C189      1.0  0.05229000000000002  0.16549  0.24475  1.0000
  C   C190      1.0  0.10662999999999997  0.15342  0.20071  1.0000
  C   C191      1.0  0.5159200000000003  0.22678  0.39495  1.0000
  C   C192      1.0  0.5211500000000001  0.25436  0.33531  1.0000
  C   C193      1.0  0.52646  0.22526  0.30679  1.0000
  C   C194      1.0  0.5374900000000001  0.24476000000000006  0.16549000000000005  1.0000
  C   C195      1.0  0.53925  0.20071  0.15342  1.0000
  C   C196      1.0  0.22675999999999982  0.5159300000000001  0.8623500000000001  1.0000
  C   C197      1.0  0.25434  0.52116  0.8892  1.0000
  C   C198      1.0  0.22524999999999992  0.5264700000000001  0.9415000000000001  1.0000
  C   C199      1.0  0.24472999999999998  0.5374800000000001  0.052300000000000006  1.0000
  C   C200      1.0  0.20069  0.53925  0.10663  1.0000
  C   C201      1.0  0.51592  0.3949500000000001  0.8624000000000002  1.0000
  C   C202      1.0  0.5211600000000001  0.33529999999999993  0.8892200000000001  1.0000
  C   C203      1.0  0.5264700000000001  0.30679  0.94153  1.0000
  C   C204      1.0  0.53748  0.16549  0.05226000000000001  1.0000
  C   C205      1.0  0.5392400000000003  0.15341000000000002  0.10661  1.0000
  C   C206      1.0  0.2267499999999999  0.8623800000000003  0.39492  1.0000
  C   C207      1.0  0.25433  0.88922  0.33528  1.0000
  C   C208      1.0  0.22522999999999996  0.9415200000000002  0.30677  1.0000
  C   C209      1.0  0.2447400000000001  0.052289999999999996  0.16549000000000005  1.0000
  C   C210      1.0  0.20071000000000008  0.10663  0.15342  1.0000
  C   C211      1.0  0.39495000000000013  0.5159200000000002  0.22678  1.0000
  C   C212      1.0  0.33530999999999983  0.52115  0.2543500000000001  1.0000
  C   C213      1.0  0.3067900000000002  0.5264600000000002  0.22526000000000004  1.0000
  C   C214      1.0  0.1654899999999999  0.5374900000000001  0.24475  1.0000
  C   C215      1.0  0.15342000000000008  0.53925  0.20071  1.0000
  C   C216      1.0  0.8623499999999998  0.22676000000000007  0.51593  1.0000
  C   C217      1.0  0.8892  0.25434  0.52116  1.0000
  C   C218      1.0  0.9414999999999999  0.22525000000000006  0.52647  1.0000
  C   C219      1.0  0.05230000000000001  0.24473  0.53748  1.0000
  C   C220      1.0  0.10662999999999999  0.2007  0.53925  1.0000
  C   C221      1.0  0.8623900000000001  0.51593  0.39495  1.0000
  C   C222      1.0  0.88922  0.52116  0.3353000000000001  1.0000
  C   C223      1.0  0.9415200000000005  0.5264700000000001  0.30679  1.0000
  C   C224      1.0  0.052269999999999865  0.5374800000000001  0.16549000000000005  1.0000
  C   C225      1.0  0.10661  0.53925  0.15341  1.0000
  C   C226      1.0  0.3949200000000002  0.22675999999999996  0.86238  1.0000
  C   C227      1.0  0.3352800000000002  0.25433999999999996  0.8892200000000001  1.0000
  C   C228      1.0  0.30677000000000015  0.22524  0.94152  1.0000
  C   C229      1.0  0.1654900000000001  0.24474  0.05229000000000001  1.0000
  C   C230      1.0  0.1534200000000001  0.2007  0.10663  1.0000
  C   C231      1.0  0.2267800000000002  0.3949500000000001  0.51592  1.0000
  C   C232      1.0  0.25434999999999997  0.3353100000000002  0.52115  1.0000
  C   C233      1.0  0.22526  0.30678999999999995  0.5264600000000002  1.0000
  C   C234      1.0  0.24475  0.1654900000000001  0.53749  1.0000
  C   C235      1.0  0.20070000000000002  0.15342000000000006  0.53925  1.0000
  C   C236      1.0  0.5159300000000001  0.8623600000000001  0.22676000000000002  1.0000
  C   C237      1.0  0.52116  0.8892  0.25434  1.0000
  C   C238      1.0  0.52647  0.9415000000000002  0.22525  1.0000
  C   C239      1.0  0.5374800000000001  0.052299999999999985  0.24474000000000007  1.0000
  C   C240      1.0  0.53925  0.10662999999999999  0.20069000000000004  1.0000
  C   C241      1.0  0.25121  0.9678700000000001  0.25121  1.0000
  C   C242      1.0  0.30920000000000003  0.86257  0.30921  1.0000
  C   C243      1.0  0.96785  0.25123  0.52971  1.0000
  C   C244      1.0  0.8625700000000004  0.30921  0.51902  1.0000
  C   C245      1.0  0.52971  0.25123  0.9678500000000001  1.0000
  C   C246      1.0  0.5190199999999999  0.30921  0.8625700000000001  1.0000
  C   C247      1.0  0.25123  0.5297100000000002  0.25123  1.0000
  C   C248      1.0  0.3092299999999999  0.5190100000000001  0.30923000000000006  1.0000
  C   C249      1.0  0.52971  0.2512300000000001  0.25123  1.0000
  C   C250      1.0  0.5190099999999999  0.30923  0.30923000000000006  1.0000
  C   C251      1.0  0.2512300000000001  0.9678499999999999  0.52971  1.0000
  C   C252      1.0  0.30921  0.8625700000000004  0.51902  1.0000
  C   C253      1.0  0.25122999999999995  0.52971  0.9678500000000001  1.0000
  C   C254      1.0  0.30920999999999993  0.5190199999999999  0.8625700000000001  1.0000
  C   C255      1.0  0.96786  0.25121000000000004  0.25121  1.0000
  C   C256      1.0  0.8625600000000001  0.30921  0.30921  1.0000
  C   C257      1.0  0.9678499999999999  0.5297100000000002  0.25123  1.0000
  C   C258      1.0  0.8625700000000003  0.51902  0.30921  1.0000
  C   C259      1.0  0.2512300000000002  0.25123  0.52971  1.0000
  C   C260      1.0  0.30923  0.30923000000000006  0.51901  1.0000
  C   C261      1.0  0.25120999999999993  0.25121000000000004  0.96787  1.0000
  C   C262      1.0  0.30919999999999975  0.30921  0.8625700000000001  1.0000
  C   C263      1.0  0.5297100000000003  0.96786  0.25123  1.0000
  C   C264      1.0  0.5190199999999999  0.86257  0.30921  1.0000
  C   C265      1.0  0.7487700000000002  0.03214999999999998  0.4702900000000001  1.0000
  C   C266      1.0  0.69079  0.13742999999999997  0.4809800000000001  1.0000
  C   C267      1.0  0.03212999999999998  0.7487900000000001  0.74878  1.0000
  C   C268      1.0  0.13742999999999983  0.6907900000000002  0.6907900000000002  1.0000
  C   C269      1.0  0.47029  0.74877  0.74877  1.0000
  C   C270      1.0  0.48098999999999975  0.6907700000000002  0.69077  1.0000
  C   C271      1.0  0.7487700000000002  0.4702900000000001  0.03215  1.0000
  C   C272      1.0  0.69079  0.48098  0.13743  1.0000
  C   C273      1.0  0.47029  0.74877  0.03214000000000001  1.0000
  C   C274      1.0  0.4809800000000001  0.6907900000000002  0.13742  1.0000
  C   C275      1.0  0.74879  0.032130000000000006  0.74878  1.0000
  C   C276      1.0  0.6907899999999999  0.1374299999999999  0.6907900000000002  1.0000
  C   C277      1.0  0.7487700000000003  0.4702900000000001  0.74877  1.0000
  C   C278      1.0  0.6907700000000003  0.48099000000000003  0.69077  1.0000
  C   C279      1.0  0.03213999999999996  0.74877  0.4702900000000001  1.0000
  C   C280      1.0  0.1374199999999999  0.6907900000000002  0.4809800000000001  1.0000
  C   C281      1.0  0.03213999999999993  0.4702900000000001  0.74877  1.0000
  C   C282      1.0  0.13741999999999993  0.48097999999999996  0.6907900000000002  1.0000
  C   C283      1.0  0.7487800000000001  0.7487900000000001  0.03213  1.0000
  C   C284      1.0  0.6907899999999997  0.6907900000000005  0.13743  1.0000
  C   C285      1.0  0.7487700000000002  0.74877  0.4702900000000001  1.0000
  C   C286      1.0  0.6907700000000003  0.6907700000000002  0.48099  1.0000
  C   C287      1.0  0.4702900000000002  0.03214000000000001  0.74877  1.0000
  C   C288      1.0  0.48097999999999996  0.1374299999999999  0.6907900000000002  1.0000
  N   N1        1.0  0.22175000000000006  0.02161  0.22175000000000003  1.0000
  N   N2        1.0  0.0216  0.22175000000000003  0.5349  1.0000
  N   N3        1.0  0.5349  0.22175000000000003  0.0216  1.0000
  N   N4        1.0  0.22175  0.5349  0.22176000000000007  1.0000
  N   N5        1.0  0.5349000000000002  0.22176000000000007  0.22175000000000003  1.0000
  N   N6        1.0  0.22175000000000003  0.0216  0.5349  1.0000
  N   N7        1.0  0.22175  0.5349  0.0216  1.0000
  N   N8        1.0  0.021609999999999983  0.22175000000000003  0.22175000000000003  1.0000
  N   N9        1.0  0.021599999999999956  0.5349  0.22175000000000003  1.0000
  N   N10       1.0  0.22174999999999997  0.22176000000000004  0.5349  1.0000
  N   N11       1.0  0.22175000000000006  0.22175000000000003  0.02161  1.0000
  N   N12       1.0  0.5349  0.021599999999999994  0.22175000000000003  1.0000
  N   N13       1.0  0.77825  0.9784  0.46510000000000007  1.0000
  N   N14       1.0  0.9783899999999999  0.7782500000000002  0.77825  1.0000
  N   N15       1.0  0.46508999999999995  0.7782400000000002  0.77824  1.0000
  N   N16       1.0  0.7782500000000003  0.4651000000000002  0.9784  1.0000
  N   N17       1.0  0.46510000000000007  0.7782500000000003  0.9784  1.0000
  N   N18       1.0  0.7782400000000003  0.97839  0.77825  1.0000
  N   N19       1.0  0.7782400000000005  0.46510000000000007  0.77824  1.0000
  N   N20       1.0  0.9784000000000005  0.7782499999999999  0.46510000000000007  1.0000
  N   N21       1.0  0.9784000000000005  0.4651  0.77825  1.0000
  N   N22       1.0  0.77824  0.7782500000000002  0.9783900000000001  1.0000
  N   N23       1.0  0.7782399999999998  0.7782400000000003  0.46509  1.0000
  N   N24       1.0  0.46510000000000007  0.9784  0.77825  1.0000
  O   O1        1.0  0.41807  0.89028  0.17805  1.0000
  O   O2        1.0  0.4182500000000002  0.8136500000000001  0.25459  1.0000
  O   O3        1.0  0.13424000000000003  0.03686999999999999  0.29079  1.0000
  O   O4        1.0  0.8903000000000004  0.4181  0.5136  1.0000
  O   O5        1.0  0.8136599999999999  0.41826000000000013  0.51349  1.0000
  O   O6        1.0  0.03682999999999993  0.13423999999999997  0.5381200000000002  1.0000
  O   O7        1.0  0.5136  0.17804  0.89025  1.0000
  O   O8        1.0  0.5134900000000001  0.25459999999999994  0.8136300000000002  1.0000
  O   O9        1.0  0.5381200000000003  0.2907600000000001  0.0369  1.0000
  O   O10       1.0  0.17806000000000022  0.51359  0.41808000000000006  1.0000
  O   O11       1.0  0.25461  0.51349  0.41828  1.0000
  O   O12       1.0  0.29078000000000015  0.53813  0.13425  1.0000
  O   O13       1.0  0.5135900000000002  0.4180800000000001  0.17806  1.0000
  O   O14       1.0  0.51349  0.41829  0.25461  1.0000
  O   O15       1.0  0.53813  0.13425  0.29079  1.0000
  O   O16       1.0  0.17803999999999984  0.8902500000000002  0.51361  1.0000
  O   O17       1.0  0.2546  0.8136300000000001  0.5135  1.0000
  O   O18       1.0  0.29075999999999996  0.03688999999999995  0.5381200000000002  1.0000
  O   O19       1.0  0.4180900000000002  0.5136  0.8903  1.0000
  O   O20       1.0  0.41825999999999997  0.5134900000000002  0.81366  1.0000
  O   O21       1.0  0.13424  0.53812  0.03683000000000001  1.0000
  O   O22       1.0  0.8902800000000001  0.17805  0.41807  1.0000
  O   O23       1.0  0.8136500000000003  0.25459000000000004  0.41825  1.0000
  O   O24       1.0  0.03686000000000004  0.29079  0.13424000000000003  1.0000
  O   O25       1.0  0.8902499999999999  0.51361  0.17804000000000006  1.0000
  O   O26       1.0  0.8136300000000004  0.5135  0.2546  1.0000
  O   O27       1.0  0.03688999999999999  0.53812  0.29077  1.0000
  O   O28       1.0  0.41808000000000006  0.17806000000000002  0.51359  1.0000
  O   O29       1.0  0.41828000000000004  0.25461  0.51349  1.0000
  O   O30       1.0  0.13425000000000004  0.29079  0.53813  1.0000
  O   O31       1.0  0.17803999999999978  0.41807000000000005  0.8902800000000002  1.0000
  O   O32       1.0  0.2545899999999999  0.4182500000000001  0.81365  1.0000
  O   O33       1.0  0.29080000000000017  0.13423  0.03686  1.0000
  O   O34       1.0  0.5135900000000002  0.8902999999999998  0.41810000000000014  1.0000
  O   O35       1.0  0.5134899999999999  0.8136700000000002  0.41826000000000013  1.0000
  O   O36       1.0  0.5381200000000003  0.03681999999999999  0.13424000000000003  1.0000
  O   O37       1.0  0.5819  0.10970000000000005  0.4864  1.0000
  O   O38       1.0  0.5817400000000001  0.18633  0.4865100000000001  1.0000
  O   O39       1.0  0.86576  0.9631700000000002  0.46188  1.0000
  O   O40       1.0  0.10971999999999996  0.58193  0.8219500000000002  1.0000
  O   O41       1.0  0.18634999999999988  0.5817500000000001  0.7454100000000001  1.0000
  O   O42       1.0  0.9631300000000003  0.8657599999999999  0.70921  1.0000
  O   O43       1.0  0.4863999999999999  0.8219400000000001  0.58192  1.0000
  O   O44       1.0  0.48650000000000004  0.7453900000000001  0.58171  1.0000
  O   O45       1.0  0.46186999999999995  0.7092100000000001  0.86575  1.0000
  O   O46       1.0  0.8219600000000001  0.48639000000000004  0.10975  1.0000
  O   O47       1.0  0.7454000000000002  0.4865000000000001  0.18637  1.0000
  O   O48       1.0  0.70923  0.46188000000000007  0.9631100000000002  1.0000
  O   O49       1.0  0.4864  0.5819  0.10969000000000001  1.0000
  O   O50       1.0  0.48650000000000004  0.58174  0.18633  1.0000
  O   O51       1.0  0.46188  0.8657600000000002  0.96318  1.0000
  O   O52       1.0  0.8219500000000001  0.10970999999999999  0.58193  1.0000
  O   O53       1.0  0.74541  0.18634  0.58175  1.0000
  O   O54       1.0  0.7092000000000002  0.9631400000000001  0.86576  1.0000
  O   O55       1.0  0.5819200000000003  0.4864099999999999  0.8219400000000002  1.0000
  O   O56       1.0  0.58171  0.4865  0.74539  1.0000
  O   O57       1.0  0.86574  0.46187  0.70921  1.0000
  O   O58       1.0  0.10973999999999993  0.8219600000000001  0.48639000000000004  1.0000
  O   O59       1.0  0.1863699999999999  0.7454000000000001  0.4865  1.0000
  O   O60       1.0  0.9631100000000004  0.7092300000000002  0.46188  1.0000
  O   O61       1.0  0.10969999999999996  0.4864  0.5819  1.0000
  O   O62       1.0  0.18632999999999983  0.48651000000000016  0.58174  1.0000
  O   O63       1.0  0.9631699999999999  0.46188  0.86576  1.0000
  O   O64       1.0  0.5819300000000001  0.8219500000000002  0.10972000000000003  1.0000
  O   O65       1.0  0.5817499999999999  0.7454000000000001  0.18635000000000004  1.0000
  O   O66       1.0  0.86576  0.7092100000000001  0.96313  1.0000
  O   O67       1.0  0.82194  0.58192  0.48641000000000006  1.0000
  O   O68       1.0  0.7453800000000002  0.58171  0.4865100000000001  1.0000
  O   O69       1.0  0.7092100000000001  0.8657500000000002  0.46187000000000006  1.0000
  O   O70       1.0  0.48638999999999993  0.10975000000000004  0.82196  1.0000
  O   O71       1.0  0.4865  0.18637000000000006  0.7454000000000002  1.0000
  O   O72       1.0  0.4618800000000004  0.9630999999999998  0.70924  1.0000
  O   O73       1.0  0.5819300000000001  0.10971999999999993  0.8219500000000002  1.0000
  O   O74       1.0  0.5817499999999999  0.18635  0.7454000000000002  1.0000
  O   O75       1.0  0.8657599999999999  0.9631299999999999  0.70921  1.0000
  O   O76       1.0  0.10969999999999999  0.5819  0.4864  1.0000
  O   O77       1.0  0.1863299999999999  0.58174  0.4865100000000001  1.0000
  O   O78       1.0  0.96317  0.8657600000000002  0.46188  1.0000
  O   O79       1.0  0.48638999999999993  0.8219600000000001  0.10975  1.0000
  O   O80       1.0  0.4865  0.7454000000000001  0.18637  1.0000
  O   O81       1.0  0.46187999999999974  0.7092400000000002  0.9631  1.0000
  O   O82       1.0  0.8219399999999998  0.4864100000000002  0.58192  1.0000
  O   O83       1.0  0.7453800000000002  0.4865100000000003  0.58171  1.0000
  O   O84       1.0  0.7092100000000003  0.46186999999999995  0.8657400000000002  1.0000
  O   O85       1.0  0.4864000000000002  0.58192  0.8219400000000002  1.0000
  O   O86       1.0  0.48650000000000004  0.58171  0.74539  1.0000
  O   O87       1.0  0.4618700000000001  0.8657499999999999  0.70921  1.0000
  O   O88       1.0  0.8219600000000001  0.10974999999999997  0.48639000000000004  1.0000
  O   O89       1.0  0.7453999999999998  0.1863700000000001  0.4865  1.0000
  O   O90       1.0  0.70923  0.96311  0.46188  1.0000
  O   O91       1.0  0.5819  0.4864000000000001  0.10970000000000003  1.0000
  O   O92       1.0  0.5817400000000003  0.4865100000000001  0.18633  1.0000
  O   O93       1.0  0.86576  0.46188000000000007  0.9631700000000002  1.0000
  O   O94       1.0  0.10971999999999985  0.8219500000000002  0.58193  1.0000
  O   O95       1.0  0.18635000000000013  0.7454100000000001  0.58175  1.0000
  O   O96       1.0  0.9631300000000002  0.7092100000000001  0.86576  1.0000
  O   O97       1.0  0.10973999999999993  0.48639000000000004  0.82196  1.0000
  O   O98       1.0  0.18636999999999987  0.4865000000000001  0.7454000000000002  1.0000
  O   O99       1.0  0.96311  0.46188  0.70923  1.0000
  O   O100      1.0  0.5819199999999999  0.8219400000000001  0.4864  1.0000
  O   O101      1.0  0.5817099999999995  0.7453900000000001  0.4865  1.0000
  O   O102      1.0  0.86574  0.7092100000000001  0.46187000000000006  1.0000
  O   O103      1.0  0.82195  0.58193  0.10971  1.0000
  O   O104      1.0  0.7454100000000001  0.5817500000000002  0.18634  1.0000
  O   O105      1.0  0.7091999999999997  0.8657700000000003  0.96314  1.0000
  O   O106      1.0  0.48640000000000005  0.10968999999999998  0.5819  1.0000
  O   O107      1.0  0.48650000000000004  0.18633000000000002  0.58174  1.0000
  O   O108      1.0  0.4618799999999998  0.9631800000000001  0.86576  1.0000
  O   O109      1.0  0.41809000000000035  0.8903  0.5136  1.0000
  O   O110      1.0  0.41825999999999985  0.8136600000000002  0.51349  1.0000
  O   O111      1.0  0.13423999999999997  0.03682999999999996  0.5381200000000002  1.0000
  O   O112      1.0  0.8902799999999998  0.4180700000000001  0.17805  1.0000
  O   O113      1.0  0.8136500000000002  0.4182500000000001  0.25459  1.0000
  O   O114      1.0  0.03685999999999999  0.13424  0.29079  1.0000
  O   O115      1.0  0.5135900000000002  0.17806000000000002  0.41808000000000006  1.0000
  O   O116      1.0  0.5134900000000002  0.25460999999999995  0.4182900000000001  1.0000
  O   O117      1.0  0.53813  0.29079  0.13425  1.0000
  O   O118      1.0  0.17803999999999987  0.5136100000000002  0.89025  1.0000
  O   O119      1.0  0.2545999999999999  0.5135  0.8136300000000002  1.0000
  O   O120      1.0  0.29076  0.53812  0.03689  1.0000
  O   O121      1.0  0.5136000000000002  0.41810000000000025  0.8903  1.0000
  O   O122      1.0  0.5134900000000002  0.4182600000000001  0.8136700000000002  1.0000
  O   O123      1.0  0.5381200000000003  0.13424  0.03682  1.0000
  O   O124      1.0  0.17804  0.89028  0.41807  1.0000
  O   O125      1.0  0.2545899999999998  0.8136500000000001  0.41825  1.0000
  O   O126      1.0  0.2908000000000001  0.036860000000000004  0.13423  1.0000
  O   O127      1.0  0.4180800000000002  0.51359  0.17806  1.0000
  O   O128      1.0  0.41828  0.5135  0.25461  1.0000
  O   O129      1.0  0.1342500000000001  0.5381300000000002  0.29079  1.0000
  O   O130      1.0  0.8902500000000001  0.17804  0.5136  1.0000
  O   O131      1.0  0.81363  0.2546000000000001  0.5135  1.0000
  O   O132      1.0  0.03688999999999993  0.29077  0.5381200000000002  1.0000
  O   O133      1.0  0.8902999999999995  0.5135999999999998  0.41810000000000014  1.0000
  O   O134      1.0  0.81366  0.51349  0.41826000000000013  1.0000
  O   O135      1.0  0.03682999999999996  0.53812  0.13424000000000003  1.0000
  O   O136      1.0  0.4180699999999999  0.1780499999999999  0.8902800000000002  1.0000
  O   O137      1.0  0.41824999999999996  0.25459  0.81365  1.0000
  O   O138      1.0  0.1342400000000001  0.29079  0.03687  1.0000
  O   O139      1.0  0.17805999999999989  0.4180800000000001  0.51359  1.0000
  O   O140      1.0  0.25460999999999995  0.41829  0.51349  1.0000
  O   O141      1.0  0.29078000000000015  0.13425  0.53813  1.0000
  O   O142      1.0  0.5135999999999998  0.8902500000000002  0.17804000000000006  1.0000
  O   O143      1.0  0.5134900000000001  0.8136300000000001  0.2546  1.0000
  O   O144      1.0  0.5381200000000003  0.03690000000000001  0.29076  1.0000
