data_image0
_chemical_formula_structural       Zn36H160C296O164
_chemical_formula_sum              "Zn36 H160 C296 O164"
_cell_length_a       18.76865
_cell_length_b       30.75679
_cell_length_c       31.06997
_cell_angle_alpha    90.0
_cell_angle_beta     90.0
_cell_angle_gamma    90.0

_symmetry_space_group_name_H-M    'P 1'
_symmetry_Int_Tables_number       1

loop_
  _symmetry_equiv_pos_as_xyz
  'x,y,z'

loop_
  _atom_site_type_symbol
  _atom_site_label
  _atom_site_symmetry_multiplicity
  _atom_site_fract_x
  _atom_site_fract_y
  _atom_site_fract_z
  _atom_site_occupancy
  Zn  Zn1       1.0  0.76853  0.02492  0.52036  1.0000
  Zn  Zn2       1.0  0.83761  0.9530199999999999  0.50672  1.0000
  Zn  Zn3       1.0  0.25178  0.99881  0.9683699999999997  1.0000
  Zn  Zn4       1.0  0.35198  0.7998499999999998  0.72531  1.0000
  Zn  Zn5       1.0  0.32043000000000005  0.0033799999999999993  0.03966  1.0000
  Zn  Zn6       1.0  0.26978  0.79544  0.64813  1.0000
  Zn  Zn7       1.0  0.30127  0.71481  0.26526  1.0000
  Zn  Zn8       1.0  0.334  0.74816  0.17803999999999995  1.0000
  Zn  Zn9       1.0  0.34023  0.71582  0.67648  1.0000
  Zn  Zn10      1.0  0.26853  0.97508  0.4796399999999999  1.0000
  Zn  Zn11      1.0  0.3376  0.04698  0.49329  1.0000
  Zn  Zn12      1.0  0.75178  0.00119  0.03163  1.0000
  Zn  Zn13      1.0  0.8519800000000001  0.20015  0.27469  1.0000
  Zn  Zn14      1.0  0.82044  0.99662  0.96034  1.0000
  Zn  Zn15      1.0  0.7697800000000001  0.20456  0.35186  1.0000
  Zn  Zn16      1.0  0.8012700000000001  0.28518  0.7347399999999997  1.0000
  Zn  Zn17      1.0  0.834  0.25184  0.82196  1.0000
  Zn  Zn18      1.0  0.84023  0.28417  0.32352  1.0000
  Zn  Zn19      1.0  0.76854  0.52492  0.97964  1.0000
  Zn  Zn20      1.0  0.8376  0.45302  0.99327  1.0000
  Zn  Zn21      1.0  0.25178  0.49881  0.53162  1.0000
  Zn  Zn22      1.0  0.35198  0.29985  0.7746899999999998  1.0000
  Zn  Zn23      1.0  0.32044  0.50337  0.46034  1.0000
  Zn  Zn24      1.0  0.26977  0.29544  0.85186  1.0000
  Zn  Zn25      1.0  0.30127  0.21482  0.23473999999999998  1.0000
  Zn  Zn26      1.0  0.33399  0.24816  0.3219599999999999  1.0000
  Zn  Zn27      1.0  0.34023  0.21582  0.8235199999999998  1.0000
  Zn  Zn28      1.0  0.26853  0.4750799999999999  0.02036  1.0000
  Zn  Zn29      1.0  0.3376  0.54697  0.0067  1.0000
  Zn  Zn30      1.0  0.75178  0.50119  0.46837  1.0000
  Zn  Zn31      1.0  0.8519800000000001  0.70015  0.22530999999999995  1.0000
  Zn  Zn32      1.0  0.82044  0.49662  0.53965  1.0000
  Zn  Zn33      1.0  0.7697800000000001  0.70456  0.14813  1.0000
  Zn  Zn34      1.0  0.80128  0.7851799999999999  0.76525  1.0000
  Zn  Zn35      1.0  0.834  0.75184  0.67803  1.0000
  Zn  Zn36      1.0  0.84023  0.78417  0.17647999999999994  1.0000
  H   H1        1.0  0.41585  0.00247  0.8762  1.0000
  H   H2        1.0  0.64599  0.99656  0.8700999999999998  1.0000
  H   H3        1.0  0.53943  0.98509  0.99173  1.0000
  H   H4        1.0  0.6255  0.03037  0.81127  1.0000
  H   H5        1.0  0.60864  0.97439  0.7994999999999998  1.0000
  H   H6        1.0  0.66771  0.04599  0.7291199999999998  1.0000
  H   H7        1.0  0.61451  0.01891  0.68935  1.0000
  H   H8        1.0  0.46320000000000006  0.98762  0.7580299999999998  1.0000
  H   H9        1.0  0.53127  0.95649  0.73201  1.0000
  H   H10       1.0  0.43588  0.03125  0.62245  1.0000
  H   H11       1.0  0.29447  0.92265  0.60251  1.0000
  H   H12       1.0  0.42162  0.92858  0.7172599999999998  1.0000
  H   H13       1.0  0.7287  0.90925  0.75243  1.0000
  H   H14       1.0  0.82553  0.88345  0.62916  1.0000
  H   H15       1.0  0.7084000000000001  0.002179999999999999  0.64896  1.0000
  H   H16       1.0  0.54573  0.9951  0.4851999999999999  1.0000
  H   H17       1.0  0.43388  0.87923  0.44663999999999987  1.0000
  H   H18       1.0  0.66111  0.87505  0.46859  1.0000
  H   H19       1.0  0.63948  0.80056  0.43434  1.0000
  H   H20       1.0  0.6078  0.80089  0.48871  1.0000
  H   H21       1.0  0.65146  0.71419  0.4324399999999999  1.0000
  H   H22       1.0  0.58035  0.68449  0.4573  1.0000
  H   H23       1.0  0.45304000000000005  0.77571  0.47026  1.0000
  H   H24       1.0  0.50805  0.7511  0.51054  1.0000
  H   H25       1.0  0.40423  0.63232  0.46183  1.0000
  H   H26       1.0  0.26099  0.63865  0.56968  1.0000
  H   H27       1.0  0.38428  0.75167  0.5345199999999998  1.0000
  H   H28       1.0  0.46329000000000004  0.13774  0.7604899999999998  1.0000
  H   H29       1.0  0.56106  0.26327  0.74579  1.0000
  H   H30       1.0  0.6909  0.15096  0.7749899999999997  1.0000
  H   H31       1.0  0.52107  0.0774  0.72049  1.0000
  H   H32       1.0  0.48748  0.06732  0.77347  1.0000
  H   H33       1.0  0.67586  0.64036  0.4738199999999999  1.0000
  H   H34       1.0  0.82146  0.62508  0.5801  1.0000
  H   H35       1.0  0.7125  0.74666  0.5621999999999998  1.0000
  H   H36       1.0  0.56316  0.73514  0.20449  1.0000
  H   H37       1.0  0.69694  0.73473  0.31738  1.0000
  H   H38       1.0  0.47016  0.7552  0.3293  1.0000
  H   H39       1.0  0.49762999999999996  0.77646  0.39221  1.0000
  H   H40       1.0  0.5049  0.7184  0.39395  1.0000
  H   H41       1.0  0.91585  0.99753  0.12378999999999997  1.0000
  H   H42       1.0  0.14599  0.00343  0.12989999999999993  1.0000
  H   H43       1.0  0.03943  0.01491  0.00827  1.0000
  H   H44       1.0  0.1255  0.9696299999999998  0.18873  1.0000
  H   H45       1.0  0.10863  0.02561  0.2005  1.0000
  H   H46       1.0  0.16771  0.95401  0.27087  1.0000
  H   H47       1.0  0.11451  0.98109  0.31065  1.0000
  H   H48       1.0  0.96319  0.012369999999999999  0.24197  1.0000
  H   H49       1.0  0.03126  0.04351  0.26799  1.0000
  H   H50       1.0  0.93588  0.96874  0.37755  1.0000
  H   H51       1.0  0.79447  0.07735  0.39749  1.0000
  H   H52       1.0  0.92162  0.07141  0.28273999999999994  1.0000
  H   H53       1.0  0.2287  0.09075  0.24757  1.0000
  H   H54       1.0  0.32553  0.11654  0.3708399999999999  1.0000
  H   H55       1.0  0.2084  0.99781  0.35104  1.0000
  H   H56       1.0  0.04572  0.004899999999999998  0.5148  1.0000
  H   H57       1.0  0.9338700000000001  0.12076  0.55336  1.0000
  H   H58       1.0  0.16111  0.12493999999999997  0.5314  1.0000
  H   H59       1.0  0.13948  0.19944  0.56566  1.0000
  H   H60       1.0  0.10779  0.1991  0.51128  1.0000
  H   H61       1.0  0.15146  0.2858099999999999  0.56756  1.0000
  H   H62       1.0  0.08035  0.31551  0.5427  1.0000
  H   H63       1.0  0.95304  0.22428  0.52974  1.0000
  H   H64       1.0  0.00805  0.24889  0.48946  1.0000
  H   H65       1.0  0.9042300000000001  0.36768  0.53817  1.0000
  H   H66       1.0  0.76099  0.36135  0.43032  1.0000
  H   H67       1.0  0.8842799999999998  0.24832999999999994  0.4654799999999999  1.0000
  H   H68       1.0  0.9633000000000002  0.86226  0.23950999999999995  1.0000
  H   H69       1.0  0.06106  0.73673  0.25421  1.0000
  H   H70       1.0  0.1909  0.84904  0.22501  1.0000
  H   H71       1.0  0.02107  0.9226  0.27951  1.0000
  H   H72       1.0  0.9874900000000001  0.9326699999999998  0.22653  1.0000
  H   H73       1.0  0.17586  0.35963  0.52618  1.0000
  H   H74       1.0  0.32146  0.37492  0.4199  1.0000
  H   H75       1.0  0.21249  0.25334  0.4377999999999999  1.0000
  H   H76       1.0  0.06316  0.26485  0.7955099999999998  1.0000
  H   H77       1.0  0.19693  0.26527  0.68262  1.0000
  H   H78       1.0  0.97016  0.24479  0.6706999999999999  1.0000
  H   H79       1.0  0.99763  0.22353  0.60779  1.0000
  H   H80       1.0  0.0049  0.2816  0.60605  1.0000
  H   H81       1.0  0.41585  0.50247  0.6237899999999997  1.0000
  H   H82       1.0  0.64599  0.49656  0.62989  1.0000
  H   H83       1.0  0.53943  0.48509  0.50827  1.0000
  H   H84       1.0  0.62551  0.53037  0.68873  1.0000
  H   H85       1.0  0.60864  0.47438999999999987  0.7005  1.0000
  H   H86       1.0  0.66771  0.54599  0.77087  1.0000
  H   H87       1.0  0.61451  0.51891  0.8106499999999998  1.0000
  H   H88       1.0  0.46319000000000005  0.48762  0.74196  1.0000
  H   H89       1.0  0.53127  0.45649  0.76798  1.0000
  H   H90       1.0  0.43588  0.53125  0.8775399999999998  1.0000
  H   H91       1.0  0.29447  0.42265  0.89749  1.0000
  H   H92       1.0  0.42162  0.42859  0.78273  1.0000
  H   H93       1.0  0.7287  0.40925  0.74757  1.0000
  H   H94       1.0  0.82553  0.38345  0.87083  1.0000
  H   H95       1.0  0.7084000000000001  0.50218  0.85104  1.0000
  H   H96       1.0  0.54572  0.4951  0.0148  1.0000
  H   H97       1.0  0.43387  0.37924  0.053359999999999984  1.0000
  H   H98       1.0  0.66111  0.37506  0.0314  1.0000
  H   H99       1.0  0.63948  0.30056  0.06566  1.0000
  H   H100      1.0  0.60779  0.3008999999999999  0.01128  1.0000
  H   H101      1.0  0.65146  0.21419  0.06756  1.0000
  H   H102      1.0  0.58035  0.18449  0.0427  1.0000
  H   H103      1.0  0.45304000000000005  0.27571  0.02974  1.0000
  H   H104      1.0  0.50805  0.25111  0.98946  1.0000
  H   H105      1.0  0.40423  0.13232  0.03816999999999999  1.0000
  H   H106      1.0  0.26099  0.13865  0.93032  1.0000
  H   H107      1.0  0.38428  0.25167  0.96548  1.0000
  H   H108      1.0  0.46329000000000004  0.63774  0.73951  1.0000
  H   H109      1.0  0.56106  0.76326  0.75421  1.0000
  H   H110      1.0  0.6909  0.65095  0.72501  1.0000
  H   H111      1.0  0.52107  0.57739  0.77951  1.0000
  H   H112      1.0  0.48749000000000003  0.56732  0.72653  1.0000
  H   H113      1.0  0.67586  0.14036999999999994  0.02618  1.0000
  H   H114      1.0  0.82146  0.12508  0.9199  1.0000
  H   H115      1.0  0.7125  0.24666  0.93779  1.0000
  H   H116      1.0  0.56316  0.23514  0.29550999999999994  1.0000
  H   H117      1.0  0.69693  0.23472999999999997  0.18262  1.0000
  H   H118      1.0  0.47016  0.2552  0.1707  1.0000
  H   H119      1.0  0.49762999999999996  0.27646  0.10778999999999997  1.0000
  H   H120      1.0  0.5049  0.2184  0.10605  1.0000
  H   H121      1.0  0.91585  0.49753  0.37619999999999987  1.0000
  H   H122      1.0  0.14599  0.50344  0.3701  1.0000
  H   H123      1.0  0.03943  0.51491  0.49173  1.0000
  H   H124      1.0  0.1255  0.46963  0.31127  1.0000
  H   H125      1.0  0.10863  0.52561  0.2995  1.0000
  H   H126      1.0  0.16771  0.45401  0.22911999999999993  1.0000
  H   H127      1.0  0.11451  0.48109  0.18935  1.0000
  H   H128      1.0  0.96319  0.51237  0.25803  1.0000
  H   H129      1.0  0.03126  0.54351  0.23201  1.0000
  H   H130      1.0  0.93588  0.4687399999999999  0.12244999999999998  1.0000
  H   H131      1.0  0.79447  0.57735  0.10251  1.0000
  H   H132      1.0  0.92162  0.57141  0.21726  1.0000
  H   H133      1.0  0.2287  0.59075  0.25242  1.0000
  H   H134      1.0  0.32553  0.61654  0.12915999999999994  1.0000
  H   H135      1.0  0.2084  0.49782  0.14896  1.0000
  H   H136      1.0  0.04572  0.5049  0.9851999999999997  1.0000
  H   H137      1.0  0.9338799999999999  0.62076  0.94664  1.0000
  H   H138      1.0  0.16111  0.6249399999999998  0.96859  1.0000
  H   H139      1.0  0.13948  0.6994299999999999  0.9343399999999997  1.0000
  H   H140      1.0  0.10779  0.6991  0.9887099999999999  1.0000
  H   H141      1.0  0.15146  0.78581  0.93244  1.0000
  H   H142      1.0  0.08035  0.8155  0.95729  1.0000
  H   H143      1.0  0.9530499999999998  0.72428  0.97026  1.0000
  H   H144      1.0  0.00805  0.74889  0.010539999999999997  1.0000
  H   H145      1.0  0.9042300000000001  0.86768  0.9618299999999997  1.0000
  H   H146      1.0  0.76099  0.8613399999999998  0.06968  1.0000
  H   H147      1.0  0.8842799999999998  0.74833  0.03452  1.0000
  H   H148      1.0  0.96329  0.3622599999999999  0.26049  1.0000
  H   H149      1.0  0.06106  0.23673  0.24578999999999995  1.0000
  H   H150      1.0  0.1909  0.34904  0.27499  1.0000
  H   H151      1.0  0.02107  0.4226  0.22049  1.0000
  H   H152      1.0  0.9874900000000001  0.43267  0.27347  1.0000
  H   H153      1.0  0.17586  0.8596299999999998  0.97382  1.0000
  H   H154      1.0  0.32146  0.87491  0.0801  1.0000
  H   H155      1.0  0.21250000000000002  0.75334  0.0622  1.0000
  H   H156      1.0  0.06316  0.7648499999999998  0.7044899999999997  1.0000
  H   H157      1.0  0.19693  0.76527  0.8173799999999998  1.0000
  H   H158      1.0  0.97016  0.74479  0.8293  1.0000
  H   H159      1.0  0.99763  0.72353  0.89221  1.0000
  H   H160      1.0  0.0049  0.78159  0.89395  1.0000
  C   C1        1.0  0.4043300000000001  0.9922199999999998  0.96248  1.0000
  C   C2        1.0  0.7640400000000002  0.58226  0.51291  1.0000
  C   C3        1.0  0.66928  0.98832  0.9542799999999998  1.0000
  C   C4        1.0  0.47093  0.99267  0.93641  1.0000
  C   C5        1.0  0.46725  0.9987199999999998  0.8918499999999998  1.0000
  C   C6        1.0  0.53011  0.00073  0.86761  1.0000
  C   C7        1.0  0.59611  0.99555  0.88769  1.0000
  C   C8        1.0  0.5988700000000001  0.9899599999999997  0.93246  1.0000
  C   C9        1.0  0.53678  0.98871  0.9570399999999998  1.0000
  C   C10       1.0  0.58597  0.00726  0.79871  1.0000
  C   C11       1.0  0.56576  0.02041  0.7526199999999997  1.0000
  C   C12       1.0  0.63199  0.01839  0.7230899999999998  1.0000
  C   C13       1.0  0.50847  0.98926  0.73568  1.0000
  C   C14       1.0  0.43447  0.98282  0.67285  1.0000
  C   C15       1.0  0.41269  0.00089  0.63357  1.0000
  C   C16       1.0  0.36218000000000006  0.97932  0.60842  1.0000
  C   C17       1.0  0.33295  0.93968  0.62241  1.0000
  C   C18       1.0  0.3547  0.92195  0.6616899999999998  1.0000
  C   C19       1.0  0.40552  0.94357  0.68718  1.0000
  C   C20       1.0  0.32799  0.8782399999999998  0.67587  1.0000
  C   C21       1.0  0.7117  0.9580699999999998  0.7038899999999998  1.0000
  C   C22       1.0  0.74029  0.9191699999999998  0.7196099999999997  1.0000
  C   C23       1.0  0.78068  0.89246  0.6928599999999998  1.0000
  C   C24       1.0  0.79519  0.90461  0.65033  1.0000
  C   C25       1.0  0.76996  0.9445699999999999  0.63547  1.0000
  C   C26       1.0  0.7277400000000002  0.9716199999999998  0.6620199999999999  1.0000
  C   C27       1.0  0.80227  0.84944  0.7099099999999998  1.0000
  C   C28       1.0  0.7864400000000001  0.95828  0.59032  1.0000
  C   C29       1.0  0.41318  0.96354  0.46797  1.0000
  C   C30       1.0  0.34162  0.9972899999999998  0.56543  1.0000
  C   C31       1.0  0.67802  0.95988  0.49086  1.0000
  C   C32       1.0  0.61013  0.93739  0.47786  1.0000
  C   C33       1.0  0.54631  0.96084  0.47679  1.0000
  C   C34       1.0  0.48255  0.93972  0.46568  1.0000
  C   C35       1.0  0.4832  0.89571  0.45495  1.0000
  C   C36       1.0  0.54712  0.87217  0.45567  1.0000
  C   C37       1.0  0.61089  0.8926299999999998  0.4674  1.0000
  C   C38       1.0  0.59203  0.7972999999999998  0.4548699999999999  1.0000
  C   C39       1.0  0.55648  0.75255  0.44701  1.0000
  C   C40       1.0  0.60925  0.71561  0.45689999999999986  1.0000
  C   C41       1.0  0.49035  0.74902  0.47684  1.0000
  C   C42       1.0  0.40181  0.69369  0.49551  1.0000
  C   C43       1.0  0.37967  0.65077  0.4876999999999999  1.0000
  C   C44       1.0  0.32813  0.63121  0.51383  1.0000
  C   C45       1.0  0.29861  0.6544  0.54819  1.0000
  C   C46       1.0  0.3182  0.6977199999999998  0.55483  1.0000
  C   C47       1.0  0.36922000000000005  0.71813  0.52824  1.0000
  C   C48       1.0  0.30787  0.58452  0.50683  1.0000
  C   C49       1.0  0.28952  0.71986  0.59406  1.0000
  C   C50       1.0  0.43278  0.22232  0.75541  1.0000
  C   C51       1.0  0.51146  0.15724  0.7596599999999998  1.0000
  C   C52       1.0  0.50521  0.20237  0.7538  1.0000
  C   C53       1.0  0.56606  0.22858  0.75162  1.0000
  C   C54       1.0  0.63278  0.20964  0.75963  1.0000
  C   C55       1.0  0.69922  0.23591  0.7582199999999998  1.0000
  C   C56       1.0  0.63912  0.16516  0.76797  1.0000
  C   C57       1.0  0.57856  0.13867  0.7656899999999998  1.0000
  C   C58       1.0  0.53535  0.06671  0.75308  1.0000
  C   C59       1.0  0.68787  0.69665  0.51596  1.0000
  C   C60       1.0  0.70195  0.65432  0.50181  1.0000
  C   C61       1.0  0.75055  0.62858  0.52529  1.0000
  C   C62       1.0  0.78488  0.64521  0.56178  1.0000
  C   C63       1.0  0.77156  0.68803  0.57472  1.0000
  C   C64       1.0  0.72327  0.71356  0.55183  1.0000
  C   C65       1.0  0.80558  0.70698  0.61385  1.0000
  C   C66       1.0  0.43711000000000005  0.7469  0.24760999999999994  1.0000
  C   C67       1.0  0.56934  0.7386199999999998  0.23907999999999993  1.0000
  C   C68       1.0  0.63653  0.73398  0.25826  1.0000
  C   C69       1.0  0.70014  0.72219  0.23127  1.0000
  C   C70       1.0  0.64453  0.73852  0.30297  1.0000
  C   C71       1.0  0.58499  0.74693  0.32907  1.0000
  C   C72       1.0  0.51777  0.75008  0.31025  1.0000
  C   C73       1.0  0.53322  0.74914  0.39969  1.0000
  C   C74       1.0  0.51031  0.74616  0.2654699999999999  1.0000
  C   C75       1.0  0.9043199999999999  0.00778  0.03753  1.0000
  C   C76       1.0  0.26405  0.41774  0.48707  1.0000
  C   C77       1.0  0.16928  0.01168  0.045729999999999986  1.0000
  C   C78       1.0  0.9709300000000001  0.00732  0.06359  1.0000
  C   C79       1.0  0.9672499999999999  0.00128  0.10814999999999997  1.0000
  C   C80       1.0  0.0301  0.9992699999999999  0.13239  1.0000
  C   C81       1.0  0.09611  0.00444  0.11230999999999997  1.0000
  C   C82       1.0  0.09886  0.01003  0.06752999999999998  1.0000
  C   C83       1.0  0.03677  0.01128  0.04296  1.0000
  C   C84       1.0  0.08597  0.99274  0.20129  1.0000
  C   C85       1.0  0.06577  0.97958  0.24737999999999993  1.0000
  C   C86       1.0  0.13199  0.98161  0.2769099999999999  1.0000
  C   C87       1.0  0.00847  0.010729999999999996  0.26432  1.0000
  C   C88       1.0  0.93447  0.01717  0.32716  1.0000
  C   C89       1.0  0.91269  0.9991  0.36643  1.0000
  C   C90       1.0  0.86217  0.02067  0.3915799999999999  1.0000
  C   C91       1.0  0.83295  0.06031  0.37758999999999987  1.0000
  C   C92       1.0  0.85469  0.07804  0.3383099999999999  1.0000
  C   C93       1.0  0.90552  0.05642  0.3128199999999999  1.0000
  C   C94       1.0  0.82799  0.12175  0.32413  1.0000
  C   C95       1.0  0.2117  0.04192  0.29611  1.0000
  C   C96       1.0  0.24029  0.08082  0.28038  1.0000
  C   C97       1.0  0.28068  0.10754  0.30714  1.0000
  C   C98       1.0  0.29518  0.09538  0.34967  1.0000
  C   C99       1.0  0.26996  0.05543  0.36453  1.0000
  C   C100      1.0  0.22774  0.028379999999999992  0.33798  1.0000
  C   C101      1.0  0.30226  0.15056  0.2900899999999999  1.0000
  C   C102      1.0  0.28644  0.04171  0.40968  1.0000
  C   C103      1.0  0.9131800000000001  0.03646  0.53204  1.0000
  C   C104      1.0  0.84162  0.0027199999999999993  0.43457  1.0000
  C   C105      1.0  0.17801  0.04011  0.50914  1.0000
  C   C106      1.0  0.11013  0.06261  0.52214  1.0000
  C   C107      1.0  0.0463  0.03915  0.5232  1.0000
  C   C108      1.0  0.98255  0.06028  0.5343199999999998  1.0000
  C   C109      1.0  0.9832  0.10429  0.5450499999999999  1.0000
  C   C110      1.0  0.04711  0.12783  0.5443299999999998  1.0000
  C   C111      1.0  0.11089000000000002  0.10737  0.5326  1.0000
  C   C112      1.0  0.09203  0.20269  0.54512  1.0000
  C   C113      1.0  0.05648000000000001  0.24745  0.55299  1.0000
  C   C114      1.0  0.10925000000000001  0.28439  0.5430999999999998  1.0000
  C   C115      1.0  0.99035  0.25098  0.52316  1.0000
  C   C116      1.0  0.90181  0.30631  0.50449  1.0000
  C   C117      1.0  0.8796600000000001  0.34923  0.5123  1.0000
  C   C118      1.0  0.82813  0.36879  0.4861699999999999  1.0000
  C   C119      1.0  0.7986  0.34559  0.45181  1.0000
  C   C120      1.0  0.8182  0.30228  0.4451599999999999  1.0000
  C   C121      1.0  0.86922  0.2818699999999999  0.47176  1.0000
  C   C122      1.0  0.8078600000000001  0.41547  0.49315  1.0000
  C   C123      1.0  0.78952  0.28013  0.4059299999999999  1.0000
  C   C124      1.0  0.93278  0.77767  0.24458  1.0000
  C   C125      1.0  0.01146  0.84276  0.24034  1.0000
  C   C126      1.0  0.00521  0.79763  0.24619999999999995  1.0000
  C   C127      1.0  0.06606  0.77142  0.24838  1.0000
  C   C128      1.0  0.13278  0.79035  0.24036  1.0000
  C   C129      1.0  0.19922  0.76408  0.24177999999999994  1.0000
  C   C130      1.0  0.13912  0.8348399999999999  0.23202  1.0000
  C   C131      1.0  0.07856  0.8613299999999998  0.23429999999999995  1.0000
  C   C132      1.0  0.03535  0.93329  0.24691999999999995  1.0000
  C   C133      1.0  0.18786  0.30335  0.48404  1.0000
  C   C134      1.0  0.20195  0.34567  0.49819  1.0000
  C   C135      1.0  0.25054  0.37141  0.47471  1.0000
  C   C136      1.0  0.28488  0.35478999999999994  0.43821999999999994  1.0000
  C   C137      1.0  0.27156  0.31197  0.42528  1.0000
  C   C138      1.0  0.22327000000000002  0.28643  0.44816  1.0000
  C   C139      1.0  0.30558  0.29302  0.38615  1.0000
  C   C140      1.0  0.93711  0.2531  0.75239  1.0000
  C   C141      1.0  0.06934  0.26138  0.76091  1.0000
  C   C142      1.0  0.13653  0.26601  0.74174  1.0000
  C   C143      1.0  0.20013000000000003  0.2778  0.76873  1.0000
  C   C144      1.0  0.14453  0.26147  0.69702  1.0000
  C   C145      1.0  0.08499  0.25307  0.67093  1.0000
  C   C146      1.0  0.01777  0.24991  0.68974  1.0000
  C   C147      1.0  0.03321  0.25086  0.6002999999999997  1.0000
  C   C148      1.0  0.01031  0.25383  0.7345299999999998  1.0000
  C   C149      1.0  0.4043300000000001  0.49222  0.53751  1.0000
  C   C150      1.0  0.76403  0.08226  0.98708  1.0000
  C   C151      1.0  0.66927  0.48832  0.54571  1.0000
  C   C152      1.0  0.47093  0.49268  0.56359  1.0000
  C   C153      1.0  0.46725  0.49872  0.60814  1.0000
  C   C154      1.0  0.5301  0.50073  0.6323899999999998  1.0000
  C   C155      1.0  0.59611  0.49556  0.6123  1.0000
  C   C156      1.0  0.5988700000000001  0.48997  0.56753  1.0000
  C   C157      1.0  0.53677  0.48871  0.54296  1.0000
  C   C158      1.0  0.58597  0.50726  0.70129  1.0000
  C   C159      1.0  0.56577  0.52041  0.74738  1.0000
  C   C160      1.0  0.63199  0.51838  0.7769  1.0000
  C   C161      1.0  0.50847  0.48927  0.76431  1.0000
  C   C162      1.0  0.43447  0.48283  0.82715  1.0000
  C   C163      1.0  0.41269  0.50089  0.8664199999999997  1.0000
  C   C164      1.0  0.36217  0.4793299999999999  0.89157  1.0000
  C   C165      1.0  0.33295  0.4396899999999999  0.87758  1.0000
  C   C166      1.0  0.35469  0.42195  0.8383  1.0000
  C   C167      1.0  0.40552  0.44357  0.81282  1.0000
  C   C168      1.0  0.32799  0.37824  0.8241199999999997  1.0000
  C   C169      1.0  0.7117  0.45808  0.79611  1.0000
  C   C170      1.0  0.74029  0.41917  0.78038  1.0000
  C   C171      1.0  0.78068  0.39246  0.80713  1.0000
  C   C172      1.0  0.79519  0.40461  0.8496699999999998  1.0000
  C   C173      1.0  0.76996  0.44457  0.86452  1.0000
  C   C174      1.0  0.7277400000000002  0.47162  0.83798  1.0000
  C   C175      1.0  0.80226  0.34944  0.7900899999999997  1.0000
  C   C176      1.0  0.7864400000000001  0.45828  0.90968  1.0000
  C   C177      1.0  0.41318  0.46353999999999995  0.03203  1.0000
  C   C178      1.0  0.34162  0.49729  0.9345599999999997  1.0000
  C   C179      1.0  0.67802  0.45988  0.00914  1.0000
  C   C180      1.0  0.61013  0.43739  0.022139999999999993  1.0000
  C   C181      1.0  0.5463  0.46084999999999987  0.02319999999999999  1.0000
  C   C182      1.0  0.48255  0.43972  0.03431999999999999  1.0000
  C   C183      1.0  0.4832  0.39571  0.04505  1.0000
  C   C184      1.0  0.54711  0.37217  0.04433  1.0000
  C   C185      1.0  0.61089  0.39263  0.0326  1.0000
  C   C186      1.0  0.59203  0.29731  0.04512999999999999  1.0000
  C   C187      1.0  0.55648  0.25255  0.052989999999999995  1.0000
  C   C188      1.0  0.60925  0.21560999999999994  0.04309999999999999  1.0000
  C   C189      1.0  0.49035  0.24902  0.02316  1.0000
  C   C190      1.0  0.40181  0.19369  0.00449  1.0000
  C   C191      1.0  0.37967  0.15077  0.0123  1.0000
  C   C192      1.0  0.32813  0.13121  0.98617  1.0000
  C   C193      1.0  0.29861  0.15441  0.9518099999999998  1.0000
  C   C194      1.0  0.31819  0.19772  0.9451599999999998  1.0000
  C   C195      1.0  0.36922000000000005  0.21813  0.97176  1.0000
  C   C196      1.0  0.30787  0.08453  0.99316  1.0000
  C   C197      1.0  0.28952  0.21986  0.90593  1.0000
  C   C198      1.0  0.43278  0.72232  0.74458  1.0000
  C   C199      1.0  0.51146  0.65724  0.74034  1.0000
  C   C200      1.0  0.50521  0.70237  0.7462  1.0000
  C   C201      1.0  0.56606  0.72858  0.74837  1.0000
  C   C202      1.0  0.63278  0.70964  0.7403599999999998  1.0000
  C   C203      1.0  0.69922  0.73591  0.7417799999999998  1.0000
  C   C204      1.0  0.63912  0.66516  0.73202  1.0000
  C   C205      1.0  0.57856  0.63867  0.7343  1.0000
  C   C206      1.0  0.53535  0.56671  0.74692  1.0000
  C   C207      1.0  0.68786  0.19665  0.98404  1.0000
  C   C208      1.0  0.70195  0.15432999999999994  0.9981899999999998  1.0000
  C   C209      1.0  0.75055  0.12859  0.9747099999999997  1.0000
  C   C210      1.0  0.78488  0.14521  0.9382199999999998  1.0000
  C   C211      1.0  0.77156  0.18803  0.92528  1.0000
  C   C212      1.0  0.72326  0.21356999999999995  0.94816  1.0000
  C   C213      1.0  0.80558  0.20698  0.88615  1.0000
  C   C214      1.0  0.43711000000000005  0.2469  0.25239  1.0000
  C   C215      1.0  0.56934  0.23862  0.26091  1.0000
  C   C216      1.0  0.63653  0.23399  0.24174  1.0000
  C   C217      1.0  0.70013  0.2222  0.26873  1.0000
  C   C218      1.0  0.64453  0.23852  0.19702  1.0000
  C   C219      1.0  0.58499  0.24692999999999996  0.17093  1.0000
  C   C220      1.0  0.51777  0.25008  0.18975  1.0000
  C   C221      1.0  0.53321  0.24914  0.10030999999999998  1.0000
  C   C222      1.0  0.51031  0.24616  0.23452999999999993  1.0000
  C   C223      1.0  0.9043199999999999  0.50778  0.4624699999999999  1.0000
  C   C224      1.0  0.26405  0.9177399999999998  0.01293  1.0000
  C   C225      1.0  0.16928  0.51168  0.45427  1.0000
  C   C226      1.0  0.9709300000000001  0.50732  0.43641  1.0000
  C   C227      1.0  0.9672499999999999  0.50128  0.39185  1.0000
  C   C228      1.0  0.0301  0.49926  0.36761  1.0000
  C   C229      1.0  0.09611  0.50444  0.38768999999999987  1.0000
  C   C230      1.0  0.09886  0.51003  0.43247  1.0000
  C   C231      1.0  0.03677  0.51128  0.45703  1.0000
  C   C232      1.0  0.08597  0.49274  0.29871  1.0000
  C   C233      1.0  0.06576  0.47959  0.25262  1.0000
  C   C234      1.0  0.13199  0.48161  0.22308999999999996  1.0000
  C   C235      1.0  0.00847  0.51073  0.23567999999999995  1.0000
  C   C236      1.0  0.93447  0.51717  0.17284  1.0000
  C   C237      1.0  0.91269  0.4991  0.13357  1.0000
  C   C238      1.0  0.86218  0.52067  0.10842  1.0000
  C   C239      1.0  0.83295  0.56031  0.12240999999999998  1.0000
  C   C240      1.0  0.8547  0.57804  0.16169  1.0000
  C   C241      1.0  0.90552  0.5564199999999999  0.18717  1.0000
  C   C242      1.0  0.828  0.62175  0.17586999999999994  1.0000
  C   C243      1.0  0.2117  0.54192  0.20389  1.0000
  C   C244      1.0  0.24029  0.58082  0.21961  1.0000
  C   C245      1.0  0.28068  0.60753  0.19286  1.0000
  C   C246      1.0  0.29519  0.59538  0.15032  1.0000
  C   C247      1.0  0.26996  0.55543  0.13546999999999995  1.0000
  C   C248      1.0  0.22774  0.52837  0.16201  1.0000
  C   C249      1.0  0.30226  0.65056  0.20990999999999996  1.0000
  C   C250      1.0  0.28644  0.54171  0.09032  1.0000
  C   C251      1.0  0.9131800000000001  0.53645  0.9679599999999998  1.0000
  C   C252      1.0  0.84163  0.50272  0.06542  1.0000
  C   C253      1.0  0.17801  0.54011  0.99086  1.0000
  C   C254      1.0  0.11013  0.5626099999999998  0.9778599999999997  1.0000
  C   C255      1.0  0.0463  0.53915  0.97679  1.0000
  C   C256      1.0  0.98255  0.56028  0.96568  1.0000
  C   C257      1.0  0.9832  0.60428  0.95495  1.0000
  C   C258      1.0  0.04711  0.62783  0.95567  1.0000
  C   C259      1.0  0.11089000000000002  0.60737  0.96739  1.0000
  C   C260      1.0  0.09203  0.70269  0.9548699999999998  1.0000
  C   C261      1.0  0.05648000000000001  0.74744  0.9470099999999998  1.0000
  C   C262      1.0  0.10925000000000001  0.78439  0.9569  1.0000
  C   C263      1.0  0.99035  0.75098  0.9768399999999998  1.0000
  C   C264      1.0  0.90181  0.8063099999999997  0.9955  1.0000
  C   C265      1.0  0.87967  0.84923  0.9877  1.0000
  C   C266      1.0  0.82814  0.86879  0.013829999999999997  1.0000
  C   C267      1.0  0.79861  0.84559  0.04819  1.0000
  C   C268      1.0  0.8182  0.80228  0.05483  1.0000
  C   C269      1.0  0.86922  0.78187  0.02824  1.0000
  C   C270      1.0  0.80787  0.9154699999999998  0.00685  1.0000
  C   C271      1.0  0.78952  0.78013  0.09407  1.0000
  C   C272      1.0  0.93278  0.27768  0.25541  1.0000
  C   C273      1.0  0.01146  0.34276  0.25966  1.0000
  C   C274      1.0  0.00521  0.29763  0.2538  1.0000
  C   C275      1.0  0.06606  0.27142  0.25162  1.0000
  C   C276      1.0  0.13278  0.29036  0.25963  1.0000
  C   C277      1.0  0.19922  0.2640899999999999  0.2582199999999999  1.0000
  C   C278      1.0  0.13912  0.33484  0.2679699999999999  1.0000
  C   C279      1.0  0.07855  0.36133  0.2657  1.0000
  C   C280      1.0  0.03535  0.43329  0.25308  1.0000
  C   C281      1.0  0.18786  0.80335  0.01596  1.0000
  C   C282      1.0  0.20195  0.84567  0.00181  1.0000
  C   C283      1.0  0.25055  0.87141  0.02529  1.0000
  C   C284      1.0  0.28488  0.85478  0.06177999999999999  1.0000
  C   C285      1.0  0.27156  0.8119699999999997  0.07471999999999998  1.0000
  C   C286      1.0  0.22327000000000002  0.78643  0.05183999999999998  1.0000
  C   C287      1.0  0.30558  0.79302  0.11385  1.0000
  C   C288      1.0  0.93711  0.7531  0.7476099999999998  1.0000
  C   C289      1.0  0.06934  0.76138  0.73908  1.0000
  C   C290      1.0  0.13653  0.76601  0.75826  1.0000
  C   C291      1.0  0.20013000000000003  0.7778  0.7312599999999998  1.0000
  C   C292      1.0  0.14453  0.7614699999999998  0.8029699999999997  1.0000
  C   C293      1.0  0.08499  0.75307  0.82907  1.0000
  C   C294      1.0  0.01777  0.7499099999999997  0.81025  1.0000
  C   C295      1.0  0.03321  0.75086  0.89969  1.0000
  C   C296      1.0  0.01031  0.75383  0.76547  1.0000
  O   O1        1.0  0.41044  0.99556  0.003249999999999999  1.0000
  O   O2        1.0  0.34578  0.9890799999999997  0.94135  1.0000
  O   O3        1.0  0.7250600000000001  0.9891399999999999  0.93069  1.0000
  O   O4        1.0  0.66807  0.98725  0.99556  1.0000
  O   O5        1.0  0.8037  0.56058  0.5389099999999998  1.0000
  O   O6        1.0  0.73552  0.56702  0.4786699999999999  1.0000
  O   O7        1.0  0.35366  0.8632899999999998  0.71123  1.0000
  O   O8        1.0  0.28258  0.85943  0.65132  1.0000
  O   O9        1.0  0.28639  0.69494  0.62801  1.0000
  O   O10       1.0  0.27165  0.75964  0.59288  1.0000
  O   O11       1.0  0.3825  0.19716  0.7702999999999998  1.0000
  O   O12       1.0  0.42511  0.26184999999999997  0.74453  1.0000
  O   O13       1.0  0.27286  0.56531  0.5365  1.0000
  O   O14       1.0  0.32878  0.56731  0.4714099999999999  1.0000
  O   O15       1.0  0.38596  0.74673  0.27567  1.0000
  O   O16       1.0  0.42827  0.74686  0.20707999999999993  1.0000
  O   O17       1.0  0.75771  0.71426  0.25178  1.0000
  O   O18       1.0  0.69206  0.72092  0.19034  1.0000
  O   O19       1.0  0.83904  0.68421  0.64078  1.0000
  O   O20       1.0  0.79654  0.74869  0.61944  1.0000
  O   O21       1.0  0.80709  0.8460899999999998  0.75137  1.0000
  O   O22       1.0  0.81098  0.81821  0.6838699999999998  1.0000
  O   O23       1.0  0.76055  0.99463  0.57799  1.0000
  O   O24       1.0  0.82476  0.93279  0.56715  1.0000
  O   O25       1.0  0.67478  0.00041  0.50083  1.0000
  O   O26       1.0  0.73486  0.93698  0.4913399999999999  1.0000
  O   O27       1.0  0.35547  0.94133  0.46323  1.0000
  O   O28       1.0  0.4162  0.0042  0.47559  1.0000
  O   O29       1.0  0.30321  0.9727399999999998  0.54183  1.0000
  O   O30       1.0  0.36435  0.03516  0.55451  1.0000
  O   O31       1.0  0.58961  0.09494  0.77046  1.0000
  O   O32       1.0  0.45642  0.70765  0.46918  1.0000
  O   O33       1.0  0.63937  0.725  0.4982199999999999  1.0000
  O   O34       1.0  0.53927  0.82938  0.4436199999999999  1.0000
  O   O35       1.0  0.59623  0.75091  0.3726299999999999  1.0000
  O   O36       1.0  0.66827  0.97847  0.73317  1.0000
  O   O37       1.0  0.48551000000000005  0.00607  0.69471  1.0000
  O   O38       1.0  0.5219  0.00859  0.82436  1.0000
  O   O39       1.0  0.75025  0.22682  0.78354  1.0000
  O   O40       1.0  0.70325  0.26616  0.72938  1.0000
  O   O41       1.0  0.3612  0.77464  0.66869  1.0000
  O   O42       1.0  0.91044  0.00444  0.99674  1.0000
  O   O43       1.0  0.84579  0.01091  0.058639999999999984  1.0000
  O   O44       1.0  0.22505000000000003  0.01086  0.06931  1.0000
  O   O45       1.0  0.16806  0.01275  0.00443  1.0000
  O   O46       1.0  0.30369  0.4394099999999999  0.4610899999999999  1.0000
  O   O47       1.0  0.23552  0.43298  0.5213399999999998  1.0000
  O   O48       1.0  0.85366  0.13671  0.28877  1.0000
  O   O49       1.0  0.7825800000000002  0.14056  0.34866999999999987  1.0000
  O   O50       1.0  0.78639  0.30506  0.37199  1.0000
  O   O51       1.0  0.77165  0.24035999999999993  0.40712  1.0000
  O   O52       1.0  0.8824999999999998  0.80284  0.2297  1.0000
  O   O53       1.0  0.92511  0.73815  0.25547  1.0000
  O   O54       1.0  0.77286  0.43468  0.46351  1.0000
  O   O55       1.0  0.82879  0.43269  0.5285999999999998  1.0000
  O   O56       1.0  0.8859599999999999  0.25327  0.7243299999999998  1.0000
  O   O57       1.0  0.9282699999999999  0.25313  0.79292  1.0000
  O   O58       1.0  0.25771  0.28573  0.7482199999999998  1.0000
  O   O59       1.0  0.19205  0.27907  0.80965  1.0000
  O   O60       1.0  0.33903  0.31578  0.35922  1.0000
  O   O61       1.0  0.29654  0.25131  0.38056  1.0000
  O   O62       1.0  0.30709000000000003  0.15390999999999994  0.24862999999999993  1.0000
  O   O63       1.0  0.31098  0.18178  0.31613  1.0000
  O   O64       1.0  0.26056  0.00537  0.42201  1.0000
  O   O65       1.0  0.32476  0.0672  0.4328499999999999  1.0000
  O   O66       1.0  0.17478  0.99958  0.49917  1.0000
  O   O67       1.0  0.23485000000000003  0.06302  0.50866  1.0000
  O   O68       1.0  0.8554600000000001  0.05866  0.53678  1.0000
  O   O69       1.0  0.9162  0.9958  0.52442  1.0000
  O   O70       1.0  0.80322  0.02729  0.45817999999999987  1.0000
  O   O71       1.0  0.86435  0.9648499999999998  0.4455  1.0000
  O   O72       1.0  0.08961  0.9050599999999998  0.22952999999999996  1.0000
  O   O73       1.0  0.95642  0.29235  0.53082  1.0000
  O   O74       1.0  0.13936  0.27499  0.50178  1.0000
  O   O75       1.0  0.03927  0.17061999999999994  0.5563799999999998  1.0000
  O   O76       1.0  0.09623  0.24908  0.6273699999999998  1.0000
  O   O77       1.0  0.16826  0.021529999999999994  0.26683  1.0000
  O   O78       1.0  0.98552  0.9939199999999998  0.30529  1.0000
  O   O79       1.0  0.0219  0.99141  0.17563999999999994  1.0000
  O   O80       1.0  0.25025  0.77318  0.21646  1.0000
  O   O81       1.0  0.20325  0.7338299999999998  0.27062  1.0000
  O   O82       1.0  0.8612  0.22536  0.3313  1.0000
  O   O83       1.0  0.4104300000000001  0.49556  0.4967399999999999  1.0000
  O   O84       1.0  0.34578  0.48908  0.55864  1.0000
  O   O85       1.0  0.7250600000000001  0.48914  0.56931  1.0000
  O   O86       1.0  0.66807  0.48725  0.50444  1.0000
  O   O87       1.0  0.8037  0.06058  0.96108  1.0000
  O   O88       1.0  0.73552  0.06702  0.02133  1.0000
  O   O89       1.0  0.35366  0.36329  0.78876  1.0000
  O   O90       1.0  0.28258  0.35943999999999987  0.84867  1.0000
  O   O91       1.0  0.28639  0.19494  0.87199  1.0000
  O   O92       1.0  0.27164  0.25964  0.90712  1.0000
  O   O93       1.0  0.3825  0.6971599999999998  0.7297  1.0000
  O   O94       1.0  0.42511  0.76184  0.75546  1.0000
  O   O95       1.0  0.27286  0.06531  0.9635  1.0000
  O   O96       1.0  0.32878  0.06731  0.02859  1.0000
  O   O97       1.0  0.38595  0.24673  0.22433  1.0000
  O   O98       1.0  0.42826  0.24687  0.29292  1.0000
  O   O99       1.0  0.75771  0.21426  0.24821999999999994  1.0000
  O   O100      1.0  0.69205  0.22092  0.30966  1.0000
  O   O101      1.0  0.83904  0.18422  0.85922  1.0000
  O   O102      1.0  0.79654  0.24868999999999994  0.88056  1.0000
  O   O103      1.0  0.80709  0.34609  0.7486199999999997  1.0000
  O   O104      1.0  0.81098  0.31822  0.81612  1.0000
  O   O105      1.0  0.7605600000000001  0.49463  0.92201  1.0000
  O   O106      1.0  0.82476  0.43278999999999995  0.93284  1.0000
  O   O107      1.0  0.67478  0.50042  0.99917  1.0000
  O   O108      1.0  0.73486  0.43698  0.008659999999999996  1.0000
  O   O109      1.0  0.35546  0.44133  0.03677  1.0000
  O   O110      1.0  0.4162  0.5042  0.024409999999999994  1.0000
  O   O111      1.0  0.30321  0.47274  0.95817  1.0000
  O   O112      1.0  0.36435  0.53516  0.9454799999999998  1.0000
  O   O113      1.0  0.58961  0.59494  0.7295299999999998  1.0000
  O   O114      1.0  0.45642  0.20764999999999997  0.030819999999999993  1.0000
  O   O115      1.0  0.63936  0.22501  0.0017799999999999995  1.0000
  O   O116      1.0  0.53927  0.32938  0.056379999999999986  1.0000
  O   O117      1.0  0.59623  0.25092  0.12737  1.0000
  O   O118      1.0  0.66827  0.4784699999999999  0.7668299999999999  1.0000
  O   O119      1.0  0.48552000000000006  0.50607  0.80529  1.0000
  O   O120      1.0  0.5219  0.50858  0.67564  1.0000
  O   O121      1.0  0.75025  0.72682  0.7164599999999998  1.0000
  O   O122      1.0  0.70325  0.76616  0.77062  1.0000
  O   O123      1.0  0.36119000000000007  0.27464  0.8313  1.0000
  O   O124      1.0  0.91044  0.50444  0.50326  1.0000
  O   O125      1.0  0.84579  0.51091  0.44136  1.0000
  O   O126      1.0  0.22505000000000003  0.51086  0.43069  1.0000
  O   O127      1.0  0.16807  0.51275  0.4955699999999999  1.0000
  O   O128      1.0  0.30369  0.93941  0.03891  1.0000
  O   O129      1.0  0.23552  0.9329799999999998  0.97866  1.0000
  O   O130      1.0  0.85366  0.6367  0.21123  1.0000
  O   O131      1.0  0.7825800000000002  0.64056  0.15132  1.0000
  O   O132      1.0  0.78639  0.80506  0.12801  1.0000
  O   O133      1.0  0.77165  0.74036  0.09288  1.0000
  O   O134      1.0  0.8824999999999998  0.30284  0.2703  1.0000
  O   O135      1.0  0.92511  0.23815  0.24453  1.0000
  O   O136      1.0  0.77287  0.9346799999999997  0.03649  1.0000
  O   O137      1.0  0.82879  0.9326899999999998  0.9714  1.0000
  O   O138      1.0  0.8859599999999999  0.75327  0.77567  1.0000
  O   O139      1.0  0.9282699999999999  0.75313  0.70708  1.0000
  O   O140      1.0  0.25771  0.7857299999999998  0.75178  1.0000
  O   O141      1.0  0.19205  0.77907  0.69034  1.0000
  O   O142      1.0  0.33904  0.81578  0.14077999999999993  1.0000
  O   O143      1.0  0.29654  0.7513099999999998  0.11944  1.0000
  O   O144      1.0  0.30709000000000003  0.6539  0.25137  1.0000
  O   O145      1.0  0.31098  0.68178  0.18387  1.0000
  O   O146      1.0  0.26056  0.50537  0.07799  1.0000
  O   O147      1.0  0.32476  0.5672  0.06715  1.0000
  O   O148      1.0  0.17478  0.49958  0.00083  1.0000
  O   O149      1.0  0.23486  0.56301  0.9913399999999998  1.0000
  O   O150      1.0  0.85547  0.5586599999999998  0.96322  1.0000
  O   O151      1.0  0.9162  0.4958  0.97558  1.0000
  O   O152      1.0  0.80322  0.52729  0.04182  1.0000
  O   O153      1.0  0.86435  0.46485  0.0545  1.0000
  O   O154      1.0  0.08961  0.40506  0.27047  1.0000
  O   O155      1.0  0.95642  0.79235  0.9691799999999998  1.0000
  O   O156      1.0  0.13936  0.7749899999999997  0.99822  1.0000
  O   O157      1.0  0.03927  0.67062  0.94362  1.0000
  O   O158      1.0  0.09623  0.7490799999999999  0.8726299999999998  1.0000
  O   O159      1.0  0.16826  0.52153  0.23317  1.0000
  O   O160      1.0  0.9855100000000001  0.49393  0.19471  1.0000
  O   O161      1.0  0.0219  0.49141  0.32435999999999987  1.0000
  O   O162      1.0  0.25025  0.27318  0.28354  1.0000
  O   O163      1.0  0.20325  0.23384  0.22938  1.0000
  O   O164      1.0  0.8612  0.72535  0.16869  1.0000
