data_image0
_chemical_formula_structural       Cu12H232C272S8N32O56
_chemical_formula_sum              "Cu12 H232 C272 S8 N32 O56"
_cell_length_a       15.84763
_cell_length_b       16.01261
_cell_length_c       31.35577
_cell_angle_alpha    89.95877000000002
_cell_angle_beta     90.22380999999999
_cell_angle_gamma    90.03408000000002

_space_group_name_H-M_alt    "P 1"
_space_group_IT_number       1

loop_
  _space_group_symop_operation_xyz
  'x, y, z'

loop_
  _atom_site_type_symbol
  _atom_site_label
  _atom_site_symmetry_multiplicity
  _atom_site_fract_x
  _atom_site_fract_y
  _atom_site_fract_z
  _atom_site_occupancy
  Cu  Cu1       1.0  0.0001499999999999999  0.17307  0.25002  1.0000
  Cu  Cu2       1.0  0.00019999999999999998  0.31253  0.75006  1.0000
  Cu  Cu3       1.0  0.0006900000000000013  0.82816  0.7499200000000003  1.0000
  Cu  Cu4       1.0  0.9996000000000002  0.67212  0.25074  1.0000
  Cu  Cu5       1.0  0.5000200000000002  0.97894  0.24998000000000006  1.0000
  Cu  Cu6       1.0  0.4996600000000001  0.5213  0.7499300000000002  1.0000
  Cu  Cu7       1.0  0.4996100000000001  0.020720000000000006  0.75002  1.0000
  Cu  Cu8       1.0  0.50047  0.47904000000000013  0.2500900000000001  1.0000
  Cu  Cu9       1.0  0.9993800000000002  0.49964000000000003  0.5004  1.0000
  Cu  Cu10      1.0  0.0007000000000000004  0.49971000000000004  0.9995400000000001  1.0000
  Cu  Cu11      1.0  3.000000000000043e-05  0.99845  0.4990100000000001  1.0000
  Cu  Cu12      1.0  0.9999600000000001  0.99818  0.00118  1.0000
  H   H1        1.0  0.7673500000000002  0.3900500000000001  0.28205  1.0000
  H   H2        1.0  0.8049200000000002  0.5300500000000002  0.39789000000000013  1.0000
  H   H3        1.0  0.9897700000000003  0.34951  0.35818  1.0000
  H   H4        1.0  0.9709200000000002  0.15721  0.34472000000000014  1.0000
  H   H5        1.0  0.8522900000000002  0.8991300000000001  0.28167  1.0000
  H   H6        1.0  0.8966400000000002  0.05526  0.3925200000000001  1.0000
  H   H7        1.0  0.74997  0.93115  0.36631000000000014  1.0000
  H   H8        1.0  0.8345000000000002  0.92228  0.40277  1.0000
  H   H9        1.0  0.8393400000000002  0.80583  0.3259700000000001  1.0000
  H   H10       1.0  0.8731000000000002  0.78916  0.3786100000000001  1.0000
  H   H11       1.0  0.7458200000000003  0.7032700000000002  0.36087000000000014  1.0000
  H   H12       1.0  0.72141  0.7756600000000002  0.4022400000000001  1.0000
  H   H13       1.0  0.7131300000000003  0.7515100000000002  0.28129  1.0000
  H   H14       1.0  0.6102800000000002  0.83329  0.23715000000000006  1.0000
  H   H15       1.0  0.5016500000000003  0.9434200000000003  0.34373  1.0000
  H   H16       1.0  0.4399200000000001  0.116  0.30451  1.0000
  H   H17       1.0  0.6763000000000002  0.04058000000000001  0.26267  1.0000
  H   H18       1.0  0.74673  0.15949  0.2998600000000001  1.0000
  H   H19       1.0  0.5011400000000003  0.23156  0.34677000000000013  1.0000
  H   H20       1.0  0.6931300000000002  0.32224  0.3369600000000001  1.0000
  H   H21       1.0  0.62061  0.2967300000000001  0.377  1.0000
  H   H22       1.0  0.7962500000000002  0.22074  0.36231000000000013  1.0000
  H   H23       1.0  0.7202300000000003  0.1673  0.39206000000000013  1.0000
  H   H24       1.0  0.7110400000000002  0.29255  0.4420400000000001  1.0000
  H   H25       1.0  0.7975400000000002  0.33753  0.41462  1.0000
  H   H26       1.0  0.9439400000000002  0.27938  0.4284000000000001  1.0000
  H   H27       1.0  0.7236900000000003  0.14628  0.4727400000000001  1.0000
  H   H28       1.0  0.031060000000000008  0.16196  0.45717000000000013  1.0000
  H   H29       1.0  0.8209700000000002  0.03814  0.50298  1.0000
  H   H30       1.0  0.23257000000000005  0.39079  0.21811000000000005  1.0000
  H   H31       1.0  0.19520000000000007  0.53078  0.10216000000000003  1.0000
  H   H32       1.0  0.010490000000000003  0.34971  0.14181  1.0000
  H   H33       1.0  0.02968000000000001  0.15705  0.15542  1.0000
  H   H34       1.0  0.14744000000000004  0.8987200000000002  0.21868000000000007  1.0000
  H   H35       1.0  0.10364  0.05497000000000001  0.10771  1.0000
  H   H36       1.0  0.24986000000000005  0.93081  0.13387000000000004  1.0000
  H   H37       1.0  0.16515000000000005  0.9220400000000002  0.0975  1.0000
  H   H38       1.0  0.16041  0.80532  0.17426  1.0000
  H   H39       1.0  0.12668000000000004  0.78881  0.1216  1.0000
  H   H40       1.0  0.25407000000000013  0.70302  0.13935  1.0000
  H   H41       1.0  0.2783000000000001  0.7755600000000002  0.09796000000000003  1.0000
  H   H42       1.0  0.2865200000000001  0.75158  0.21897  1.0000
  H   H43       1.0  0.3894700000000001  0.83344  0.2630000000000001  1.0000
  H   H44       1.0  0.4983800000000001  0.94318  0.15627  1.0000
  H   H45       1.0  0.56005  0.11616  0.19536  1.0000
  H   H46       1.0  0.32374000000000014  0.04039  0.23732  1.0000
  H   H47       1.0  0.25329  0.15944  0.20026000000000002  1.0000
  H   H48       1.0  0.4987600000000001  0.23195000000000005  0.15322  1.0000
  H   H49       1.0  0.3064500000000001  0.32224  0.16319000000000006  1.0000
  H   H50       1.0  0.37908  0.29731  0.12314000000000003  1.0000
  H   H51       1.0  0.20366000000000006  0.22055000000000005  0.13773  1.0000
  H   H52       1.0  0.27984  0.16747  0.10801  1.0000
  H   H53       1.0  0.2888300000000001  0.2929400000000001  0.05805  1.0000
  H   H54       1.0  0.20222000000000007  0.3375400000000001  0.08545  1.0000
  H   H55       1.0  0.05603000000000002  0.27925  0.07163000000000003  1.0000
  H   H56       1.0  0.27626  0.14655  0.027270000000000006  1.0000
  H   H57       1.0  0.9689200000000002  0.16158  0.043080000000000014  1.0000
  H   H58       1.0  0.17900000000000005  0.03818000000000001  0.9972200000000002  1.0000
  H   H59       1.0  0.7661500000000002  0.10624  0.71647  1.0000
  H   H60       1.0  0.7989600000000002  0.96765  0.59991  1.0000
  H   H61       1.0  0.9898100000000002  0.14094  0.6415800000000003  1.0000
  H   H62       1.0  0.9622000000000003  0.33498  0.65622  1.0000
  H   H63       1.0  0.9286300000000002  0.60846  0.7259  1.0000
  H   H64       1.0  0.8831300000000002  0.44839  0.61765  1.0000
  H   H65       1.0  0.76996  0.57055  0.6592900000000003  1.0000
  H   H66       1.0  0.8349000000000002  0.58262  0.61457  1.0000
  H   H67       1.0  0.84265  0.7023400000000002  0.69137  1.0000
  H   H68       1.0  0.8897  0.71603  0.64118  1.0000
  H   H69       1.0  0.7558600000000002  0.79774  0.64598  1.0000
  H   H70       1.0  0.7458800000000002  0.71901  0.6061400000000002  1.0000
  H   H71       1.0  0.7118  0.75181  0.7247300000000002  1.0000
  H   H72       1.0  0.6035900000000002  0.67105  0.7652900000000002  1.0000
  H   H73       1.0  0.51178  0.5573200000000003  0.6554800000000002  1.0000
  H   H74       1.0  0.4390600000000001  0.38433  0.69476  1.0000
  H   H75       1.0  0.6751800000000002  0.45839  0.7385400000000001  1.0000
  H   H76       1.0  0.7455100000000002  0.33927  0.70151  1.0000
  H   H77       1.0  0.50016  0.26902  0.6525800000000003  1.0000
  H   H78       1.0  0.6927200000000002  0.17812  0.66371  1.0000
  H   H79       1.0  0.6200300000000002  0.20271000000000006  0.6233600000000002  1.0000
  H   H80       1.0  0.7949200000000002  0.28047  0.63879  1.0000
  H   H81       1.0  0.71859  0.33282  0.6083700000000002  1.0000
  H   H82       1.0  0.71074  0.20683000000000007  0.55886  1.0000
  H   H83       1.0  0.79735  0.16295  0.58691  1.0000
  H   H84       1.0  0.94316  0.22155000000000005  0.5738700000000002  1.0000
  H   H85       1.0  0.7229800000000002  0.35302  0.5275900000000002  1.0000
  H   H86       1.0  0.030380000000000008  0.3384500000000001  0.54454  1.0000
  H   H87       1.0  0.8202500000000003  0.46038  0.49685  1.0000
  H   H88       1.0  0.23406000000000005  0.10562  0.7841  1.0000
  H   H89       1.0  0.19923000000000005  0.96461  0.8999800000000002  1.0000
  H   H90       1.0  0.011350000000000002  0.14172  0.8595200000000002  1.0000
  H   H91       1.0  0.03748000000000001  0.33547  0.84431  1.0000
  H   H92       1.0  0.07100000000000002  0.60851  0.77391  1.0000
  H   H93       1.0  0.11695000000000004  0.4489900000000001  0.8825000000000002  1.0000
  H   H94       1.0  0.23006000000000004  0.5711100000000002  0.84011  1.0000
  H   H95       1.0  0.16597000000000006  0.58289  0.88514  1.0000
  H   H96       1.0  0.15795000000000006  0.70344  0.8085700000000002  1.0000
  H   H97       1.0  0.11061000000000003  0.71643  0.85874  1.0000
  H   H98       1.0  0.24496000000000007  0.79765  0.8543500000000003  1.0000
  H   H99       1.0  0.2542600000000001  0.71821  0.89402  1.0000
  H   H100      1.0  0.28763  0.75132  0.77533  1.0000
  H   H101      1.0  0.39511  0.6702300000000002  0.73462  1.0000
  H   H102      1.0  0.4887100000000001  0.5577200000000002  0.8444600000000002  1.0000
  H   H103      1.0  0.5604400000000003  0.38479  0.80554  1.0000
  H   H104      1.0  0.32435  0.45771  0.7612500000000002  1.0000
  H   H105      1.0  0.25416  0.3382  0.79814  1.0000
  H   H106      1.0  0.4993900000000001  0.2688600000000001  0.84751  1.0000
  H   H107      1.0  0.3068500000000001  0.17738000000000007  0.83647  1.0000
  H   H108      1.0  0.3796  0.20258000000000007  0.87675  1.0000
  H   H109      1.0  0.20466000000000006  0.27984  0.8611100000000003  1.0000
  H   H110      1.0  0.2809800000000001  0.33252  0.89136  1.0000
  H   H111      1.0  0.28888  0.20696000000000006  0.9412500000000003  1.0000
  H   H112      1.0  0.20221000000000006  0.16275000000000006  0.9133600000000002  1.0000
  H   H113      1.0  0.056390000000000017  0.22144000000000005  0.92636  1.0000
  H   H114      1.0  0.27683000000000013  0.3531700000000001  0.97219  1.0000
  H   H115      1.0  0.9693800000000002  0.33839  0.9555500000000002  1.0000
  H   H116      1.0  0.17976000000000006  0.4605500000000001  0.00287  1.0000
  H   H117      1.0  0.23546000000000006  0.6144400000000002  0.71679  1.0000
  H   H118      1.0  0.19494000000000006  0.46797  0.6031600000000003  1.0000
  H   H119      1.0  0.015100000000000004  0.65571  0.63906  1.0000
  H   H120      1.0  0.027610000000000006  0.8443300000000002  0.65507  1.0000
  H   H121      1.0  0.14871  0.10121  0.71821  1.0000
  H   H122      1.0  0.10268000000000002  0.9456400000000003  0.6072900000000002  1.0000
  H   H123      1.0  0.24973000000000006  0.06998  0.6333  1.0000
  H   H124      1.0  0.16496  0.07796  0.59691  1.0000
  H   H125      1.0  0.15863  0.19476  0.6734  1.0000
  H   H126      1.0  0.12604000000000007  0.21127  0.6206200000000002  1.0000
  H   H127      1.0  0.2529700000000001  0.2976300000000001  0.6392400000000003  1.0000
  H   H128      1.0  0.2779200000000001  0.22577  0.59773  1.0000
  H   H129      1.0  0.2841700000000001  0.24724000000000004  0.7188400000000003  1.0000
  H   H130      1.0  0.38707000000000014  0.16614  0.7631100000000002  1.0000
  H   H131      1.0  0.4970100000000001  0.058  0.6563000000000002  1.0000
  H   H132      1.0  0.56068  0.8844300000000003  0.69568  1.0000
  H   H133      1.0  0.3233800000000001  0.95789  0.73726  1.0000
  H   H134      1.0  0.2542600000000001  0.83864  0.6995100000000002  1.0000
  H   H135      1.0  0.50105  0.7689000000000002  0.6531900000000003  1.0000
  H   H136      1.0  0.30919  0.67753  0.6616900000000002  1.0000
  H   H137      1.0  0.3821700000000001  0.70385  0.62203  1.0000
  H   H138      1.0  0.20658000000000007  0.7800200000000003  0.63665  1.0000
  H   H139      1.0  0.28277000000000013  0.83282  0.60673  1.0000
  H   H140      1.0  0.2913300000000001  0.70738  0.557  1.0000
  H   H141      1.0  0.20529000000000006  0.66234  0.58472  1.0000
  H   H142      1.0  0.05860000000000001  0.7189500000000002  0.57057  1.0000
  H   H143      1.0  0.2777500000000001  0.85428  0.52669  1.0000
  H   H144      1.0  0.9703900000000002  0.83516  0.5414200000000002  1.0000
  H   H145      1.0  0.17953000000000005  0.9612800000000002  0.4961300000000001  1.0000
  H   H146      1.0  0.7666200000000002  0.6144000000000002  0.7823900000000003  1.0000
  H   H147      1.0  0.8049800000000003  0.4694300000000001  0.8968900000000002  1.0000
  H   H148      1.0  0.98593  0.65608  0.86064  1.0000
  H   H149      1.0  0.9723400000000002  0.8439300000000002  0.8449400000000002  1.0000
  H   H150      1.0  0.8526800000000002  0.10154  0.78185  1.0000
  H   H151      1.0  0.8976100000000002  0.9452000000000003  0.89271  1.0000
  H   H152      1.0  0.7508100000000002  0.06908  0.8668300000000002  1.0000
  H   H153      1.0  0.8357000000000002  0.07786000000000003  0.9030700000000003  1.0000
  H   H154      1.0  0.8400700000000002  0.19454  0.8263300000000002  1.0000
  H   H155      1.0  0.8739400000000003  0.21131000000000005  0.87888  1.0000
  H   H156      1.0  0.74635  0.2969500000000001  0.86123  1.0000
  H   H157      1.0  0.7223700000000002  0.22452  0.9027000000000002  1.0000
  H   H158      1.0  0.7130400000000002  0.24904000000000004  0.78191  1.0000
  H   H159      1.0  0.6101000000000002  0.16809  0.7375800000000002  1.0000
  H   H160      1.0  0.50374  0.055140000000000015  0.8440600000000003  1.0000
  H   H161      1.0  0.4388900000000001  0.88332  0.80375  1.0000
  H   H162      1.0  0.6758800000000003  0.95755  0.7621800000000002  1.0000
  H   H163      1.0  0.7454200000000002  0.83874  0.8002800000000002  1.0000
  H   H164      1.0  0.4988100000000001  0.76815  0.8466300000000002  1.0000
  H   H165      1.0  0.6907200000000002  0.6773100000000002  0.83826  1.0000
  H   H166      1.0  0.6177  0.70361  0.8778600000000002  1.0000
  H   H167      1.0  0.7931800000000002  0.7803  0.86319  1.0000
  H   H168      1.0  0.71681  0.83286  0.8930600000000002  1.0000
  H   H169      1.0  0.7084800000000002  0.70755  0.9429  1.0000
  H   H170      1.0  0.7944300000000002  0.6625  0.9151800000000002  1.0000
  H   H171      1.0  0.9412400000000002  0.7193400000000002  0.9291000000000003  1.0000
  H   H172      1.0  0.72217  0.85425  0.97318  1.0000
  H   H173      1.0  0.029550000000000003  0.8350300000000003  0.9587  1.0000
  H   H174      1.0  0.82053  0.9607600000000002  0.00411  1.0000
  H   H175      1.0  0.23349000000000006  0.88919  0.2823000000000001  1.0000
  H   H176      1.0  0.19529000000000005  0.03184  0.39709  1.0000
  H   H177      1.0  0.010970000000000004  0.84988  0.35767  1.0000
  H   H178      1.0  0.02874000000000001  0.6554600000000003  0.34522  1.0000
  H   H179      1.0  0.14872  0.3987100000000001  0.28196  1.0000
  H   H180      1.0  0.10339000000000002  0.5534  0.3931000000000001  1.0000
  H   H181      1.0  0.2502800000000001  0.43047  0.36775000000000013  1.0000
  H   H182      1.0  0.16493  0.42027  0.40329  1.0000
  H   H183      1.0  0.16161000000000006  0.30519000000000013  0.32604  1.0000
  H   H184      1.0  0.12867  0.28699  0.3785300000000001  1.0000
  H   H185      1.0  0.25647  0.20291  0.3608400000000001  1.0000
  H   H186      1.0  0.2809  0.27536  0.4022700000000001  1.0000
  H   H187      1.0  0.2873  0.25163000000000013  0.2813500000000001  1.0000
  H   H188      1.0  0.3898100000000001  0.3332  0.23724  1.0000
  H   H189      1.0  0.4997200000000001  0.44371  0.34386  1.0000
  H   H190      1.0  0.5611  0.61693  0.30469  1.0000
  H   H191      1.0  0.32468000000000014  0.53972  0.26272  1.0000
  H   H192      1.0  0.25393  0.65802  0.29987  1.0000
  H   H193      1.0  0.4995700000000001  0.7318300000000002  0.3471  1.0000
  H   H194      1.0  0.30727  0.82129  0.33711  1.0000
  H   H195      1.0  0.37961  0.7955900000000002  0.37748  1.0000
  H   H196      1.0  0.20439000000000004  0.71877  0.3616000000000001  1.0000
  H   H197      1.0  0.28036  0.66601  0.39197  1.0000
  H   H198      1.0  0.28843000000000013  0.79182  0.44168000000000013  1.0000
  H   H199      1.0  0.20196000000000006  0.83597  0.4136200000000001  1.0000
  H   H200      1.0  0.055930000000000014  0.77806  0.42716  1.0000
  H   H201      1.0  0.27611000000000013  0.6452700000000002  0.47244000000000014  1.0000
  H   H202      1.0  0.9685600000000002  0.66194  0.4569500000000001  1.0000
  H   H203      1.0  0.17871000000000006  0.53871  0.50375  1.0000
  H   H204      1.0  0.76741  0.89063  0.21850000000000006  1.0000
  H   H205      1.0  0.8045700000000002  0.030600000000000006  0.10265000000000003  1.0000
  H   H206      1.0  0.9896000000000003  0.8501800000000003  0.14315000000000003  1.0000
  H   H207      1.0  0.9704900000000002  0.6568800000000002  0.15592000000000006  1.0000
  H   H208      1.0  0.8512  0.39864  0.21827000000000005  1.0000
  H   H209      1.0  0.8972500000000002  0.5546800000000002  0.10759000000000003  1.0000
  H   H210      1.0  0.7504300000000003  0.4311100000000001  0.13227  1.0000
  H   H211      1.0  0.83621  0.4212300000000001  0.09697  1.0000
  H   H212      1.0  0.8389700000000002  0.30547  0.17401000000000005  1.0000
  H   H213      1.0  0.8717800000000002  0.28768  0.12148000000000003  1.0000
  H   H214      1.0  0.7439500000000002  0.20350000000000004  0.13917  1.0000
  H   H215      1.0  0.71962  0.27613  0.09776  1.0000
  H   H216      1.0  0.7129700000000002  0.25169  0.21864000000000006  1.0000
  H   H217      1.0  0.6104800000000002  0.33297  0.26277  1.0000
  H   H218      1.0  0.50068  0.4439  0.15619000000000005  1.0000
  H   H219      1.0  0.4398800000000001  0.61699  0.19561000000000006  1.0000
  H   H220      1.0  0.67648  0.5398600000000002  0.23733000000000007  1.0000
  H   H221      1.0  0.7470600000000001  0.6583  0.20008  1.0000
  H   H222      1.0  0.50122  0.73219  0.15323  1.0000
  H   H223      1.0  0.6938300000000002  0.8216300000000002  0.16285000000000005  1.0000
  H   H224      1.0  0.6211300000000002  0.79602  0.12262  1.0000
  H   H225      1.0  0.7963400000000003  0.71914  0.13824000000000006  1.0000
  H   H226      1.0  0.72003  0.6661700000000003  0.10819000000000002  1.0000
  H   H227      1.0  0.7116300000000002  0.79141  0.05812000000000001  1.0000
  H   H228      1.0  0.7982000000000002  0.83607  0.08591  1.0000
  H   H229      1.0  0.9442700000000003  0.77805  0.07264  1.0000
  H   H230      1.0  0.7240200000000002  0.64494  0.02756  1.0000
  H   H231      1.0  0.03159  0.66199  0.04294000000000001  1.0000
  H   H232      1.0  0.8213800000000002  0.53842  0.99637  1.0000
  C   C1        1.0  0.8062400000000001  0.40619  0.30947000000000013  1.0000
  C   C2        1.0  0.7789000000000003  0.46622  0.3384900000000001  1.0000
  C   C3        1.0  0.8274900000000002  0.4851400000000001  0.3745600000000001  1.0000
  C   C4        1.0  0.90393  0.4431000000000001  0.38173  1.0000
  C   C5        1.0  0.9311100000000002  0.38275  0.3523700000000001  1.0000
  C   C6        1.0  0.8821600000000003  0.36337  0.31648  1.0000
  C   C7        1.0  0.9054900000000002  0.29351  0.28664  1.0000
  C   C8        1.0  0.9533100000000002  0.4563100000000001  0.4222200000000001  1.0000
  C   C9        1.0  0.9432300000000002  0.09962000000000003  0.33287  1.0000
  C   C10       1.0  0.9179300000000002  0.016690000000000007  0.27517000000000014  1.0000
  C   C11       1.0  0.8661900000000002  0.96916  0.34142  1.0000
  C   C12       1.0  0.87579  0.95523  0.29735  1.0000
  C   C13       1.0  0.9014000000000002  0.04283  0.35851  1.0000
  C   C14       1.0  0.81626  0.9109200000000002  0.36946  1.0000
  C   C15       1.0  0.8221700000000002  0.81679  0.35937000000000013  1.0000
  C   C16       1.0  0.7386600000000002  0.76993  0.3685200000000001  1.0000
  C   C17       1.0  0.6692300000000002  0.80531  0.34101  1.0000
  C   C18       1.0  0.6678000000000002  0.79309  0.29643000000000014  1.0000
  C   C19       1.0  0.61054  0.83795  0.2717100000000001  1.0000
  C   C20       1.0  0.55003  0.9015500000000002  0.3314400000000001  1.0000
  C   C21       1.0  0.60704  0.8581400000000002  0.35585000000000006  1.0000
  C   C22       1.0  0.5078400000000002  0.12586  0.3052800000000001  1.0000
  C   C23       1.0  0.6406100000000002  0.08444000000000003  0.2818900000000001  1.0000
  C   C24       1.0  0.6788700000000002  0.15081000000000006  0.3029600000000001  1.0000
  C   C25       1.0  0.54254  0.19143000000000004  0.32829  1.0000
  C   C26       1.0  0.6297600000000002  0.20467  0.32803000000000004  1.0000
  C   C27       1.0  0.66907  0.27007  0.35611  1.0000
  C   C28       1.0  0.7404000000000002  0.23015000000000005  0.38238  1.0000
  C   C29       1.0  0.76704  0.27827  0.4228200000000001  1.0000
  C   C30       1.0  0.8253900000000002  0.22122000000000006  0.4468600000000001  1.0000
  C   C31       1.0  0.9133800000000002  0.22643  0.44385  1.0000
  C   C32       1.0  0.79167  0.15287  0.46908  1.0000
  C   C33       1.0  0.9627900000000003  0.16226  0.4604700000000001  1.0000
  C   C34       1.0  0.8446000000000002  0.09186  0.48545  1.0000
  C   C35       1.0  0.19372  0.4070000000000001  0.19069  1.0000
  C   C36       1.0  0.22118  0.46715  0.16168  1.0000
  C   C37       1.0  0.17261  0.48593  0.12554  1.0000
  C   C38       1.0  0.0962  0.44366  0.11835000000000002  1.0000
  C   C39       1.0  0.06903000000000002  0.3832  0.14768  1.0000
  C   C40       1.0  0.11790000000000003  0.3639300000000001  0.18363000000000004  1.0000
  C   C41       1.0  0.09467000000000003  0.29371  0.21336000000000005  1.0000
  C   C42       1.0  0.046800000000000015  0.4565400000000001  0.0778  1.0000
  C   C43       1.0  0.05715000000000001  0.09939  0.16732  1.0000
  C   C44       1.0  0.08208000000000003  0.016370000000000006  0.22508000000000006  1.0000
  C   C45       1.0  0.13379000000000005  0.9687800000000002  0.15886000000000006  1.0000
  C   C46       1.0  0.12407000000000003  0.95483  0.20294  1.0000
  C   C47       1.0  0.09882  0.04253000000000001  0.14172  1.0000
  C   C48       1.0  0.18354000000000006  0.91057  0.1308  1.0000
  C   C49       1.0  0.1776  0.81641  0.14086  1.0000
  C   C50       1.0  0.26112  0.7697200000000002  0.13169000000000006  1.0000
  C   C51       1.0  0.33057000000000003  0.80516  0.15916000000000005  1.0000
  C   C52       1.0  0.3319000000000001  0.79311  0.20376000000000005  1.0000
  C   C53       1.0  0.38924  0.8380100000000003  0.22842  1.0000
  C   C54       1.0  0.44991  0.9013800000000002  0.16861  1.0000
  C   C55       1.0  0.3928600000000001  0.85791  0.14426  1.0000
  C   C56       1.0  0.4921300000000001  0.126  0.19463000000000005  1.0000
  C   C57       1.0  0.3594100000000001  0.08437  0.2181  1.0000
  C   C58       1.0  0.32113  0.15081000000000006  0.1971  1.0000
  C   C59       1.0  0.45739000000000013  0.19168000000000004  0.1717  1.0000
  C   C60       1.0  0.37017  0.20485000000000006  0.17202000000000006  1.0000
  C   C61       1.0  0.3307200000000001  0.27029  0.14401000000000005  1.0000
  C   C62       1.0  0.25952  0.23023  0.11769000000000003  1.0000
  C   C63       1.0  0.23284000000000005  0.2784000000000001  0.07725  1.0000
  C   C64       1.0  0.17458  0.22126000000000007  0.053210000000000014  1.0000
  C   C65       1.0  0.08658000000000003  0.22631  0.05624  1.0000
  C   C66       1.0  0.20829000000000006  0.153  0.031000000000000007  1.0000
  C   C67       1.0  0.037190000000000015  0.16202  0.03971  1.0000
  C   C68       1.0  0.15537000000000006  0.09187000000000002  0.014700000000000003  1.0000
  C   C69       1.0  0.8046900000000002  0.08955  0.68919  1.0000
  C   C70       1.0  0.7752000000000002  0.03142  0.65965  1.0000
  C   C71       1.0  0.8230900000000002  0.011260000000000003  0.6236  1.0000
  C   C72       1.0  0.9012100000000002  0.05056  0.61718  1.0000
  C   C73       1.0  0.9303000000000001  0.10917000000000003  0.6469900000000002  1.0000
  C   C74       1.0  0.8820200000000002  0.12959  0.6825900000000003  1.0000
  C   C75       1.0  0.9081700000000003  0.19933  0.7114300000000002  1.0000
  C   C76       1.0  0.9520800000000003  0.03844  0.5773000000000003  1.0000
  C   C77       1.0  0.9526700000000002  0.3965100000000001  0.6700700000000003  1.0000
  C   C78       1.0  0.9792900000000002  0.4832  0.7286500000000002  1.0000
  C   C79       1.0  0.8945500000000002  0.5358200000000002  0.6700100000000002  1.0000
  C   C80       1.0  0.9343900000000003  0.5487800000000003  0.70967  1.0000
  C   C81       1.0  0.9086600000000002  0.45928  0.6494300000000002  1.0000
  C   C82       1.0  0.8322400000000002  0.59403  0.6491100000000002  1.0000
  C   C83       1.0  0.83517  0.68817  0.65734  1.0000
  C   C84       1.0  0.7533500000000002  0.72997  0.64048  1.0000
  C   C85       1.0  0.6782200000000003  0.6956600000000002  0.66398  1.0000
  C   C86       1.0  0.6689700000000002  0.7094800000000002  0.7081700000000002  1.0000
  C   C87       1.0  0.6087100000000002  0.66508  0.7309  1.0000
  C   C88       1.0  0.5579800000000003  0.59983  0.66948  1.0000
  C   C89       1.0  0.61804  0.64277  0.6468600000000002  1.0000
  C   C90       1.0  0.50695  0.37433  0.69437  1.0000
  C   C91       1.0  0.6396200000000002  0.4149  0.7188400000000003  1.0000
  C   C92       1.0  0.6777600000000003  0.3485400000000001  0.69791  1.0000
  C   C93       1.0  0.5415800000000002  0.30883  0.6714200000000002  1.0000
  C   C94       1.0  0.6286900000000002  0.29520000000000013  0.6723000000000002  1.0000
  C   C95       1.0  0.6682200000000003  0.22996000000000005  0.6444200000000002  1.0000
  C   C96       1.0  0.73931  0.27032  0.6184000000000002  1.0000
  C   C97       1.0  0.7665500000000002  0.22187  0.57831  1.0000
  C   C98       1.0  0.8247500000000002  0.2789000000000001  0.55435  1.0000
  C   C99       1.0  0.9127400000000002  0.27408  0.55788  1.0000
  C   C100      1.0  0.79097  0.34667  0.53159  1.0000
  C   C101      1.0  0.9621000000000002  0.33787  0.5409700000000002  1.0000
  C   C102      1.0  0.8439000000000002  0.4072400000000001  0.5149000000000002  1.0000
  C   C103      1.0  0.19561000000000006  0.0886  0.81137  1.0000
  C   C104      1.0  0.22381000000000006  0.02889  0.8404300000000002  1.0000
  C   C105      1.0  0.17595000000000005  0.009300000000000003  0.8765800000000002  1.0000
  C   C106      1.0  0.09890000000000004  0.05039  0.8833200000000002  1.0000
  C   C107      1.0  0.07063  0.10978000000000003  0.85374  1.0000
  C   C108      1.0  0.11913000000000003  0.13  0.8181400000000002  1.0000
  C   C109      1.0  0.09409000000000002  0.19961  0.78879  1.0000
  C   C110      1.0  0.048000000000000015  0.03841  0.92315  1.0000
  C   C111      1.0  0.04693000000000002  0.3969400000000001  0.8303000000000003  1.0000
  C   C112      1.0  0.02015  0.4833000000000001  0.77157  1.0000
  C   C113      1.0  0.10534000000000006  0.53622  0.8299600000000003  1.0000
  C   C114      1.0  0.06531  0.54896  0.7903300000000002  1.0000
  C   C115      1.0  0.0912  0.45979  0.8507500000000002  1.0000
  C   C116      1.0  0.16796  0.59444  0.8505900000000002  1.0000
  C   C117      1.0  0.16514000000000006  0.68869  0.84257  1.0000
  C   C118      1.0  0.24707000000000007  0.72983  0.85971  1.0000
  C   C119      1.0  0.3219800000000001  0.69553  0.8361200000000002  1.0000
  C   C120      1.0  0.33058  0.7090600000000002  0.7918500000000003  1.0000
  C   C121      1.0  0.3905200000000001  0.66454  0.7690500000000002  1.0000
  C   C122      1.0  0.44224000000000013  0.59994  0.83047  1.0000
  C   C123      1.0  0.38246  0.6429500000000002  0.85318  1.0000
  C   C124      1.0  0.49258000000000013  0.3743800000000001  0.80576  1.0000
  C   C125      1.0  0.3599400000000001  0.41438000000000014  0.7810300000000002  1.0000
  C   C126      1.0  0.32184  0.3478300000000001  0.8019  1.0000
  C   C127      1.0  0.45800000000000013  0.30862  0.82862  1.0000
  C   C128      1.0  0.37091000000000013  0.29467  0.8276200000000002  1.0000
  C   C129      1.0  0.3313600000000001  0.22945  0.8556000000000002  1.0000
  C   C130      1.0  0.2602600000000001  0.26991  0.8815300000000003  1.0000
  C   C131      1.0  0.23306000000000004  0.22177000000000005  0.9217700000000002  1.0000
  C   C132      1.0  0.17493  0.27892  0.94563  1.0000
  C   C133      1.0  0.08693  0.27405  0.9422  1.0000
  C   C134      1.0  0.20883000000000004  0.34678  0.9682600000000002  1.0000
  C   C135      1.0  0.03767  0.33787  0.9590500000000002  1.0000
  C   C136      1.0  0.15600000000000006  0.40736  0.9849100000000002  1.0000
  C   C137      1.0  0.19671000000000005  0.59806  0.6893300000000002  1.0000
  C   C138      1.0  0.22282000000000005  0.53573  0.66123  1.0000
  C   C139      1.0  0.17354000000000006  0.5152  0.62555  1.0000
  C   C140      1.0  0.09794000000000003  0.5581900000000002  0.61773  1.0000
  C   C141      1.0  0.07289  0.62167  0.6457  1.0000
  C   C142      1.0  0.12195000000000003  0.6424  0.6812900000000002  1.0000
  C   C143      1.0  0.09771  0.71339  0.71012  1.0000
  C   C144      1.0  0.04587  0.54232  0.57835  1.0000
  C   C145      1.0  0.05592000000000001  0.90158  0.6669600000000002  1.0000
  C   C146      1.0  0.08210000000000003  0.98422  0.72465  1.0000
  C   C147      1.0  0.13382000000000005  0.03148  0.65838  1.0000
  C   C148      1.0  0.12466000000000003  0.04539  0.70248  1.0000
  C   C149      1.0  0.09816  0.958  0.6413100000000003  1.0000
  C   C150      1.0  0.1833  0.08974  0.63017  1.0000
  C   C151      1.0  0.17673000000000005  0.18389  0.6401200000000002  1.0000
  C   C152      1.0  0.26022  0.23106000000000004  0.63142  1.0000
  C   C153      1.0  0.32928000000000013  0.19531  0.65899  1.0000
  C   C154      1.0  0.3300300000000001  0.20627000000000006  0.70367  1.0000
  C   C155      1.0  0.38726  0.16166000000000003  0.7285300000000002  1.0000
  C   C156      1.0  0.4485400000000001  0.09953  0.6688600000000002  1.0000
  C   C157      1.0  0.3919600000000001  0.14302000000000006  0.64419  1.0000
  C   C158      1.0  0.4928200000000001  0.8742300000000002  0.6948  1.0000
  C   C159      1.0  0.35949  0.91459  0.71788  1.0000
  C   C160      1.0  0.3220000000000001  0.8482800000000003  0.69645  1.0000
  C   C161      1.0  0.4589700000000001  0.8086700000000002  0.6715  1.0000
  C   C162      1.0  0.37186000000000013  0.79513  0.67134  1.0000
  C   C163      1.0  0.3333700000000001  0.7300500000000002  0.64286  1.0000
  C   C164      1.0  0.26231  0.77014  0.61656  1.0000
  C   C165      1.0  0.2354600000000001  0.7216500000000002  0.5763200000000003  1.0000
  C   C166      1.0  0.17665000000000006  0.7782600000000002  0.55233  1.0000
  C   C167      1.0  0.08870000000000003  0.77216  0.55517  1.0000
  C   C168      1.0  0.20981000000000005  0.8470000000000002  0.53022  1.0000
  C   C169      1.0  0.038720000000000004  0.83572  0.53839  1.0000
  C   C170      1.0  0.15636000000000005  0.90738  0.51366  1.0000
  C   C171      1.0  0.8047100000000003  0.59804  0.8101000000000003  1.0000
  C   C172      1.0  0.7780300000000002  0.5363800000000002  0.83848  1.0000
  C   C173      1.0  0.8268800000000002  0.51617  0.8743300000000003  1.0000
  C   C174      1.0  0.9026000000000002  0.55888  0.8821900000000003  1.0000
  C   C175      1.0  0.9281200000000002  0.6219800000000002  0.8540700000000002  1.0000
  C   C176      1.0  0.8796000000000003  0.6420700000000003  0.81822  1.0000
  C   C177      1.0  0.9044200000000002  0.712  0.78893  1.0000
  C   C178      1.0  0.9543300000000002  0.54273  0.92162  1.0000
  C   C179      1.0  0.9443500000000002  0.90133  0.83303  1.0000
  C   C180      1.0  0.9187900000000002  0.98436  0.7754000000000002  1.0000
  C   C181      1.0  0.8668300000000002  0.031370000000000016  0.84164  1.0000
  C   C182      1.0  0.8763400000000002  0.04553  0.7975600000000003  1.0000
  C   C183      1.0  0.9022400000000003  0.9577300000000002  0.85869  1.0000
  C   C184      1.0  0.8171200000000002  0.0894  0.8698200000000003  1.0000
  C   C185      1.0  0.8229200000000002  0.18357  0.8597400000000002  1.0000
  C   C186      1.0  0.7393900000000002  0.23026000000000005  0.8689400000000003  1.0000
  C   C187      1.0  0.6699600000000002  0.19454  0.84158  1.0000
  C   C188      1.0  0.6680600000000002  0.20691000000000004  0.79699  1.0000
  C   C189      1.0  0.6107100000000002  0.16247  0.77212  1.0000
  C   C190      1.0  0.55143  0.09779000000000003  0.8316400000000003  1.0000
  C   C191      1.0  0.60808  0.14114  0.85635  1.0000
  C   C192      1.0  0.5067400000000002  0.8734300000000003  0.80485  1.0000
  C   C193      1.0  0.6399400000000002  0.91408  0.78164  1.0000
  C   C194      1.0  0.6776  0.8479600000000003  0.8031700000000003  1.0000
  C   C195      1.0  0.54074  0.80801  0.8282300000000002  1.0000
  C   C196      1.0  0.6278800000000002  0.7947400000000002  0.82841  1.0000
  C   C197      1.0  0.66649  0.72987  0.857  1.0000
  C   C198      1.0  0.73744  0.7702500000000002  0.8832700000000002  1.0000
  C   C199      1.0  0.7643400000000002  0.7218  0.9235400000000002  1.0000
  C   C200      1.0  0.8232200000000002  0.77836  0.9475200000000003  1.0000
  C   C201      1.0  0.9111700000000003  0.77229  0.9446700000000002  1.0000
  C   C202      1.0  0.7901000000000002  0.8469200000000002  0.9697200000000002  1.0000
  C   C203      1.0  0.9612100000000002  0.83559  0.9616700000000002  1.0000
  C   C204      1.0  0.8436300000000002  0.90705  0.98646  1.0000
  C   C205      1.0  0.19434000000000004  0.9059400000000002  0.30937  1.0000
  C   C206      1.0  0.22150000000000006  0.9669  0.3380800000000001  1.0000
  C   C207      1.0  0.17288  0.98641  0.37391000000000013  1.0000
  C   C208      1.0  0.09658000000000003  0.9442100000000002  0.38099  1.0000
  C   C209      1.0  0.06948000000000003  0.88326  0.35187  1.0000
  C   C210      1.0  0.11847000000000003  0.8630400000000003  0.3163600000000001  1.0000
  C   C211      1.0  0.09495  0.79177  0.2873700000000001  1.0000
  C   C212      1.0  0.04690000000000001  0.95698  0.42117  1.0000
  C   C213      1.0  0.056680000000000015  0.59811  0.33336  1.0000
  C   C214      1.0  0.08240000000000003  0.51586  0.27554  1.0000
  C   C215      1.0  0.13429  0.468  0.34189000000000014  1.0000
  C   C216      1.0  0.12491000000000002  0.45447  0.29773  1.0000
  C   C217      1.0  0.09874  0.54131  0.35903  1.0000
  C   C218      1.0  0.18407000000000007  0.4096400000000001  0.37011  1.0000
  C   C219      1.0  0.17908000000000004  0.31566  0.3595100000000001  1.0000
  C   C220      1.0  0.2631500000000001  0.26961  0.36855  1.0000
  C   C221      1.0  0.3319300000000001  0.30559  0.3410700000000001  1.0000
  C   C222      1.0  0.3327900000000001  0.29332  0.2964900000000001  1.0000
  C   C223      1.0  0.3898600000000001  0.33806  0.2718000000000001  1.0000
  C   C224      1.0  0.4511100000000001  0.4018400000000001  0.33154  1.0000
  C   C225      1.0  0.3942900000000001  0.35854000000000014  0.35593  1.0000
  C   C226      1.0  0.4931200000000001  0.62626  0.30547000000000013  1.0000
  C   C227      1.0  0.36034  0.58383  0.28199  1.0000
  C   C228      1.0  0.32188  0.64982  0.3030500000000001  1.0000
  C   C229      1.0  0.4582400000000001  0.69144  0.3285300000000001  1.0000
  C   C230      1.0  0.37092000000000014  0.70398  0.32821  1.0000
  C   C231      1.0  0.33134  0.76898  0.35625  1.0000
  C   C232      1.0  0.2599400000000001  0.7286700000000003  0.3820400000000001  1.0000
  C   C233      1.0  0.23267  0.7769700000000003  0.42216  1.0000
  C   C234      1.0  0.17439  0.72003  0.44613000000000014  1.0000
  C   C235      1.0  0.08639  0.72541  0.44301  1.0000
  C   C236      1.0  0.20810000000000006  0.65205  0.4687400000000001  1.0000
  C   C237      1.0  0.036900000000000016  0.662  0.46018  1.0000
  C   C238      1.0  0.15510000000000004  0.59187  0.4857100000000001  1.0000
  C   C239      1.0  0.8062400000000001  0.90693  0.19123  1.0000
  C   C240      1.0  0.7787200000000002  0.9670600000000003  0.16214000000000006  1.0000
  C   C241      1.0  0.8272300000000002  0.9858800000000002  0.12617  1.0000
  C   C242      1.0  0.9037000000000002  0.9438900000000002  0.11934  1.0000
  C   C243      1.0  0.93103  0.8835100000000002  0.14880000000000004  1.0000
  C   C244      1.0  0.8821500000000002  0.86407  0.18450000000000005  1.0000
  C   C245      1.0  0.9052300000000002  0.79378  0.21430000000000005  1.0000
  C   C246      1.0  0.9531800000000002  0.95668  0.07906  1.0000
  C   C247      1.0  0.9428  0.59919  0.16759  1.0000
  C   C248      1.0  0.9168600000000002  0.51614  0.22513000000000005  1.0000
  C   C249      1.0  0.8660500000000002  0.4686000000000001  0.15853000000000003  1.0000
  C   C250      1.0  0.8749500000000002  0.4547100000000001  0.20269  1.0000
  C   C251      1.0  0.9014900000000002  0.5423  0.14165  1.0000
  C   C252      1.0  0.8166600000000003  0.4103300000000001  0.13008  1.0000
  C   C253      1.0  0.8214500000000002  0.31624  0.14056  1.0000
  C   C254      1.0  0.7373200000000002  0.27024  0.13148  1.0000
  C   C255      1.0  0.6684900000000003  0.30601  0.15895  1.0000
  C   C256      1.0  0.6675500000000002  0.29347  0.20352000000000006  1.0000
  C   C257      1.0  0.6104800000000002  0.33806  0.22822000000000006  1.0000
  C   C258      1.0  0.5493  0.4020700000000001  0.1685  1.0000
  C   C259      1.0  0.6061400000000002  0.35895  0.14411  1.0000
  C   C260      1.0  0.50786  0.62641  0.19479000000000005  1.0000
  C   C261      1.0  0.6407400000000002  0.58401  0.21812000000000006  1.0000
  C   C262      1.0  0.6790900000000002  0.6501300000000002  0.19702  1.0000
  C   C263      1.0  0.5426400000000002  0.69176  0.17173  1.0000
  C   C264      1.0  0.6299700000000003  0.70435  0.17193  1.0000
  C   C265      1.0  0.6694800000000002  0.7693500000000002  0.14379000000000006  1.0000
  C   C266      1.0  0.7406000000000003  0.7289  0.11791  1.0000
  C   C267      1.0  0.7675400000000002  0.7769100000000002  0.07760000000000003  1.0000
  C   C268      1.0  0.8257800000000002  0.71993  0.053710000000000015  1.0000
  C   C269      1.0  0.9137800000000003  0.72537  0.056840000000000016  1.0000
  C   C270      1.0  0.79203  0.65184  0.03122  1.0000
  C   C271      1.0  0.9632500000000003  0.66199  0.03972  1.0000
  C   C272      1.0  0.8450100000000003  0.5916800000000002  0.01431  1.0000
  S   S1        1.0  0.67864  0.5161900000000003  0.33073000000000013  1.0000
  S   S2        1.0  0.32218000000000013  0.5163  0.16923000000000005  1.0000
  S   S3        1.0  0.6720800000000002  0.9877200000000003  0.66656  1.0000
  S   S4        1.0  0.32455  0.9809000000000002  0.8322400000000002  1.0000
  S   S5        1.0  0.32344000000000006  0.48544  0.66819  1.0000
  S   S6        1.0  0.6771700000000003  0.4868500000000001  0.8317700000000002  1.0000
  S   S7        1.0  0.32238  0.016160000000000008  0.33073000000000013  1.0000
  S   S8        1.0  0.6777300000000003  0.01614  0.16934000000000005  1.0000
  N   N1        1.0  0.55642  0.0717  0.28341  1.0000
  N   N2        1.0  0.5543800000000002  0.89234  0.28831  1.0000
  N   N3        1.0  0.9505200000000003  0.08561  0.2900100000000001  1.0000
  N   N4        1.0  0.9291000000000003  0.09536  0.4803  1.0000
  N   N5        1.0  0.44359  0.07169  0.21651  1.0000
  N   N6        1.0  0.44551000000000013  0.8923  0.21175000000000005  1.0000
  N   N7        1.0  0.049750000000000016  0.08537  0.21019  1.0000
  N   N8        1.0  0.07088  0.09518  0.019910000000000008  1.0000
  N   N9        1.0  0.5555300000000002  0.4281500000000001  0.7166700000000003  1.0000
  N   N10       1.0  0.5558500000000002  0.60931  0.7126  1.0000
  N   N11       1.0  0.9841300000000002  0.4071700000000001  0.70956  1.0000
  N   N12       1.0  0.9283800000000002  0.40392  0.52033  1.0000
  N   N13       1.0  0.44396  0.42803  0.7833700000000002  1.0000
  N   N14       1.0  0.4437100000000001  0.6090300000000002  0.78732  1.0000
  N   N15       1.0  0.015280000000000004  0.40735  0.7908300000000003  1.0000
  N   N16       1.0  0.07150000000000002  0.40399  0.9795800000000002  1.0000
  N   N17       1.0  0.44359  0.92795  0.71654  1.0000
  N   N18       1.0  0.44407000000000013  0.10787  0.7119900000000002  1.0000
  N   N19       1.0  0.04881  0.9156700000000002  0.7098100000000003  1.0000
  N   N20       1.0  0.07187  0.9029000000000003  0.51857  1.0000
  N   N21       1.0  0.5558200000000002  0.9272600000000002  0.7830400000000002  1.0000
  N   N22       1.0  0.5548900000000002  0.10745  0.7885400000000002  1.0000
  N   N23       1.0  0.95171  0.91557  0.79018  1.0000
  N   N24       1.0  0.9281300000000002  0.90252  0.9816500000000002  1.0000
  N   N25       1.0  0.4446400000000001  0.57175  0.28354  1.0000
  N   N26       1.0  0.4463000000000001  0.3924700000000001  0.28842  1.0000
  N   N27       1.0  0.04942000000000001  0.58438  0.29045  1.0000
  N   N28       1.0  0.07051000000000003  0.5956900000000003  0.4806700000000001  1.0000
  N   N29       1.0  0.55644  0.57185  0.21664000000000005  1.0000
  N   N30       1.0  0.5540900000000002  0.3925200000000001  0.21163000000000007  1.0000
  N   N31       1.0  0.9496400000000003  0.5851  0.21050000000000005  1.0000
  N   N32       1.0  0.9296  0.5956300000000002  0.01931  1.0000
  O   O1        1.0  0.9785700000000003  0.25927  0.29387000000000013  1.0000
  O   O2        1.0  0.8548100000000002  0.2708700000000001  0.25803  1.0000
  O   O3        1.0  0.016870000000000007  0.41210000000000013  0.43046  1.0000
  O   O4        1.0  0.9248500000000002  0.5129  0.44823  1.0000
  O   O5        1.0  0.63732  0.51653  0.37269  1.0000
  O   O6        1.0  0.6334  0.46312  0.2986  1.0000
  O   O7        1.0  0.69972  0.60004  0.31382  1.0000
  O   O8        1.0  0.021640000000000006  0.2593  0.20604  1.0000
  O   O9        1.0  0.14529000000000006  0.27089  0.24193000000000006  1.0000
  O   O10       1.0  0.9832900000000002  0.41216000000000014  0.06963000000000003  1.0000
  O   O11       1.0  0.07522000000000002  0.51305  0.05168  1.0000
  O   O12       1.0  0.36286  0.5162800000000002  0.12712000000000004  1.0000
  O   O13       1.0  0.36686000000000013  0.46266  0.20131000000000004  1.0000
  O   O14       1.0  0.3032800000000001  0.60048  0.1862  1.0000
  O   O15       1.0  0.9841300000000002  0.22725000000000006  0.7055700000000003  1.0000
  O   O16       1.0  0.8574200000000002  0.22907000000000005  0.7381200000000002  1.0000
  O   O17       1.0  0.016270000000000007  0.0829  0.5710400000000002  1.0000
  O   O18       1.0  0.9247100000000003  0.9831900000000002  0.55011  1.0000
  O   O19       1.0  0.62876  0.9990200000000001  0.62533  1.0000
  O   O20       1.0  0.6328600000000002  0.03762000000000001  0.70166  1.0000
  O   O21       1.0  0.6873800000000002  0.9000600000000002  0.67951  1.0000
  O   O22       1.0  0.018000000000000002  0.22758000000000006  0.7943000000000002  1.0000
  O   O23       1.0  0.14547000000000004  0.22859000000000004  0.7621400000000003  1.0000
  O   O24       1.0  0.9839800000000002  0.08293  0.9295500000000002  1.0000
  O   O25       1.0  0.0753  0.98291  0.9502200000000002  1.0000
  O   O26       1.0  0.36733  0.9832300000000003  0.8740000000000002  1.0000
  O   O27       1.0  0.3670400000000001  0.03332  0.79901  1.0000
  O   O28       1.0  0.30456  0.8961800000000002  0.81611  1.0000
  O   O29       1.0  0.020770000000000007  0.7407500000000002  0.7058400000000002  1.0000
  O   O30       1.0  0.15024000000000004  0.74275  0.7360500000000002  1.0000
  O   O31       1.0  0.9796500000000002  0.58342  0.5715300000000002  1.0000
  O   O32       1.0  0.07516  0.487  0.55185  1.0000
  O   O33       1.0  0.36304  0.4877700000000001  0.62578  1.0000
  O   O34       1.0  0.3690600000000001  0.53684  0.70091  1.0000
  O   O35       1.0  0.3038300000000001  0.40039  0.6839900000000002  1.0000
  O   O36       1.0  0.9804500000000003  0.7412100000000003  0.7941  1.0000
  O   O37       1.0  0.8530200000000002  0.7389900000000003  0.7617900000000002  1.0000
  O   O38       1.0  0.020680000000000007  0.5836200000000002  0.92848  1.0000
  O   O39       1.0  0.9248500000000002  0.48727  0.94807  1.0000
  O   O40       1.0  0.6372100000000003  0.49142  0.8740700000000002  1.0000
  O   O41       1.0  0.6327  0.5376800000000003  0.7985400000000002  1.0000
  O   O42       1.0  0.6959200000000002  0.4011900000000001  0.81659  1.0000
  O   O43       1.0  0.021290000000000007  0.75876  0.29435  1.0000
  O   O44       1.0  0.14592000000000005  0.76676  0.2597  1.0000
  O   O45       1.0  0.9832600000000002  0.91248  0.4285700000000001  1.0000
  O   O46       1.0  0.07501000000000002  0.01303  0.44777  1.0000
  O   O47       1.0  0.36322  0.016  0.37296  1.0000
  O   O48       1.0  0.3668400000000001  0.9626600000000002  0.2987200000000001  1.0000
  O   O49       1.0  0.30348  0.10040000000000003  0.3137200000000001  1.0000
  O   O50       1.0  0.9784100000000002  0.7595700000000002  0.20760000000000006  1.0000
  O   O51       1.0  0.8541600000000003  0.7707500000000003  0.24237  1.0000
  O   O52       1.0  0.01684  0.91234  0.07151  1.0000
  O   O53       1.0  0.9249500000000003  0.01275  0.05247  1.0000
  O   O54       1.0  0.63691  0.01589  0.12709  1.0000
  O   O55       1.0  0.6331300000000002  0.9626100000000002  0.20134000000000005  1.0000
  O   O56       1.0  0.6965900000000003  0.10041000000000003  0.18625  1.0000
