data_image0
_chemical_formula_structural       Cd24H272C480N80O96
_chemical_formula_sum              "Cd24 H272 C480 N80 O96"
_cell_length_a       13.6072
_cell_length_b       17.2042
_cell_length_c       52.00073
_cell_angle_alpha    90.0
_cell_angle_beta     90.0
_cell_angle_gamma    90.0

_symmetry_space_group_name_H-M    'P 1'
_symmetry_Int_Tables_number       1

loop_
  _symmetry_equiv_pos_as_xyz
  'x,y,z'

loop_
  _atom_site_type_symbol
  _atom_site_label
  _atom_site_symmetry_multiplicity
  _atom_site_fract_x
  _atom_site_fract_y
  _atom_site_fract_z
  _atom_site_occupancy
  Cd  Cd1       1.0  0.67739  0.48307000000000005  0.1699  1.0000
  Cd  Cd2       1.0  0.9023400000000001  0.9767800000000001  0.16713  1.0000
  Cd  Cd3       1.0  0.64562  0.00013  0.99123  1.0000
  Cd  Cd4       1.0  0.32261000000000006  0.01693  0.6699  1.0000
  Cd  Cd5       1.0  0.09766000000000002  0.52322  0.66713  1.0000
  Cd  Cd6       1.0  0.35439  0.4998699999999999  0.49123  1.0000
  Cd  Cd7       1.0  0.17739  0.51693  0.3301  1.0000
  Cd  Cd8       1.0  0.40234  0.02322  0.33287  1.0000
  Cd  Cd9       1.0  0.14561  0.99987  0.50877  1.0000
  Cd  Cd10      1.0  0.82261  0.98307  0.8301000000000001  1.0000
  Cd  Cd11      1.0  0.59766  0.47678  0.8328600000000002  1.0000
  Cd  Cd12      1.0  0.85438  0.50013  0.00877  1.0000
  Cd  Cd13      1.0  0.32261000000000006  0.51693  0.8301000000000001  1.0000
  Cd  Cd14      1.0  0.09766000000000002  0.02322  0.8328600000000002  1.0000
  Cd  Cd15      1.0  0.35438  0.99987  0.00877  1.0000
  Cd  Cd16      1.0  0.67739  0.98307  0.3301  1.0000
  Cd  Cd17      1.0  0.9023400000000001  0.47678  0.33287  1.0000
  Cd  Cd18      1.0  0.64561  0.50013  0.50877  1.0000
  Cd  Cd19      1.0  0.82261  0.48307000000000005  0.6699  1.0000
  Cd  Cd20      1.0  0.59766  0.9767800000000001  0.66713  1.0000
  Cd  Cd21      1.0  0.85438  0.00013  0.49123  1.0000
  Cd  Cd22      1.0  0.17739  0.01693  0.1699  1.0000
  Cd  Cd23      1.0  0.40234  0.52322  0.16713  1.0000
  Cd  Cd24      1.0  0.14562  0.4998699999999999  0.99123  1.0000
  H   H1        1.0  0.90856  0.40642  0.14607  1.0000
  H   H2        1.0  0.67505  0.0582  0.1327  1.0000
  H   H3        1.0  0.8750600000000002  0.10021  0.2154  1.0000
  H   H4        1.0  0.88535  0.24370999999999998  0.22391000000000003  1.0000
  H   H5        1.0  0.9055200000000002  0.33388999999999996  0.18657000000000004  1.0000
  H   H6        1.0  0.9071800000000001  0.52454  0.12655  1.0000
  H   H7        1.0  0.89354  0.64637  0.10091  1.0000
  H   H8        1.0  0.88388  0.63656  0.05243  1.0000
  H   H9        1.0  0.91768  0.39739  0.05497  1.0000
  H   H10       1.0  0.92744  0.16802  0.06601  1.0000
  H   H11       1.0  0.92514  0.02204  0.06387  1.0000
  H   H12       1.0  0.9161800000000002  0.9466399999999999  0.10539  1.0000
  H   H13       1.0  0.63968  0.34107  0.21346  1.0000
  H   H14       1.0  0.6368800000000001  0.19422  0.21622000000000005  1.0000
  H   H15       1.0  0.6558400000000001  0.1174  0.17586  1.0000
  H   H16       1.0  0.66462  0.9488999999999999  0.10967000000000002  1.0000
  H   H17       1.0  0.6568500000000002  0.83498  0.08013  1.0000
  H   H18       1.0  0.65591  0.85848  0.0322  1.0000
  H   H19       1.0  0.6741100000000002  0.09675999999999998  0.0427  1.0000
  H   H20       1.0  0.68303  0.32397  0.06254  1.0000
  H   H21       1.0  0.6761100000000002  0.46973  0.06584  1.0000
  H   H22       1.0  0.66881  0.53024  0.1099  1.0000
  H   H23       1.0  0.5099600000000001  0.9369899999999999  0.15478  1.0000
  H   H24       1.0  0.3772900000000001  0.83762  0.15558  1.0000
  H   H25       1.0  0.42023  0.6970499999999998  0.15487000000000004  1.0000
  H   H26       1.0  0.72781  0.75631  0.15642000000000003  1.0000
  H   H27       1.0  0.3653  0.53878  0.255  1.0000
  H   H28       1.0  0.567  0.51068  0.31807  1.0000
  H   H29       1.0  0.70529  0.49929  0.28752  1.0000
  H   H30       1.0  0.67301  0.50449  0.23994  1.0000
  H   H31       1.0  0.02103  0.95142  0.9838400000000002  1.0000
  H   H32       1.0  0.15859000000000006  0.85595  0.98599  1.0000
  H   H33       1.0  0.12263000000000003  0.71357  0.98908  1.0000
  H   H34       1.0  0.8130600000000001  0.76458  0.99057  1.0000
  H   H35       1.0  0.09144  0.09357999999999998  0.64606  1.0000
  H   H36       1.0  0.32495  0.4418  0.6327000000000002  1.0000
  H   H37       1.0  0.12494  0.39979  0.7154000000000001  1.0000
  H   H38       1.0  0.11464  0.25629  0.72391  1.0000
  H   H39       1.0  0.09448  0.16611  0.68656  1.0000
  H   H40       1.0  0.09281000000000002  0.97546  0.62655  1.0000
  H   H41       1.0  0.10645000000000003  0.8536299999999998  0.60091  1.0000
  H   H42       1.0  0.11611  0.86345  0.55243  1.0000
  H   H43       1.0  0.08232  0.10259  0.55497  1.0000
  H   H44       1.0  0.07256  0.33198  0.56601  1.0000
  H   H45       1.0  0.07485  0.47797  0.56387  1.0000
  H   H46       1.0  0.08382  0.55336  0.60539  1.0000
  H   H47       1.0  0.36032000000000003  0.15894  0.7134600000000001  1.0000
  H   H48       1.0  0.36311  0.30578  0.71622  1.0000
  H   H49       1.0  0.3441500000000001  0.3826  0.67586  1.0000
  H   H50       1.0  0.33538000000000007  0.5511  0.60967  1.0000
  H   H51       1.0  0.3431500000000001  0.66502  0.58013  1.0000
  H   H52       1.0  0.34409  0.64151  0.5322  1.0000
  H   H53       1.0  0.32589  0.40327  0.5427  1.0000
  H   H54       1.0  0.31697  0.17602  0.56254  1.0000
  H   H55       1.0  0.32389  0.03026  0.56584  1.0000
  H   H56       1.0  0.33118  0.9697500000000001  0.6099  1.0000
  H   H57       1.0  0.49003  0.56301  0.65478  1.0000
  H   H58       1.0  0.6227  0.66238  0.65558  1.0000
  H   H59       1.0  0.57976  0.8029399999999999  0.6548700000000001  1.0000
  H   H60       1.0  0.2722  0.74369  0.65642  1.0000
  H   H61       1.0  0.6347  0.96122  0.755  1.0000
  H   H62       1.0  0.433  0.98932  0.81807  1.0000
  H   H63       1.0  0.2947  0.00071  0.78752  1.0000
  H   H64       1.0  0.32699  0.99551  0.73994  1.0000
  H   H65       1.0  0.97897  0.54859  0.48384  1.0000
  H   H66       1.0  0.8414100000000002  0.6440499999999999  0.48599  1.0000
  H   H67       1.0  0.87739  0.78641  0.48908  1.0000
  H   H68       1.0  0.18692000000000006  0.73541  0.49057000000000006  1.0000
  H   H69       1.0  0.4085600000000001  0.59358  0.35393  1.0000
  H   H70       1.0  0.17505  0.9418000000000001  0.3673  1.0000
  H   H71       1.0  0.37506  0.8997899999999998  0.2846  1.0000
  H   H72       1.0  0.38535000000000014  0.75629  0.27609  1.0000
  H   H73       1.0  0.40552  0.66611  0.3134300000000001  1.0000
  H   H74       1.0  0.40719  0.47546  0.37345  1.0000
  H   H75       1.0  0.39354  0.35363  0.39909  1.0000
  H   H76       1.0  0.3838900000000001  0.36345  0.44756  1.0000
  H   H77       1.0  0.41768  0.60259  0.44503  1.0000
  H   H78       1.0  0.42744  0.83198  0.43399000000000004  1.0000
  H   H79       1.0  0.42514  0.97797  0.4361300000000001  1.0000
  H   H80       1.0  0.4161800000000001  0.05336  0.3946100000000001  1.0000
  H   H81       1.0  0.13968  0.6589399999999999  0.28654  1.0000
  H   H82       1.0  0.13688  0.80578  0.28378  1.0000
  H   H83       1.0  0.15585000000000002  0.8826  0.32414000000000004  1.0000
  H   H84       1.0  0.16462  0.0511  0.39033  1.0000
  H   H85       1.0  0.15685000000000002  0.16502  0.41987  1.0000
  H   H86       1.0  0.15591  0.14151  0.4678  1.0000
  H   H87       1.0  0.17411  0.90327  0.45729  1.0000
  H   H88       1.0  0.18303  0.67602  0.43746  1.0000
  H   H89       1.0  0.17611  0.53026  0.43416000000000005  1.0000
  H   H90       1.0  0.16881  0.46974999999999995  0.39010000000000006  1.0000
  H   H91       1.0  0.009970000000000003  0.06301  0.3452200000000001  1.0000
  H   H92       1.0  0.8772900000000002  0.16238  0.34442  1.0000
  H   H93       1.0  0.92024  0.30294  0.34513  1.0000
  H   H94       1.0  0.22780000000000003  0.24369  0.34358  1.0000
  H   H95       1.0  0.8653000000000001  0.46122  0.245  1.0000
  H   H96       1.0  0.067  0.48932  0.18193  1.0000
  H   H97       1.0  0.20530000000000007  0.50071  0.21248  1.0000
  H   H98       1.0  0.17301000000000005  0.49550999999999995  0.26006  1.0000
  H   H99       1.0  0.52103  0.04859  0.51615  1.0000
  H   H100      1.0  0.6585900000000002  0.14405  0.51401  1.0000
  H   H101      1.0  0.62261  0.28641  0.51092  1.0000
  H   H102      1.0  0.31308  0.23541  0.50943  1.0000
  H   H103      1.0  0.59144  0.9064199999999999  0.8539300000000001  1.0000
  H   H104      1.0  0.8249500000000001  0.5582  0.8673  1.0000
  H   H105      1.0  0.62493  0.60021  0.7846  1.0000
  H   H106      1.0  0.61464  0.7437099999999999  0.77609  1.0000
  H   H107      1.0  0.59447  0.83389  0.81343  1.0000
  H   H108      1.0  0.5928100000000001  0.02454  0.8734400000000001  1.0000
  H   H109      1.0  0.60645  0.14637  0.89909  1.0000
  H   H110      1.0  0.6161100000000002  0.13656  0.9475600000000001  1.0000
  H   H111      1.0  0.58232  0.89739  0.94503  1.0000
  H   H112      1.0  0.57255  0.66802  0.93399  1.0000
  H   H113      1.0  0.57485  0.52204  0.93612  1.0000
  H   H114      1.0  0.58382  0.44664  0.89461  1.0000
  H   H115      1.0  0.8603100000000002  0.84107  0.78653  1.0000
  H   H116      1.0  0.86311  0.69422  0.78378  1.0000
  H   H117      1.0  0.84415  0.6174  0.82413  1.0000
  H   H118      1.0  0.83538  0.4489  0.89032  1.0000
  H   H119      1.0  0.84314  0.33498  0.9198600000000001  1.0000
  H   H120      1.0  0.84409  0.35847999999999997  0.9678  1.0000
  H   H121      1.0  0.82588  0.59676  0.9573  1.0000
  H   H122      1.0  0.81696  0.82397  0.93746  1.0000
  H   H123      1.0  0.8238900000000002  0.96973  0.93415  1.0000
  H   H124      1.0  0.8311800000000001  0.03024  0.89009  1.0000
  H   H125      1.0  0.9900300000000002  0.43699  0.84522  1.0000
  H   H126      1.0  0.12271  0.33762  0.84442  1.0000
  H   H127      1.0  0.07977  0.19705  0.84513  1.0000
  H   H128      1.0  0.77218  0.2563099999999999  0.84357  1.0000
  H   H129      1.0  0.1347  0.03878  0.745  1.0000
  H   H130      1.0  0.933  0.01068  0.68193  1.0000
  H   H131      1.0  0.7947000000000001  0.99929  0.71248  1.0000
  H   H132      1.0  0.8269900000000001  0.00449  0.76006  1.0000
  H   H133      1.0  0.47897  0.45142  0.01615  1.0000
  H   H134      1.0  0.3414100000000001  0.35595  0.01401  1.0000
  H   H135      1.0  0.37737  0.21357  0.01092  1.0000
  H   H136      1.0  0.68694  0.26458  0.00943  1.0000
  H   H137      1.0  0.09144  0.59358  0.8539300000000001  1.0000
  H   H138      1.0  0.32495  0.9418000000000001  0.8673  1.0000
  H   H139      1.0  0.12494  0.8997899999999998  0.7846  1.0000
  H   H140      1.0  0.11464  0.75629  0.77609  1.0000
  H   H141      1.0  0.09448  0.66611  0.81343  1.0000
  H   H142      1.0  0.09281000000000002  0.47546  0.8734400000000001  1.0000
  H   H143      1.0  0.10645000000000003  0.35363  0.89909  1.0000
  H   H144      1.0  0.11611  0.36344  0.9475600000000001  1.0000
  H   H145      1.0  0.08232  0.60261  0.94503  1.0000
  H   H146      1.0  0.07256  0.83198  0.93399  1.0000
  H   H147      1.0  0.07485  0.97796  0.93612  1.0000
  H   H148      1.0  0.08382  0.05336  0.89461  1.0000
  H   H149      1.0  0.36032000000000003  0.65893  0.78653  1.0000
  H   H150      1.0  0.36311  0.80578  0.78378  1.0000
  H   H151      1.0  0.3441500000000001  0.8826  0.82413  1.0000
  H   H152      1.0  0.33538000000000007  0.0511  0.89032  1.0000
  H   H153      1.0  0.3431500000000001  0.16502  0.9198600000000001  1.0000
  H   H154      1.0  0.34409  0.14152  0.9678  1.0000
  H   H155      1.0  0.32588  0.90324  0.9573  1.0000
  H   H156      1.0  0.31696  0.6760299999999999  0.93746  1.0000
  H   H157      1.0  0.32389  0.53027  0.93415  1.0000
  H   H158      1.0  0.33118  0.46976  0.89009  1.0000
  H   H159      1.0  0.49003  0.06301  0.84522  1.0000
  H   H160      1.0  0.6227  0.16238  0.84442  1.0000
  H   H161      1.0  0.57977  0.30295  0.84513  1.0000
  H   H162      1.0  0.27218  0.24369  0.84357  1.0000
  H   H163      1.0  0.6347  0.46122  0.745  1.0000
  H   H164      1.0  0.433  0.48932  0.68193  1.0000
  H   H165      1.0  0.2947  0.50071  0.71248  1.0000
  H   H166      1.0  0.32699  0.49550999999999995  0.76006  1.0000
  H   H167      1.0  0.97897  0.04858  0.01615  1.0000
  H   H168      1.0  0.8414  0.14405  0.01401  1.0000
  H   H169      1.0  0.87737  0.28643  0.01092  1.0000
  H   H170      1.0  0.18694  0.23542000000000002  0.00943  1.0000
  H   H171      1.0  0.90856  0.9064199999999999  0.35393  1.0000
  H   H172      1.0  0.67505  0.5582  0.3673  1.0000
  H   H173      1.0  0.8750600000000002  0.60021  0.2846  1.0000
  H   H174      1.0  0.88535  0.7437099999999999  0.27609  1.0000
  H   H175      1.0  0.9055200000000002  0.83389  0.3134300000000001  1.0000
  H   H176      1.0  0.9071800000000001  0.02454  0.37345  1.0000
  H   H177      1.0  0.89354  0.14637  0.39909  1.0000
  H   H178      1.0  0.88388  0.13655  0.44756  1.0000
  H   H179      1.0  0.91768  0.89741  0.44503  1.0000
  H   H180      1.0  0.92744  0.66802  0.43399000000000004  1.0000
  H   H181      1.0  0.92514  0.52203  0.4361300000000001  1.0000
  H   H182      1.0  0.9161800000000002  0.44664  0.3946100000000001  1.0000
  H   H183      1.0  0.63968  0.84106  0.28654  1.0000
  H   H184      1.0  0.6368800000000001  0.69422  0.28378  1.0000
  H   H185      1.0  0.6558400000000001  0.6174  0.32414000000000004  1.0000
  H   H186      1.0  0.66462  0.4489  0.39033  1.0000
  H   H187      1.0  0.6568500000000002  0.33498  0.41987  1.0000
  H   H188      1.0  0.65591  0.35849  0.4678  1.0000
  H   H189      1.0  0.6741100000000002  0.59673  0.45729  1.0000
  H   H190      1.0  0.68303  0.82398  0.43746  1.0000
  H   H191      1.0  0.6761100000000002  0.9697400000000002  0.43416000000000005  1.0000
  H   H192      1.0  0.66881  0.03025  0.39010000000000006  1.0000
  H   H193      1.0  0.5099600000000001  0.43699  0.3452200000000001  1.0000
  H   H194      1.0  0.3772900000000001  0.33762  0.34442  1.0000
  H   H195      1.0  0.42024  0.19706  0.34513  1.0000
  H   H196      1.0  0.7278  0.2563099999999999  0.34358  1.0000
  H   H197      1.0  0.3653  0.03878  0.245  1.0000
  H   H198      1.0  0.567  0.01068  0.18193  1.0000
  H   H199      1.0  0.70529  0.99929  0.21248  1.0000
  H   H200      1.0  0.67301  0.00449  0.26006  1.0000
  H   H201      1.0  0.02103  0.45141  0.51615  1.0000
  H   H202      1.0  0.15859000000000006  0.35595  0.51401  1.0000
  H   H203      1.0  0.12261  0.21359  0.51092  1.0000
  H   H204      1.0  0.8130800000000001  0.26459  0.50943  1.0000
  H   H205      1.0  0.59144  0.40642  0.64606  1.0000
  H   H206      1.0  0.8249500000000001  0.0582  0.6327000000000002  1.0000
  H   H207      1.0  0.62493  0.10021  0.7154000000000001  1.0000
  H   H208      1.0  0.61464  0.24370999999999998  0.72391  1.0000
  H   H209      1.0  0.59447  0.33388999999999996  0.68656  1.0000
  H   H210      1.0  0.5928100000000001  0.52454  0.62655  1.0000
  H   H211      1.0  0.60645  0.64637  0.60091  1.0000
  H   H212      1.0  0.6161100000000002  0.63655  0.55243  1.0000
  H   H213      1.0  0.58232  0.39741  0.55497  1.0000
  H   H214      1.0  0.57255  0.16802  0.56601  1.0000
  H   H215      1.0  0.57485  0.02203  0.56387  1.0000
  H   H216      1.0  0.58382  0.9466399999999999  0.60539  1.0000
  H   H217      1.0  0.8603100000000002  0.34106  0.7134600000000001  1.0000
  H   H218      1.0  0.86311  0.19422  0.71622  1.0000
  H   H219      1.0  0.84415  0.1174  0.67586  1.0000
  H   H220      1.0  0.83538  0.9488999999999999  0.60967  1.0000
  H   H221      1.0  0.84314  0.83498  0.58013  1.0000
  H   H222      1.0  0.84409  0.85849  0.5322  1.0000
  H   H223      1.0  0.82588  0.09673  0.5427  1.0000
  H   H224      1.0  0.81696  0.32398  0.56254  1.0000
  H   H225      1.0  0.8238900000000002  0.46974000000000005  0.56584  1.0000
  H   H226      1.0  0.8311800000000001  0.53025  0.6099  1.0000
  H   H227      1.0  0.9900300000000002  0.9369899999999999  0.65478  1.0000
  H   H228      1.0  0.12271  0.83762  0.65558  1.0000
  H   H229      1.0  0.07976000000000003  0.69706  0.6548700000000001  1.0000
  H   H230      1.0  0.7721900000000002  0.75631  0.65642  1.0000
  H   H231      1.0  0.1347  0.53878  0.755  1.0000
  H   H232      1.0  0.933  0.51068  0.81807  1.0000
  H   H233      1.0  0.7947000000000001  0.49929  0.78752  1.0000
  H   H234      1.0  0.8269900000000001  0.50449  0.73994  1.0000
  H   H235      1.0  0.47897  0.9514099999999999  0.48384  1.0000
  H   H236      1.0  0.3414100000000001  0.85595  0.48599  1.0000
  H   H237      1.0  0.37739  0.71359  0.48908  1.0000
  H   H238      1.0  0.68691  0.76459  0.49057000000000006  1.0000
  H   H239      1.0  0.4085600000000001  0.09357999999999998  0.14607  1.0000
  H   H240      1.0  0.17505  0.4418  0.1327  1.0000
  H   H241      1.0  0.37506  0.39979  0.2154  1.0000
  H   H242      1.0  0.38535000000000014  0.25629  0.22391000000000003  1.0000
  H   H243      1.0  0.40552  0.16611  0.18657000000000004  1.0000
  H   H244      1.0  0.40719  0.97546  0.12655  1.0000
  H   H245      1.0  0.39354  0.8536299999999998  0.10091  1.0000
  H   H246      1.0  0.38388000000000005  0.86344  0.05243  1.0000
  H   H247      1.0  0.41768  0.10261  0.05497  1.0000
  H   H248      1.0  0.42744  0.33198  0.06601  1.0000
  H   H249      1.0  0.42514  0.47795999999999994  0.06387  1.0000
  H   H250      1.0  0.4161800000000001  0.55336  0.10539  1.0000
  H   H251      1.0  0.13968  0.15893  0.21346  1.0000
  H   H252      1.0  0.13688  0.30578  0.21622000000000005  1.0000
  H   H253      1.0  0.15585000000000002  0.3826  0.17586  1.0000
  H   H254      1.0  0.16462  0.5511  0.10967000000000002  1.0000
  H   H255      1.0  0.15685000000000002  0.66502  0.08013  1.0000
  H   H256      1.0  0.15591  0.64152  0.0322  1.0000
  H   H257      1.0  0.17411  0.40324  0.0427  1.0000
  H   H258      1.0  0.18303  0.17603  0.06254  1.0000
  H   H259      1.0  0.17611  0.03027  0.06584  1.0000
  H   H260      1.0  0.16882  0.9697600000000001  0.1099  1.0000
  H   H261      1.0  0.00996  0.56301  0.15478  1.0000
  H   H262      1.0  0.8772900000000002  0.66238  0.15558  1.0000
  H   H263      1.0  0.9202300000000001  0.80295  0.15487000000000004  1.0000
  H   H264      1.0  0.22781000000000004  0.74369  0.15642000000000003  1.0000
  H   H265      1.0  0.8653000000000001  0.96122  0.255  1.0000
  H   H266      1.0  0.067  0.98932  0.31807  1.0000
  H   H267      1.0  0.20530000000000007  0.00071  0.28752  1.0000
  H   H268      1.0  0.17301000000000005  0.99551  0.23994  1.0000
  H   H269      1.0  0.52103  0.54858  0.9838400000000002  1.0000
  H   H270      1.0  0.6585900000000002  0.6440499999999999  0.98599  1.0000
  H   H271      1.0  0.62262  0.78643  0.98908  1.0000
  H   H272      1.0  0.31306  0.73542  0.99057  1.0000
  C   C1        1.0  0.88447  0.14145  0.19972  1.0000
  C   C2        1.0  0.8898900000000002  0.2216  0.20433000000000007  1.0000
  C   C3        1.0  0.90093  0.27144  0.18365  1.0000
  C   C4        1.0  0.9063200000000001  0.24084  0.15852  1.0000
  C   C5        1.0  0.91433  0.28543  0.13557  1.0000
  C   C6        1.0  0.92028  0.37574  0.10536  1.0000
  C   C7        1.0  0.91577  0.45095  0.09271  1.0000
  C   C8        1.0  0.90785  0.52219  0.10564  1.0000
  C   C9        1.0  0.89839  0.5903  0.09131  1.0000
  C   C10       1.0  0.8940600000000002  0.58562  0.06457  1.0000
  C   C11       1.0  0.91274  0.45159999999999995  0.06569  1.0000
  C   C12       1.0  0.9191100000000001  0.25206  0.11094  1.0000
  C   C13       1.0  0.9175600000000002  0.16960999999999998  0.10753  1.0000
  C   C14       1.0  0.9223  0.13274  0.08336  1.0000
  C   C15       1.0  0.92097  0.05232  0.08222  1.0000
  C   C16       1.0  0.9153900000000001  0.00995  0.10523000000000002  1.0000
  C   C17       1.0  0.9099700000000002  0.12281  0.12997  1.0000
  C   C18       1.0  0.9022500000000002  0.1583  0.15547  1.0000
  C   C19       1.0  0.6464900000000001  0.30493  0.19635  1.0000
  C   C20       1.0  0.6452200000000001  0.22333  0.19775  1.0000
  C   C21       1.0  0.65493  0.18061  0.17534000000000002  1.0000
  C   C22       1.0  0.66378  0.21961  0.1516  1.0000
  C   C23       1.0  0.6709300000000002  0.18285  0.12715  1.0000
  C   C24       1.0  0.6745600000000003  0.10345999999999998  0.09367000000000002  1.0000
  C   C25       1.0  0.67153  0.03252  0.07847  1.0000
  C   C26       1.0  0.6660700000000003  0.95748  0.08896  1.0000
  C   C27       1.0  0.66127  0.89371  0.07247  1.0000
  C   C28       1.0  0.6605300000000001  0.906  0.04597  1.0000
  C   C29       1.0  0.67081  0.03953  0.05157  1.0000
  C   C30       1.0  0.67511  0.22451  0.10393  1.0000
  C   C31       1.0  0.67496  0.30782  0.10373  1.0000
  C   C32       1.0  0.67851  0.35296  0.08111  1.0000
  C   C33       1.0  0.6752300000000002  0.43322  0.08296  1.0000
  C   C34       1.0  0.6710400000000001  0.46741  0.10745  1.0000
  C   C35       1.0  0.67015  0.34672  0.12784  1.0000
  C   C36       1.0  0.66363  0.30276999999999993  0.1518  1.0000
  C   C37       1.0  0.62755  0.8531  0.15476000000000004  1.0000
  C   C38       1.0  0.52849  0.87559  0.15459  1.0000
  C   C39       1.0  0.45412  0.81957  0.15488  1.0000
  C   C40       1.0  0.47826  0.74056  0.15474  1.0000
  C   C41       1.0  0.57747  0.71751  0.15507000000000004  1.0000
  C   C42       1.0  0.6513000000000002  0.77396  0.15543  1.0000
  C   C43       1.0  0.7087900000000001  0.91166  0.15546  1.0000
  C   C44       1.0  0.60597  0.63357  0.15591  1.0000
  C   C45       1.0  0.51745  0.52343  0.24479000000000004  1.0000
  C   C46       1.0  0.43954000000000004  0.53039  0.26216  1.0000
  C   C47       1.0  0.45654  0.52446  0.28863  1.0000
  C   C48       1.0  0.55293  0.51496  0.29758  1.0000
  C   C49       1.0  0.6311  0.50859  0.28026  1.0000
  C   C50       1.0  0.61361  0.51152  0.25382  1.0000
  C   C51       1.0  0.49554  0.5232  0.21665  1.0000
  C   C52       1.0  0.37116  0.5248899999999999  0.30678  1.0000
  C   C53       1.0  0.9078000000000002  0.86375  0.9858500000000002  1.0000
  C   C54       1.0  0.0058  0.8894  0.98499  1.0000
  C   C55       1.0  0.08279  0.83559  0.98625  1.0000
  C   C56       1.0  0.06308  0.756  0.98857  1.0000
  C   C57       1.0  0.96534  0.73037  0.99066  1.0000
  C   C58       1.0  0.8886000000000002  0.78442  0.98905  1.0000
  C   C59       1.0  0.82315  0.91974  0.98439  1.0000
  C   C60       1.0  0.9405400000000003  0.6469  0.99575  1.0000
  C   C61       1.0  0.11553  0.35855  0.69971  1.0000
  C   C62       1.0  0.11011000000000003  0.2784  0.70433  1.0000
  C   C63       1.0  0.09906000000000002  0.22856  0.68365  1.0000
  C   C64       1.0  0.09367  0.25917  0.65852  1.0000
  C   C65       1.0  0.08567000000000001  0.21458  0.63557  1.0000
  C   C66       1.0  0.07972000000000001  0.12426  0.60536  1.0000
  C   C67       1.0  0.08422  0.04905  0.59271  1.0000
  C   C68       1.0  0.09215  0.9778199999999999  0.60564  1.0000
  C   C69       1.0  0.10160000000000002  0.9097  0.59131  1.0000
  C   C70       1.0  0.10594000000000002  0.91439  0.56457  1.0000
  C   C71       1.0  0.08725000000000001  0.04839  0.56569  1.0000
  C   C72       1.0  0.08088  0.24794  0.61094  1.0000
  C   C73       1.0  0.08243  0.33038  0.60753  1.0000
  C   C74       1.0  0.07769  0.36726  0.58336  1.0000
  C   C75       1.0  0.07903  0.4476799999999999  0.58221  1.0000
  C   C76       1.0  0.08460000000000002  0.49005  0.60523  1.0000
  C   C77       1.0  0.09002000000000003  0.37719  0.6299600000000001  1.0000
  C   C78       1.0  0.09774  0.3417  0.65547  1.0000
  C   C79       1.0  0.35351  0.19507  0.69635  1.0000
  C   C80       1.0  0.35478  0.27666999999999997  0.69775  1.0000
  C   C81       1.0  0.34507  0.31938  0.67534  1.0000
  C   C82       1.0  0.33622  0.28039  0.6516  1.0000
  C   C83       1.0  0.3290700000000001  0.31714  0.62715  1.0000
  C   C84       1.0  0.32543  0.39654  0.59367  1.0000
  C   C85       1.0  0.32847  0.46748000000000006  0.57848  1.0000
  C   C86       1.0  0.33393  0.54252  0.58896  1.0000
  C   C87       1.0  0.33872  0.60628  0.57247  1.0000
  C   C88       1.0  0.33946  0.594  0.54597  1.0000
  C   C89       1.0  0.32919000000000004  0.46047  0.55157  1.0000
  C   C90       1.0  0.32488  0.27549  0.60393  1.0000
  C   C91       1.0  0.32504000000000005  0.19219  0.60373  1.0000
  C   C92       1.0  0.3214900000000001  0.14705  0.58111  1.0000
  C   C93       1.0  0.32476000000000005  0.06678  0.58296  1.0000
  C   C94       1.0  0.32896  0.03259  0.60744  1.0000
  C   C95       1.0  0.32985  0.15328  0.62784  1.0000
  C   C96       1.0  0.33637  0.19723  0.6517900000000001  1.0000
  C   C97       1.0  0.37245  0.64689  0.65476  1.0000
  C   C98       1.0  0.47151  0.62441  0.65459  1.0000
  C   C99       1.0  0.54587  0.68043  0.65488  1.0000
  C   C100      1.0  0.52173  0.75944  0.65474  1.0000
  C   C101      1.0  0.42253  0.78249  0.65506  1.0000
  C   C102      1.0  0.34871  0.72604  0.65543  1.0000
  C   C103      1.0  0.2912  0.58834  0.65546  1.0000
  C   C104      1.0  0.39403  0.86642  0.65591  1.0000
  C   C105      1.0  0.48255  0.9765700000000002  0.74479  1.0000
  C   C106      1.0  0.5604600000000001  0.96961  0.7621600000000001  1.0000
  C   C107      1.0  0.54345  0.97554  0.78863  1.0000
  C   C108      1.0  0.44707  0.98504  0.79757  1.0000
  C   C109      1.0  0.3689  0.9914099999999999  0.78026  1.0000
  C   C110      1.0  0.38639  0.98848  0.75381  1.0000
  C   C111      1.0  0.50446  0.97679  0.71665  1.0000
  C   C112      1.0  0.6288400000000001  0.9751099999999999  0.8067800000000003  1.0000
  C   C113      1.0  0.09221000000000003  0.63625  0.48585  1.0000
  C   C114      1.0  0.99421  0.61061  0.48499  1.0000
  C   C115      1.0  0.91722  0.66441  0.48625  1.0000
  C   C116      1.0  0.93692  0.744  0.48858  1.0000
  C   C117      1.0  0.03466  0.76963  0.49066  1.0000
  C   C118      1.0  0.11137  0.71557  0.48905  1.0000
  C   C119      1.0  0.17684  0.58026  0.48439  1.0000
  C   C120      1.0  0.05945000000000002  0.8531  0.49575  1.0000
  C   C121      1.0  0.3844700000000001  0.8585499999999999  0.30028  1.0000
  C   C122      1.0  0.38989  0.7784  0.29567  1.0000
  C   C123      1.0  0.40093  0.72856  0.3163500000000001  1.0000
  C   C124      1.0  0.40632  0.75917  0.34148  1.0000
  C   C125      1.0  0.41433  0.71458  0.36443  1.0000
  C   C126      1.0  0.42028  0.62426  0.39463  1.0000
  C   C127      1.0  0.41577  0.54905  0.40729  1.0000
  C   C128      1.0  0.4078500000000001  0.47781999999999997  0.39436000000000004  1.0000
  C   C129      1.0  0.39839000000000013  0.4097  0.40869  1.0000
  C   C130      1.0  0.3940600000000001  0.41439  0.43542  1.0000
  C   C131      1.0  0.4127400000000001  0.54839  0.43431  1.0000
  C   C132      1.0  0.41912  0.74794  0.38906  1.0000
  C   C133      1.0  0.41756  0.83038  0.39247  1.0000
  C   C134      1.0  0.4223  0.86726  0.41664000000000007  1.0000
  C   C135      1.0  0.42097  0.9476799999999999  0.41778000000000004  1.0000
  C   C136      1.0  0.4154  0.9900500000000001  0.39477000000000007  1.0000
  C   C137      1.0  0.40997  0.87719  0.3700300000000001  1.0000
  C   C138      1.0  0.4022500000000001  0.8417  0.34453  1.0000
  C   C139      1.0  0.14649  0.69507  0.30365  1.0000
  C   C140      1.0  0.14522  0.77667  0.30225  1.0000
  C   C141      1.0  0.15493000000000007  0.81938  0.32466  1.0000
  C   C142      1.0  0.16378  0.78039  0.34839  1.0000
  C   C143      1.0  0.17093000000000005  0.81714  0.37285  1.0000
  C   C144      1.0  0.17456  0.89654  0.40633  1.0000
  C   C145      1.0  0.17153  0.96748  0.4215200000000001  1.0000
  C   C146      1.0  0.16607  0.04252  0.41104  1.0000
  C   C147      1.0  0.16128  0.10628  0.42753  1.0000
  C   C148      1.0  0.16053000000000006  0.094  0.45403  1.0000
  C   C149      1.0  0.17081  0.9604699999999999  0.44843000000000005  1.0000
  C   C150      1.0  0.17511  0.7754899999999999  0.39607  1.0000
  C   C151      1.0  0.17496  0.69219  0.39627  1.0000
  C   C152      1.0  0.17851  0.64705  0.41888  1.0000
  C   C153      1.0  0.17524000000000006  0.56678  0.41703000000000007  1.0000
  C   C154      1.0  0.17104  0.53259  0.39255  1.0000
  C   C155      1.0  0.17015  0.65328  0.37216  1.0000
  C   C156      1.0  0.16363  0.69723  0.3482  1.0000
  C   C157      1.0  0.12755  0.14689  0.34524  1.0000
  C   C158      1.0  0.02849  0.12441  0.34540000000000004  1.0000
  C   C159      1.0  0.95412  0.18043  0.34512  1.0000
  C   C160      1.0  0.97826  0.25944  0.34526  1.0000
  C   C161      1.0  0.07747  0.28249  0.34493  1.0000
  C   C162      1.0  0.15129  0.22604  0.34457  1.0000
  C   C163      1.0  0.20880000000000004  0.08834  0.34454  1.0000
  C   C164      1.0  0.10597000000000001  0.36642  0.34409  1.0000
  C   C165      1.0  0.01745  0.47657000000000005  0.2552  1.0000
  C   C166      1.0  0.9395300000000002  0.46960999999999997  0.23784  1.0000
  C   C167      1.0  0.9565400000000001  0.47553999999999996  0.21137  1.0000
  C   C168      1.0  0.05293  0.48503999999999997  0.20242  1.0000
  C   C169      1.0  0.1311  0.49141000000000007  0.21974  1.0000
  C   C170      1.0  0.11361  0.48847999999999997  0.24618  1.0000
  C   C171      1.0  0.9955300000000002  0.47679  0.28335  1.0000
  C   C172      1.0  0.87115  0.47511  0.19322  1.0000
  C   C173      1.0  0.40779  0.13625  0.51415  1.0000
  C   C174      1.0  0.50579  0.11061  0.51501  1.0000
  C   C175      1.0  0.58278  0.16441  0.51375  1.0000
  C   C176      1.0  0.56307  0.244  0.51142  1.0000
  C   C177      1.0  0.46534  0.26963  0.50934  1.0000
  C   C178      1.0  0.3886300000000001  0.21557  0.51094  1.0000
  C   C179      1.0  0.32316  0.08026  0.51561  1.0000
  C   C180      1.0  0.44055000000000005  0.35309999999999997  0.50425  1.0000
  C   C181      1.0  0.6155300000000001  0.64145  0.80028  1.0000
  C   C182      1.0  0.6101  0.7216  0.79567  1.0000
  C   C183      1.0  0.5990600000000003  0.77144  0.81635  1.0000
  C   C184      1.0  0.59367  0.74084  0.8414800000000002  1.0000
  C   C185      1.0  0.58567  0.78543  0.86443  1.0000
  C   C186      1.0  0.57972  0.87574  0.89463  1.0000
  C   C187      1.0  0.58422  0.9509500000000001  0.90729  1.0000
  C   C188      1.0  0.59215  0.02219  0.89435  1.0000
  C   C189      1.0  0.6016000000000001  0.0903  0.90869  1.0000
  C   C190      1.0  0.6059400000000003  0.08562  0.93542  1.0000
  C   C191      1.0  0.58725  0.9515999999999999  0.9343100000000001  1.0000
  C   C192      1.0  0.58088  0.7520599999999998  0.8890600000000002  1.0000
  C   C193      1.0  0.5824300000000001  0.66961  0.89247  1.0000
  C   C194      1.0  0.57769  0.63274  0.91664  1.0000
  C   C195      1.0  0.57902  0.55232  0.91778  1.0000
  C   C196      1.0  0.5846  0.50995  0.89477  1.0000
  C   C197      1.0  0.59002  0.62281  0.87003  1.0000
  C   C198      1.0  0.59774  0.6583  0.8445300000000001  1.0000
  C   C199      1.0  0.85351  0.80493  0.8036400000000002  1.0000
  C   C200      1.0  0.85478  0.72333  0.80225  1.0000
  C   C201      1.0  0.84506  0.68061  0.8246600000000002  1.0000
  C   C202      1.0  0.83622  0.71961  0.84839  1.0000
  C   C203      1.0  0.8290700000000002  0.68285  0.87285  1.0000
  C   C204      1.0  0.82543  0.60346  0.90633  1.0000
  C   C205      1.0  0.8284700000000003  0.53252  0.92152  1.0000
  C   C206      1.0  0.8339300000000002  0.45748  0.91104  1.0000
  C   C207      1.0  0.83872  0.39371  0.92753  1.0000
  C   C208      1.0  0.8394600000000001  0.406  0.95403  1.0000
  C   C209      1.0  0.8291800000000003  0.53953  0.94843  1.0000
  C   C210      1.0  0.8248800000000002  0.72451  0.8960700000000001  1.0000
  C   C211      1.0  0.82504  0.80782  0.89627  1.0000
  C   C212      1.0  0.82149  0.85296  0.91889  1.0000
  C   C213      1.0  0.82476  0.9332199999999999  0.91703  1.0000
  C   C214      1.0  0.82895  0.96741  0.8925500000000001  1.0000
  C   C215      1.0  0.8298500000000001  0.84672  0.87216  1.0000
  C   C216      1.0  0.83637  0.80277  0.8482  1.0000
  C   C217      1.0  0.87245  0.35309999999999997  0.84524  1.0000
  C   C218      1.0  0.97151  0.37559  0.8454000000000003  1.0000
  C   C219      1.0  0.04588  0.31957  0.84512  1.0000
  C   C220      1.0  0.02174  0.24055999999999997  0.84526  1.0000
  C   C221      1.0  0.9225300000000001  0.21751  0.8449300000000001  1.0000
  C   C222      1.0  0.8487000000000002  0.2739599999999999  0.8445700000000002  1.0000
  C   C223      1.0  0.7912  0.41166  0.8445400000000001  1.0000
  C   C224      1.0  0.89403  0.13357  0.84409  1.0000
  C   C225      1.0  0.9825500000000001  0.02343  0.7552000000000001  1.0000
  C   C226      1.0  0.06046  0.03039  0.73783  1.0000
  C   C227      1.0  0.04346  0.02446  0.71137  1.0000
  C   C228      1.0  0.94707  0.01496  0.70242  1.0000
  C   C229      1.0  0.8689  0.00859  0.7197400000000002  1.0000
  C   C230      1.0  0.8863900000000001  0.01152  0.7461800000000001  1.0000
  C   C231      1.0  0.00446  0.0232  0.78335  1.0000
  C   C232      1.0  0.12884  0.02489  0.69322  1.0000
  C   C233      1.0  0.5922  0.36375  0.01415  1.0000
  C   C234      1.0  0.49420000000000003  0.38939999999999997  0.01501  1.0000
  C   C235      1.0  0.41721  0.33559  0.01375  1.0000
  C   C236      1.0  0.43692  0.256  0.01142  1.0000
  C   C237      1.0  0.5346600000000001  0.23037  0.00934  1.0000
  C   C238      1.0  0.61139  0.28442  0.010940000000000002  1.0000
  C   C239      1.0  0.6768400000000002  0.41974  0.01561  1.0000
  C   C240      1.0  0.55946  0.1469  0.00425  1.0000
  C   C241      1.0  0.11553  0.8585499999999999  0.80028  1.0000
  C   C242      1.0  0.11010000000000002  0.7784  0.79567  1.0000
  C   C243      1.0  0.09906000000000002  0.72856  0.81635  1.0000
  C   C244      1.0  0.09367  0.75916  0.8414800000000002  1.0000
  C   C245      1.0  0.08567000000000001  0.71457  0.86443  1.0000
  C   C246      1.0  0.07972000000000001  0.62426  0.89463  1.0000
  C   C247      1.0  0.08422  0.54905  0.90729  1.0000
  C   C248      1.0  0.09215  0.47781  0.89435  1.0000
  C   C249      1.0  0.10160000000000002  0.4097  0.90869  1.0000
  C   C250      1.0  0.10594000000000002  0.41438  0.93542  1.0000
  C   C251      1.0  0.08725000000000001  0.5484  0.9343100000000001  1.0000
  C   C252      1.0  0.08088  0.74794  0.8890600000000002  1.0000
  C   C253      1.0  0.08243  0.83039  0.89247  1.0000
  C   C254      1.0  0.07769  0.86726  0.91664  1.0000
  C   C255      1.0  0.07903  0.9476799999999999  0.91778  1.0000
  C   C256      1.0  0.08460000000000002  0.9900500000000001  0.89477  1.0000
  C   C257      1.0  0.09002000000000003  0.87719  0.87003  1.0000
  C   C258      1.0  0.09774  0.8417  0.8445300000000001  1.0000
  C   C259      1.0  0.35351  0.69507  0.8036400000000002  1.0000
  C   C260      1.0  0.35478  0.77667  0.80225  1.0000
  C   C261      1.0  0.34506  0.81939  0.8246600000000002  1.0000
  C   C262      1.0  0.33622  0.78039  0.84839  1.0000
  C   C263      1.0  0.3290700000000001  0.81715  0.87285  1.0000
  C   C264      1.0  0.32543  0.89654  0.90633  1.0000
  C   C265      1.0  0.32847  0.96748  0.92152  1.0000
  C   C266      1.0  0.33393  0.04252  0.91104  1.0000
  C   C267      1.0  0.33872  0.10629  0.92753  1.0000
  C   C268      1.0  0.33946  0.094  0.95403  1.0000
  C   C269      1.0  0.32919000000000004  0.9604699999999999  0.94843  1.0000
  C   C270      1.0  0.32489  0.7754899999999999  0.8960700000000001  1.0000
  C   C271      1.0  0.32504000000000005  0.69218  0.89627  1.0000
  C   C272      1.0  0.3214900000000001  0.64704  0.91889  1.0000
  C   C273      1.0  0.32476000000000005  0.56678  0.91703  1.0000
  C   C274      1.0  0.32896  0.53259  0.8925500000000001  1.0000
  C   C275      1.0  0.32985  0.65328  0.87216  1.0000
  C   C276      1.0  0.33637  0.69723  0.8482  1.0000
  C   C277      1.0  0.37245  0.1469  0.84524  1.0000
  C   C278      1.0  0.47151  0.12441  0.8454000000000003  1.0000
  C   C279      1.0  0.54587  0.18043  0.84512  1.0000
  C   C280      1.0  0.52174  0.25944  0.84526  1.0000
  C   C281      1.0  0.42253  0.28249  0.8449300000000001  1.0000
  C   C282      1.0  0.3487  0.22604  0.8445700000000002  1.0000
  C   C283      1.0  0.2912  0.08834  0.8445400000000001  1.0000
  C   C284      1.0  0.39403  0.36643  0.84409  1.0000
  C   C285      1.0  0.48255  0.47657000000000005  0.7552000000000001  1.0000
  C   C286      1.0  0.5604600000000001  0.46960999999999997  0.73783  1.0000
  C   C287      1.0  0.54346  0.47553999999999996  0.71137  1.0000
  C   C288      1.0  0.44707  0.48503999999999997  0.70242  1.0000
  C   C289      1.0  0.3689  0.49141000000000007  0.7197400000000002  1.0000
  C   C290      1.0  0.38639  0.48847999999999997  0.7461800000000001  1.0000
  C   C291      1.0  0.50446  0.47679999999999995  0.78335  1.0000
  C   C292      1.0  0.6288400000000001  0.47511  0.69322  1.0000
  C   C293      1.0  0.0922  0.13625  0.01415  1.0000
  C   C294      1.0  0.9942000000000002  0.11059999999999998  0.01501  1.0000
  C   C295      1.0  0.91721  0.16441  0.01375  1.0000
  C   C296      1.0  0.9369100000000001  0.244  0.01142  1.0000
  C   C297      1.0  0.03466  0.26963  0.00934  1.0000
  C   C298      1.0  0.11139000000000002  0.21558  0.010940000000000002  1.0000
  C   C299      1.0  0.17684  0.08026  0.01561  1.0000
  C   C300      1.0  0.059460000000000006  0.35309999999999997  0.00425  1.0000
  C   C301      1.0  0.88447  0.64145  0.30028  1.0000
  C   C302      1.0  0.8898900000000002  0.7216  0.29567  1.0000
  C   C303      1.0  0.90093  0.77144  0.3163500000000001  1.0000
  C   C304      1.0  0.9063200000000001  0.74083  0.34148  1.0000
  C   C305      1.0  0.91433  0.78542  0.36443  1.0000
  C   C306      1.0  0.92028  0.87574  0.39463  1.0000
  C   C307      1.0  0.91577  0.9509500000000001  0.40729  1.0000
  C   C308      1.0  0.90785  0.02218  0.39436000000000004  1.0000
  C   C309      1.0  0.89839  0.0903  0.40869  1.0000
  C   C310      1.0  0.8940600000000002  0.08560999999999999  0.43542  1.0000
  C   C311      1.0  0.91274  0.9516099999999998  0.43431  1.0000
  C   C312      1.0  0.91912  0.7520599999999998  0.38906  1.0000
  C   C313      1.0  0.9175600000000002  0.66962  0.39247  1.0000
  C   C314      1.0  0.9223  0.63274  0.41664000000000007  1.0000
  C   C315      1.0  0.92097  0.55233  0.41778000000000004  1.0000
  C   C316      1.0  0.9153900000000001  0.50995  0.39477000000000007  1.0000
  C   C317      1.0  0.9099700000000002  0.62281  0.3700300000000001  1.0000
  C   C318      1.0  0.9022500000000002  0.6583  0.34453  1.0000
  C   C319      1.0  0.6464900000000001  0.80493  0.30365  1.0000
  C   C320      1.0  0.64521  0.72333  0.30225  1.0000
  C   C321      1.0  0.65493  0.68062  0.32466  1.0000
  C   C322      1.0  0.66378  0.71961  0.34839  1.0000
  C   C323      1.0  0.6709300000000002  0.68286  0.37285  1.0000
  C   C324      1.0  0.6745600000000003  0.60346  0.40633  1.0000
  C   C325      1.0  0.67153  0.53252  0.4215200000000001  1.0000
  C   C326      1.0  0.6660700000000003  0.45748  0.41104  1.0000
  C   C327      1.0  0.66127  0.39372  0.42753  1.0000
  C   C328      1.0  0.6605300000000001  0.406  0.45403  1.0000
  C   C329      1.0  0.67081  0.53953  0.44843000000000005  1.0000
  C   C330      1.0  0.67511  0.72451  0.39607  1.0000
  C   C331      1.0  0.67496  0.80781  0.39627  1.0000
  C   C332      1.0  0.67851  0.85295  0.41888  1.0000
  C   C333      1.0  0.67524  0.9332199999999999  0.41703000000000007  1.0000
  C   C334      1.0  0.6710400000000001  0.96741  0.39255  1.0000
  C   C335      1.0  0.67015  0.84672  0.37216  1.0000
  C   C336      1.0  0.66363  0.80277  0.3482  1.0000
  C   C337      1.0  0.62755  0.35311  0.34524  1.0000
  C   C338      1.0  0.52849  0.37559  0.34540000000000004  1.0000
  C   C339      1.0  0.45413  0.31957  0.34512  1.0000
  C   C340      1.0  0.47826  0.24055999999999997  0.34526  1.0000
  C   C341      1.0  0.57747  0.21751  0.34493  1.0000
  C   C342      1.0  0.65129  0.2739599999999999  0.34457  1.0000
  C   C343      1.0  0.7088  0.41166  0.34454  1.0000
  C   C344      1.0  0.6059600000000003  0.13358  0.34409  1.0000
  C   C345      1.0  0.51745  0.02343  0.2552  1.0000
  C   C346      1.0  0.43953000000000003  0.03039  0.23784  1.0000
  C   C347      1.0  0.45654  0.02446  0.21137  1.0000
  C   C348      1.0  0.55293  0.01496  0.20242  1.0000
  C   C349      1.0  0.6311  0.00859  0.21974  1.0000
  C   C350      1.0  0.61361  0.01152  0.24618  1.0000
  C   C351      1.0  0.49553000000000014  0.02321  0.28335  1.0000
  C   C352      1.0  0.37115  0.02489  0.19322  1.0000
  C   C353      1.0  0.90779  0.36375  0.51415  1.0000
  C   C354      1.0  0.005790000000000002  0.38939  0.51501  1.0000
  C   C355      1.0  0.08278  0.33559  0.51375  1.0000
  C   C356      1.0  0.06307  0.256  0.51142  1.0000
  C   C357      1.0  0.96534  0.23037  0.50934  1.0000
  C   C358      1.0  0.88863  0.28443  0.51094  1.0000
  C   C359      1.0  0.8231600000000002  0.41974  0.51561  1.0000
  C   C360      1.0  0.94055  0.1469  0.50425  1.0000
  C   C361      1.0  0.6155300000000001  0.14145  0.69971  1.0000
  C   C362      1.0  0.6101  0.2216  0.70433  1.0000
  C   C363      1.0  0.5990600000000003  0.27144  0.68365  1.0000
  C   C364      1.0  0.59367  0.24083000000000002  0.65852  1.0000
  C   C365      1.0  0.58567  0.28541999999999995  0.63557  1.0000
  C   C366      1.0  0.57972  0.37574  0.60536  1.0000
  C   C367      1.0  0.58422  0.45095  0.59271  1.0000
  C   C368      1.0  0.59215  0.52218  0.60564  1.0000
  C   C369      1.0  0.6016000000000001  0.5903  0.59131  1.0000
  C   C370      1.0  0.6059400000000003  0.58561  0.56457  1.0000
  C   C371      1.0  0.58725  0.45161  0.56569  1.0000
  C   C372      1.0  0.58088  0.25206  0.61094  1.0000
  C   C373      1.0  0.5824300000000001  0.16962  0.60753  1.0000
  C   C374      1.0  0.57769  0.13274  0.58336  1.0000
  C   C375      1.0  0.57902  0.05232  0.58221  1.0000
  C   C376      1.0  0.5846  0.00995  0.60523  1.0000
  C   C377      1.0  0.59002  0.12281  0.6299600000000001  1.0000
  C   C378      1.0  0.59774  0.1583  0.65547  1.0000
  C   C379      1.0  0.85351  0.30493  0.69635  1.0000
  C   C380      1.0  0.85478  0.22333  0.69775  1.0000
  C   C381      1.0  0.84506  0.18062  0.67534  1.0000
  C   C382      1.0  0.83622  0.21961  0.6516  1.0000
  C   C383      1.0  0.8290700000000002  0.18285999999999997  0.62715  1.0000
  C   C384      1.0  0.82543  0.10345999999999998  0.59367  1.0000
  C   C385      1.0  0.8284700000000003  0.03252  0.57848  1.0000
  C   C386      1.0  0.8339300000000002  0.95748  0.58896  1.0000
  C   C387      1.0  0.83872  0.89372  0.57247  1.0000
  C   C388      1.0  0.8394600000000001  0.906  0.54597  1.0000
  C   C389      1.0  0.82919  0.03953  0.55157  1.0000
  C   C390      1.0  0.8248800000000002  0.22451  0.60393  1.0000
  C   C391      1.0  0.82504  0.30781  0.60373  1.0000
  C   C392      1.0  0.82149  0.35294999999999993  0.58111  1.0000
  C   C393      1.0  0.82476  0.43322  0.58296  1.0000
  C   C394      1.0  0.82895  0.46741  0.60744  1.0000
  C   C395      1.0  0.8298500000000001  0.34672  0.62784  1.0000
  C   C396      1.0  0.83637  0.30276999999999993  0.6517900000000001  1.0000
  C   C397      1.0  0.87245  0.85311  0.65476  1.0000
  C   C398      1.0  0.97151  0.87559  0.65459  1.0000
  C   C399      1.0  0.045870000000000015  0.81957  0.65488  1.0000
  C   C400      1.0  0.02173  0.74056  0.65474  1.0000
  C   C401      1.0  0.9225300000000001  0.71751  0.65506  1.0000
  C   C402      1.0  0.84871  0.77396  0.65543  1.0000
  C   C403      1.0  0.7912  0.91166  0.65546  1.0000
  C   C404      1.0  0.89403  0.63358  0.65591  1.0000
  C   C405      1.0  0.98254  0.52343  0.74479  1.0000
  C   C406      1.0  0.06046  0.53039  0.7621600000000001  1.0000
  C   C407      1.0  0.04346  0.52446  0.78863  1.0000
  C   C408      1.0  0.94707  0.51496  0.79757  1.0000
  C   C409      1.0  0.8689  0.50859  0.78026  1.0000
  C   C410      1.0  0.8863900000000001  0.51152  0.75381  1.0000
  C   C411      1.0  0.00446  0.52321  0.71665  1.0000
  C   C412      1.0  0.12884  0.5248899999999999  0.8067800000000003  1.0000
  C   C413      1.0  0.59221  0.86375  0.48585  1.0000
  C   C414      1.0  0.4942100000000001  0.88939  0.48499  1.0000
  C   C415      1.0  0.41722  0.83559  0.48625  1.0000
  C   C416      1.0  0.43692  0.756  0.48858  1.0000
  C   C417      1.0  0.5346600000000001  0.73037  0.49066  1.0000
  C   C418      1.0  0.61137  0.78443  0.48905  1.0000
  C   C419      1.0  0.6768400000000002  0.91974  0.48439  1.0000
  C   C420      1.0  0.55945  0.6469  0.49575  1.0000
  C   C421      1.0  0.3844700000000001  0.35855  0.19972  1.0000
  C   C422      1.0  0.38989  0.2784  0.20433000000000007  1.0000
  C   C423      1.0  0.40093  0.22856  0.18365  1.0000
  C   C424      1.0  0.40633  0.25916  0.15852  1.0000
  C   C425      1.0  0.41433  0.21457  0.13557  1.0000
  C   C426      1.0  0.42028  0.12426  0.10536  1.0000
  C   C427      1.0  0.41577  0.04905  0.09271  1.0000
  C   C428      1.0  0.4078500000000001  0.97781  0.10564  1.0000
  C   C429      1.0  0.39839000000000013  0.9097  0.09131  1.0000
  C   C430      1.0  0.3940600000000001  0.91438  0.06457  1.0000
  C   C431      1.0  0.4127400000000001  0.0484  0.06569  1.0000
  C   C432      1.0  0.41912  0.24794  0.11094  1.0000
  C   C433      1.0  0.41756  0.33039  0.10753  1.0000
  C   C434      1.0  0.42231  0.36726  0.08336  1.0000
  C   C435      1.0  0.42097  0.4476799999999999  0.08222  1.0000
  C   C436      1.0  0.4154  0.49005  0.10523000000000002  1.0000
  C   C437      1.0  0.40997  0.37719  0.12997  1.0000
  C   C438      1.0  0.4022500000000001  0.3417  0.15547  1.0000
  C   C439      1.0  0.14649  0.19507  0.19635  1.0000
  C   C440      1.0  0.14522  0.27666999999999997  0.19775  1.0000
  C   C441      1.0  0.15493000000000007  0.31939  0.17534000000000002  1.0000
  C   C442      1.0  0.16378  0.28039  0.1516  1.0000
  C   C443      1.0  0.17093000000000005  0.31714999999999993  0.12715  1.0000
  C   C444      1.0  0.17456  0.39654  0.09367000000000002  1.0000
  C   C445      1.0  0.17153  0.46748000000000006  0.07847  1.0000
  C   C446      1.0  0.16607  0.54252  0.08896  1.0000
  C   C447      1.0  0.16128  0.60629  0.07247  1.0000
  C   C448      1.0  0.16053000000000006  0.594  0.04597  1.0000
  C   C449      1.0  0.17081  0.46047  0.05157  1.0000
  C   C450      1.0  0.17511  0.27549  0.10393  1.0000
  C   C451      1.0  0.17496  0.19218  0.10373  1.0000
  C   C452      1.0  0.17851  0.14704  0.08111  1.0000
  C   C453      1.0  0.17524000000000006  0.06678  0.08296  1.0000
  C   C454      1.0  0.17104  0.03259  0.10745  1.0000
  C   C455      1.0  0.17015  0.15328  0.12784  1.0000
  C   C456      1.0  0.16363  0.19723  0.1518  1.0000
  C   C457      1.0  0.12755  0.6469  0.15476000000000004  1.0000
  C   C458      1.0  0.02849  0.62441  0.15459  1.0000
  C   C459      1.0  0.95412  0.68043  0.15488  1.0000
  C   C460      1.0  0.97826  0.75944  0.15474  1.0000
  C   C461      1.0  0.07747  0.78249  0.15507000000000004  1.0000
  C   C462      1.0  0.1513  0.72604  0.15543  1.0000
  C   C463      1.0  0.20879000000000003  0.58834  0.15546  1.0000
  C   C464      1.0  0.10597000000000001  0.86643  0.15591  1.0000
  C   C465      1.0  0.01745  0.9765700000000002  0.24479000000000004  1.0000
  C   C466      1.0  0.9395300000000002  0.96961  0.26216  1.0000
  C   C467      1.0  0.9565400000000001  0.97554  0.28863  1.0000
  C   C468      1.0  0.05293  0.98504  0.29758  1.0000
  C   C469      1.0  0.1311  0.9914099999999999  0.28026  1.0000
  C   C470      1.0  0.11361  0.98848  0.25382  1.0000
  C   C471      1.0  0.99554  0.9768  0.21665  1.0000
  C   C472      1.0  0.87115  0.9751099999999999  0.30678  1.0000
  C   C473      1.0  0.4078  0.63625  0.9858500000000002  1.0000
  C   C474      1.0  0.5058  0.6106  0.98499  1.0000
  C   C475      1.0  0.58279  0.66441  0.98625  1.0000
  C   C476      1.0  0.56308  0.744  0.98857  1.0000
  C   C477      1.0  0.46534  0.76963  0.99066  1.0000
  C   C478      1.0  0.38861000000000007  0.71558  0.98905  1.0000
  C   C479      1.0  0.32315  0.58026  0.98439  1.0000
  C   C480      1.0  0.44054000000000004  0.8531  0.99575  1.0000
  N   N1        1.0  0.8907300000000002  0.11121  0.1761  1.0000
  N   N2        1.0  0.9098000000000002  0.04425  0.12823  1.0000
  N   N3        1.0  0.65583  0.34307  0.1741  1.0000
  N   N4        1.0  0.6697  0.42568  0.12912  1.0000
  N   N5        1.0  0.9231  0.30841  0.09246  1.0000
  N   N6        1.0  0.9161200000000002  0.36445  0.13165  1.0000
  N   N7        1.0  0.67733  0.17478999999999997  0.0834  1.0000
  N   N8        1.0  0.67081  0.10552  0.12023  1.0000
  N   N9        1.0  0.9008300000000002  0.51696  0.05208000000000001  1.0000
  N   N10       1.0  0.6647000000000001  0.9781499999999999  0.03584  1.0000
  N   N11       1.0  0.10927  0.38879  0.6761  1.0000
  N   N12       1.0  0.09019  0.45575  0.62823  1.0000
  N   N13       1.0  0.34417  0.15693  0.6741000000000001  1.0000
  N   N14       1.0  0.3303  0.07432  0.62912  1.0000
  N   N15       1.0  0.0769  0.19159  0.59246  1.0000
  N   N16       1.0  0.08388000000000001  0.13555  0.63165  1.0000
  N   N17       1.0  0.32266  0.32521  0.5834  1.0000
  N   N18       1.0  0.32918  0.39447  0.6202400000000001  1.0000
  N   N19       1.0  0.09916000000000001  0.9830300000000001  0.55207  1.0000
  N   N20       1.0  0.33529  0.52186  0.53584  1.0000
  N   N21       1.0  0.39073  0.88879  0.3239  1.0000
  N   N22       1.0  0.4098  0.95575  0.37177  1.0000
  N   N23       1.0  0.15583  0.65693  0.3259  1.0000
  N   N24       1.0  0.16970000000000005  0.57432  0.37088  1.0000
  N   N25       1.0  0.4231  0.69159  0.40754  1.0000
  N   N26       1.0  0.41612  0.63555  0.36834  1.0000
  N   N27       1.0  0.17733  0.82521  0.4166  1.0000
  N   N28       1.0  0.17082  0.89448  0.3797600000000001  1.0000
  N   N29       1.0  0.40084  0.48303  0.44792  1.0000
  N   N30       1.0  0.1647  0.02186  0.46416  1.0000
  N   N31       1.0  0.60927  0.61121  0.8238900000000001  1.0000
  N   N32       1.0  0.59019  0.54425  0.87177  1.0000
  N   N33       1.0  0.8441600000000002  0.8430699999999998  0.8259  1.0000
  N   N34       1.0  0.83029  0.92568  0.87088  1.0000
  N   N35       1.0  0.5769  0.80841  0.90753  1.0000
  N   N36       1.0  0.58387  0.86445  0.8683400000000001  1.0000
  N   N37       1.0  0.82266  0.67479  0.91659  1.0000
  N   N38       1.0  0.8291800000000003  0.60552  0.87976  1.0000
  N   N39       1.0  0.59916  0.01696  0.9479200000000001  1.0000
  N   N40       1.0  0.8352900000000001  0.47814999999999996  0.96416  1.0000
  N   N41       1.0  0.10927  0.88879  0.8238900000000001  1.0000
  N   N42       1.0  0.09019  0.95575  0.87177  1.0000
  N   N43       1.0  0.34417  0.65693  0.8259  1.0000
  N   N44       1.0  0.3303  0.57432  0.87088  1.0000
  N   N45       1.0  0.0769  0.69159  0.90753  1.0000
  N   N46       1.0  0.08388000000000001  0.63555  0.8683400000000001  1.0000
  N   N47       1.0  0.32266  0.82521  0.91659  1.0000
  N   N48       1.0  0.32918  0.89448  0.87976  1.0000
  N   N49       1.0  0.09916000000000001  0.48303999999999997  0.9479200000000001  1.0000
  N   N50       1.0  0.33529  0.02185  0.96416  1.0000
  N   N51       1.0  0.8907300000000002  0.61121  0.3239  1.0000
  N   N52       1.0  0.9098000000000002  0.54425  0.37177  1.0000
  N   N53       1.0  0.65583  0.8430699999999998  0.3259  1.0000
  N   N54       1.0  0.6697  0.92568  0.37088  1.0000
  N   N55       1.0  0.9231  0.80841  0.40754  1.0000
  N   N56       1.0  0.9161200000000002  0.86445  0.36834  1.0000
  N   N57       1.0  0.67733  0.67479  0.4166  1.0000
  N   N58       1.0  0.67081  0.60552  0.3797600000000001  1.0000
  N   N59       1.0  0.9008300000000002  0.01697  0.44792  1.0000
  N   N60       1.0  0.6647000000000001  0.47814000000000006  0.46416  1.0000
  N   N61       1.0  0.60927  0.11121  0.6761  1.0000
  N   N62       1.0  0.59019  0.04425  0.62823  1.0000
  N   N63       1.0  0.8441600000000002  0.34307  0.6741000000000001  1.0000
  N   N64       1.0  0.83029  0.42568  0.62912  1.0000
  N   N65       1.0  0.5769  0.30841  0.59246  1.0000
  N   N66       1.0  0.58387  0.36445  0.63165  1.0000
  N   N67       1.0  0.82266  0.17478999999999997  0.5834  1.0000
  N   N68       1.0  0.8291800000000003  0.10553  0.6202400000000001  1.0000
  N   N69       1.0  0.59916  0.51697  0.55207  1.0000
  N   N70       1.0  0.8352900000000001  0.9781399999999999  0.53584  1.0000
  N   N71       1.0  0.39073  0.38879  0.1761  1.0000
  N   N72       1.0  0.4098  0.45575  0.12823  1.0000
  N   N73       1.0  0.15583  0.15693  0.1741  1.0000
  N   N74       1.0  0.16970000000000005  0.07432  0.12912  1.0000
  N   N75       1.0  0.4231  0.19159  0.09246  1.0000
  N   N76       1.0  0.41612  0.13555  0.13165  1.0000
  N   N77       1.0  0.17733  0.32521  0.0834  1.0000
  N   N78       1.0  0.17082  0.39447999999999994  0.12023  1.0000
  N   N79       1.0  0.40084  0.98304  0.05208000000000001  1.0000
  N   N80       1.0  0.1647  0.52185  0.03584  1.0000
  O   O1        1.0  0.69012  0.98422  0.15497  1.0000
  O   O2        1.0  0.7959900000000001  0.88358  0.15688  1.0000
  O   O3        1.0  0.54273  0.58155  0.14976  1.0000
  O   O4        1.0  0.69364  0.61607  0.16257  1.0000
  O   O5        1.0  0.41437  0.55406  0.20942  1.0000
  O   O6        1.0  0.55493  0.48845000000000005  0.20165  1.0000
  O   O7        1.0  0.28553  0.51972  0.29688  1.0000
  O   O8        1.0  0.38582  0.52982  0.33100000000000007  1.0000
  O   O9        1.0  0.73602  0.88977  0.98447  1.0000
  O   O10       1.0  0.8383400000000002  0.9921999999999999  0.98326  1.0000
  O   O11       1.0  0.8515600000000002  0.6324899999999999  0.00265  1.0000
  O   O12       1.0  0.00497  0.59379  0.99351  1.0000
  O   O13       1.0  0.30989  0.51577  0.6549700000000002  1.0000
  O   O14       1.0  0.20401  0.61642  0.6568800000000001  1.0000
  O   O15       1.0  0.45727  0.91845  0.64976  1.0000
  O   O16       1.0  0.30636  0.88393  0.66257  1.0000
  O   O17       1.0  0.58563  0.9459399999999999  0.70942  1.0000
  O   O18       1.0  0.44506  0.01155  0.70165  1.0000
  O   O19       1.0  0.71447  0.98028  0.79688  1.0000
  O   O20       1.0  0.61417  0.97018  0.831  1.0000
  O   O21       1.0  0.26398  0.61024  0.48447  1.0000
  O   O22       1.0  0.16165  0.5078  0.48326  1.0000
  O   O23       1.0  0.14844  0.86749  0.50265  1.0000
  O   O24       1.0  0.9950200000000001  0.90621  0.4935100000000001  1.0000
  O   O25       1.0  0.19011  0.01577  0.34503000000000006  1.0000
  O   O26       1.0  0.29599  0.11642  0.34312  1.0000
  O   O27       1.0  0.04273000000000001  0.41845  0.35024  1.0000
  O   O28       1.0  0.19364  0.38393  0.33743000000000006  1.0000
  O   O29       1.0  0.91437  0.44594  0.29058  1.0000
  O   O30       1.0  0.05493  0.51155  0.29835  1.0000
  O   O31       1.0  0.7855200000000001  0.48027999999999993  0.20312  1.0000
  O   O32       1.0  0.88582  0.47018  0.16900000000000004  1.0000
  O   O33       1.0  0.23602  0.11024  0.51553  1.0000
  O   O34       1.0  0.33835  0.0078  0.51674  1.0000
  O   O35       1.0  0.35155  0.36749  0.49735  1.0000
  O   O36       1.0  0.50497  0.40621  0.50649  1.0000
  O   O37       1.0  0.80988  0.48422  0.84503  1.0000
  O   O38       1.0  0.70401  0.38358  0.84311  1.0000
  O   O39       1.0  0.95726  0.08154999999999998  0.85024  1.0000
  O   O40       1.0  0.80636  0.11607  0.83743  1.0000
  O   O41       1.0  0.08563  0.05406  0.79058  1.0000
  O   O42       1.0  0.94507  0.98845  0.79835  1.0000
  O   O43       1.0  0.21447000000000005  0.01972  0.70312  1.0000
  O   O44       1.0  0.11417  0.029819999999999996  0.6690000000000002  1.0000
  O   O45       1.0  0.76398  0.38977  0.01553  1.0000
  O   O46       1.0  0.66166  0.4922  0.01674  1.0000
  O   O47       1.0  0.64843  0.13249  0.99735  1.0000
  O   O48       1.0  0.49503  0.09379  0.00649  1.0000
  O   O49       1.0  0.30988  0.01578  0.84503  1.0000
  O   O50       1.0  0.20401  0.11642  0.84311  1.0000
  O   O51       1.0  0.45726  0.41845  0.85024  1.0000
  O   O52       1.0  0.30636  0.38393  0.83743  1.0000
  O   O53       1.0  0.58563  0.44594  0.79058  1.0000
  O   O54       1.0  0.44507  0.51155  0.79835  1.0000
  O   O55       1.0  0.71447  0.48027999999999993  0.70312  1.0000
  O   O56       1.0  0.61417  0.47018  0.6690000000000002  1.0000
  O   O57       1.0  0.26398  0.11023  0.01553  1.0000
  O   O58       1.0  0.16166000000000003  0.0078  0.01674  1.0000
  O   O59       1.0  0.14844  0.36751  0.99735  1.0000
  O   O60       1.0  0.99503  0.40621  0.00649  1.0000
  O   O61       1.0  0.6901100000000001  0.48423  0.34503000000000006  1.0000
  O   O62       1.0  0.7959900000000001  0.38358  0.34312  1.0000
  O   O63       1.0  0.54273  0.08154999999999998  0.35024  1.0000
  O   O64       1.0  0.69364  0.11607  0.33743000000000006  1.0000
  O   O65       1.0  0.41437  0.05406  0.29058  1.0000
  O   O66       1.0  0.55493  0.98845  0.29835  1.0000
  O   O67       1.0  0.28553  0.01972  0.20312  1.0000
  O   O68       1.0  0.38582  0.029819999999999996  0.16900000000000004  1.0000
  O   O69       1.0  0.73602  0.38976  0.51553  1.0000
  O   O70       1.0  0.83835  0.4922  0.51674  1.0000
  O   O71       1.0  0.85155  0.13251  0.49735  1.0000
  O   O72       1.0  0.00498  0.09379  0.50649  1.0000
  O   O73       1.0  0.80988  0.9842300000000002  0.6549700000000002  1.0000
  O   O74       1.0  0.70401  0.88358  0.6568800000000001  1.0000
  O   O75       1.0  0.9572700000000001  0.58155  0.64976  1.0000
  O   O76       1.0  0.80636  0.61607  0.66257  1.0000
  O   O77       1.0  0.08563  0.55406  0.70942  1.0000
  O   O78       1.0  0.9450600000000001  0.48845000000000005  0.70165  1.0000
  O   O79       1.0  0.21447000000000005  0.51972  0.79688  1.0000
  O   O80       1.0  0.11417  0.52982  0.831  1.0000
  O   O81       1.0  0.76397  0.88976  0.48447  1.0000
  O   O82       1.0  0.66165  0.9921999999999999  0.48326  1.0000
  O   O83       1.0  0.6484400000000002  0.63251  0.50265  1.0000
  O   O84       1.0  0.49502  0.59379  0.4935100000000001  1.0000
  O   O85       1.0  0.19012  0.51578  0.15497  1.0000
  O   O86       1.0  0.29599  0.61642  0.15688  1.0000
  O   O87       1.0  0.04274  0.91845  0.14976  1.0000
  O   O88       1.0  0.19364  0.88393  0.16257  1.0000
  O   O89       1.0  0.91437  0.9459399999999999  0.20942  1.0000
  O   O90       1.0  0.05493  0.01155  0.20165  1.0000
  O   O91       1.0  0.7855200000000001  0.98028  0.29688  1.0000
  O   O92       1.0  0.88582  0.97018  0.33100000000000007  1.0000
  O   O93       1.0  0.23602  0.61023  0.98447  1.0000
  O   O94       1.0  0.33834  0.5078  0.98326  1.0000
  O   O95       1.0  0.35156  0.86751  0.00265  1.0000
  O   O96       1.0  0.50497  0.90621  0.99351  1.0000
