data_image0
_chemical_formula_structural       Zn24B24H888C768O96
_chemical_formula_sum              "Zn24 B24 H888 C768 O96"
_cell_length_a       32.42375
_cell_length_b       32.42379
_cell_length_c       32.42364
_cell_angle_alpha    109.48852
_cell_angle_beta     109.48843
_cell_angle_gamma    109.48833999999998

_symmetry_space_group_name_H-M    'P 1'
_symmetry_Int_Tables_number       1

loop_
  _symmetry_equiv_pos_as_xyz
  'x,y,z'

loop_
  _atom_site_type_symbol
  _atom_site_label
  _atom_site_symmetry_multiplicity
  _atom_site_fract_x
  _atom_site_fract_y
  _atom_site_fract_z
  _atom_site_occupancy
  Zn  Zn1       1.0  1.9999999999993215e-05  2.9999999999992554e-05  0.40112  1.0000
  Zn  Zn2       1.0  0.0  0.0  0.5  1.0000
  Zn  Zn3       1.0  0.49999000000000005  0.59888  0.99998  1.0000
  Zn  Zn4       1.0  0.50001  0.40111  2e-05  1.0000
  Zn  Zn5       1.0  0.5  0.0  0.5  1.0000
  Zn  Zn6       1.0  0.0  0.5  0.0  1.0000
  Zn  Zn7       1.0  0.9011599999999999  0.50002  0.5  1.0000
  Zn  Zn8       1.0  0.5000299999999999  0.9013399999999998  1e-05  1.0000
  Zn  Zn9       1.0  0.5  0.5  0.0  1.0000
  Zn  Zn10      1.0  0.0987199999999999  0.5987199999999998  0.09872  1.0000
  Zn  Zn11      1.0  0.59883  0.5  0.49998000000000004  1.0000
  Zn  Zn12      1.0  0.4999799999999999  0.09866000000000005  0.9999900000000002  1.0000
  Zn  Zn13      1.0  0.40111  0.9011  0.4011  1.0000
  Zn  Zn14      1.0  0.9999900000000002  0.9999799999999999  0.59888  1.0000
  Zn  Zn15      1.0  0.9012900000000001  0.40129000000000004  0.9012800000000001  1.0000
  Zn  Zn16      1.0  0.99997  0.9999899999999999  0.10014  1.0000
  Zn  Zn17      1.0  0.0  0.0  0.0  1.0000
  Zn  Zn18      1.0  0.5  0.0  0.0  1.0000
  Zn  Zn19      1.0  0.40118  0.50001  0.50003  1.0000
  Zn  Zn20      1.0  0.5  0.5  0.5  1.0000
  Zn  Zn21      1.0  0.09885000000000001  0.49998  0.5  1.0000
  Zn  Zn22      1.0  0.5989  0.09889999999999996  0.5989  1.0000
  Zn  Zn23      1.0  2.7392834564173647e-17  0.5  0.5  1.0000
  Zn  Zn24      1.0  2.9999999999960393e-05  1.999999999995629e-05  0.8998599999999999  1.0000
  B   B1        1.0  0.03109999999999994  0.75  0.46891  1.0000
  B   B2        1.0  0.031099999999999996  0.2811  0.06219  1.0000
  B   B3        1.0  0.78114  0.21886999999999995  0.25001  1.0000
  B   B4        1.0  0.78112  0.5622  0.03109  1.0000
  B   B5        1.0  0.7499999999999999  0.7188599999999999  0.28114  1.0000
  B   B6        1.0  0.71887  0.96891  0.4378  1.0000
  B   B7        1.0  0.46889999999999993  0.9377899999999998  0.7188700000000001  1.0000
  B   B8        1.0  0.28112999999999994  0.03109999999999994  0.56221  1.0000
  B   B9        1.0  0.46891  0.5311  0.25001  1.0000
  B   B10       1.0  0.21887  0.78113  0.74999  1.0000
  B   B11       1.0  0.2811  0.24996000000000002  0.21883  1.0000
  B   B12       1.0  0.21888999999999997  0.43781  0.96891  1.0000
  B   B13       1.0  0.06221999999999994  0.5310899999999998  0.7811399999999998  1.0000
  B   B14       1.0  0.4378099999999999  0.21886999999999995  0.46891  1.0000
  B   B15       1.0  0.9377900000000001  0.46891  0.21887  1.0000
  B   B16       1.0  0.71891  0.7500499999999997  0.7811699999999999  1.0000
  B   B17       1.0  0.96891  0.7189  0.93781  1.0000
  B   B18       1.0  0.5311  0.4688999999999999  0.74999  1.0000
  B   B19       1.0  0.53111  0.06221000000000001  0.28114  1.0000
  B   B20       1.0  0.25001000000000007  0.28115000000000007  0.7188700000000001  1.0000
  B   B21       1.0  0.75004  0.031110000000000006  0.96892  1.0000
  B   B22       1.0  0.96891  0.25001  0.53109  1.0000
  B   B23       1.0  0.24996999999999997  0.9688899999999998  0.03108  1.0000
  B   B24       1.0  0.5622  0.78114  0.53109  1.0000
  H   H1        1.0  0.7311600000000001  0.36551  0.11551000000000002  1.0000
  H   H2        1.0  0.010210000000000004  0.70996  0.60904  1.0000
  H   H3        1.0  0.77015  0.20756  0.98244  1.0000
  H   H4        1.0  0.79598  0.05157999999999996  0.83158  1.0000
  H   H5        1.0  0.23117000000000004  0.11551  0.36552  1.0000
  H   H6        1.0  0.74582  0.13922  0.10968  1.0000
  H   H7        1.0  0.04213999999999998  0.44843  0.61468  1.0000
  H   H8        1.0  0.4770800000000001  0.08148  0.2223  1.0000
  H   H9        1.0  0.35477000000000003  0.003890000000000013  0.41232  1.0000
  H   H10       1.0  0.48564999999999997  0.3805499999999999  0.67267  1.0000
  H   H11       1.0  0.57488  0.52952  0.28502  1.0000
  H   H12       1.0  0.52301  0.60451  0.24527  1.0000
  H   H13       1.0  0.8959  0.6369399999999995  0.16464  1.0000
  H   H14       1.0  0.4185399999999999  0.2777099999999999  0.52293  1.0000
  H   H15       1.0  0.16843000000000005  0.70402  0.44843  1.0000
  H   H16       1.0  0.6146999999999999  0.5421599999999999  0.94846  1.0000
  H   H17       1.0  0.70291  0.07494000000000002  0.43925  1.0000
  H   H18       1.0  0.38533  0.9273799999999998  0.8336  1.0000
  H   H19       1.0  0.61635  0.05329999999999998  0.91454  1.0000
  H   H20       1.0  0.4545100000000001  0.71  0.42505  1.0000
  H   H21       1.0  0.1661  0.05146  0.09365  1.0000
  H   H22       1.0  0.43698  0.053200000000000025  0.63881  1.0000
  H   H23       1.0  0.7200499999999999  0.75565  0.55165  1.0000
  H   H24       1.0  0.02776999999999999  0.75899  0.86331  1.0000
  H   H25       1.0  0.2896  0.20647  0.27512  1.0000
  H   H26       1.0  0.14522  0.55757  0.64907  1.0000
  H   H27       1.0  0.27014  0.28773  0.56258  1.0000
  H   H28       1.0  0.8021  0.46393  0.07285  1.0000
  H   H29       1.0  0.254  0.39334  0.86382  1.0000
  H   H30       1.0  0.7589699999999999  0.7312599999999998  0.89582  1.0000
  H   H31       1.0  0.56315  0.61632  0.70202  1.0000
  H   H32       1.0  0.12863999999999998  0.62154  0.9185499999999999  1.0000
  H   H33       1.0  0.78499  0.029499999999999995  0.07484  1.0000
  H   H34       1.0  0.79357  0.08318  0.06877  1.0000
  H   H35       1.0  0.71036  0.91692  0.48563  1.0000
  H   H36       1.0  0.003909999999999969  0.3547899999999999  0.91234  1.0000
  H   H37       1.0  0.20402  0.2555699999999999  0.53548  1.0000
  H   H38       1.0  0.007070000000000003  0.79695  0.37854000000000004  1.0000
  H   H39       1.0  0.6231700000000001  0.025  0.1764  1.0000
  H   H40       1.0  0.71227  0.7298699999999998  0.93742  1.0000
  H   H41       1.0  0.75565  0.72005  0.05165  1.0000
  H   H42       1.0  0.37684000000000006  0.97501  0.82361  1.0000
  H   H43       1.0  0.52965  0.6362099999999999  0.39041  1.0000
  H   H44       1.0  0.22462999999999997  0.93115  0.51426  1.0000
  H   H45       1.0  0.22484000000000004  0.29343  0.21035  1.0000
  H   H46       1.0  0.7720300000000003  0.81758  0.58187  1.0000
  H   H47       1.0  0.61559  0.74999  0.88439  1.0000
  H   H48       1.0  0.7687500000000002  0.60419  0.24104  1.0000
  H   H49       1.0  0.37218  0.07498  0.13577  1.0000
  H   H50       1.0  0.90831  0.05736999999999998  0.91222  1.0000
  H   H51       1.0  0.010080000000000004  0.3003199999999999  0.90109  1.0000
  H   H52       1.0  0.10957999999999998  0.8637599999999998  0.97035  1.0000
  H   H53       1.0  0.20403  0.9484200000000002  0.16843  1.0000
  H   H54       1.0  0.4010699999999999  0.80033  0.51005  1.0000
  H   H55       1.0  0.06258999999999987  0.7877299999999998  0.77013  1.0000
  H   H56       1.0  0.30032  0.29023  0.39916  1.0000
  H   H57       1.0  0.48911  0.38507  0.41746  1.0000
  H   H58       1.0  0.13574  0.2638  0.06088  1.0000
  H   H59       1.0  0.062449999999999985  0.27466  0.79231  1.0000
  H   H60       1.0  0.31749  0.23568999999999996  0.04545  1.0000
  H   H61       1.0  0.29245999999999994  0.51757  0.22985  1.0000
  H   H62       1.0  0.7896300000000002  0.51437  0.08309  1.0000
  H   H63       1.0  0.4185  0.29699  0.28991  1.0000
  H   H64       1.0  0.73633  0.8720499999999998  0.79718  1.0000
  H   H65       1.0  0.53226  0.9282799999999999  0.91741  1.0000
  H   H66       1.0  0.72232  0.14074000000000003  0.24522000000000002  1.0000
  H   H67       1.0  0.32726  0.31297  0.70784  1.0000
  H   H68       1.0  0.29598999999999986  0.8315799999999998  0.05158  1.0000
  H   H69       1.0  0.90109  0.51007  0.80031  1.0000
  H   H70       1.0  0.1358299999999998  0.8721799999999996  0.57498  1.0000
  H   H71       1.0  0.7077  0.22536  0.43757  1.0000
  H   H72       1.0  0.58773  0.44256999999999996  0.59171  1.0000
  H   H73       1.0  0.73617  0.8642499999999997  0.43911  1.0000
  H   H74       1.0  0.8612199999999999  0.4468199999999999  0.06304  1.0000
  H   H75       1.0  0.036069999999999915  0.4271499999999998  0.19789  1.0000
  H   H76       1.0  0.90177  0.34859  0.02492  1.0000
  H   H77       1.0  0.98563  0.41692  0.21036  1.0000
  H   H78       1.0  0.7776899999999999  0.7547899999999997  0.85928  1.0000
  H   H79       1.0  0.7030699999999999  0.12145999999999992  0.9929399999999999  1.0000
  H   H80       1.0  0.5854599999999999  0.44670999999999994  0.8836699999999998  1.0000
  H   H81       1.0  0.98245  0.27015000000000006  0.7075600000000001  1.0000
  H   H82       1.0  0.45465999999999995  0.19036000000000006  0.7722  1.0000
  H   H83       1.0  0.2776900000000001  0.85927  0.75478  1.0000
  H   H84       1.0  0.35930999999999996  0.10455999999999994  0.58164  1.0000
  H   H85       1.0  0.63695  0.89592  0.66466  1.0000
  H   H86       1.0  0.31296  0.32723  0.20782  1.0000
  H   H87       1.0  0.82356  0.87681  0.47497  1.0000
  H   H88       1.0  0.75417  0.8903399999999998  0.86081  1.0000
  H   H89       1.0  0.12325  0.17641  0.02502  1.0000
  H   H90       1.0  0.52942  0.9545699999999998  0.24449  1.0000
  H   H91       1.0  0.6684299999999999  0.44842999999999994  0.7040199999999999  1.0000
  H   H92       1.0  0.61939  0.10515  0.29226  1.0000
  H   H93       1.0  0.10897  0.27089  0.57295  1.0000
  H   H94       1.0  0.16171999999999995  0.8909799999999999  0.46384  1.0000
  H   H95       1.0  0.16861999999999996  0.46462  0.22027  1.0000
  H   H96       1.0  0.7539800000000001  0.86382  0.39334  1.0000
  H   H97       1.0  0.39603  0.46778  0.38525  1.0000
  H   H98       1.0  0.08147999999999991  0.3713799999999999  0.87848  1.0000
  H   H99       1.0  0.45455999999999996  0.26431999999999994  0.18252  1.0000
  H   H100      1.0  0.12780999999999992  0.86419  0.92501  1.0000
  H   H101      1.0  0.5728599999999999  0.9639399999999998  0.3021  1.0000
  H   H102      1.0  0.35928000000000004  0.25479  0.27769  1.0000
  H   H103      1.0  0.9469  0.8237799999999996  0.34866  1.0000
  H   H104      1.0  0.41235  0.8548  0.50387  1.0000
  H   H105      1.0  0.297  0.4185  0.78991  1.0000
  H   H106      1.0  0.72987  0.71227  0.43743  1.0000
  H   H107      1.0  0.48564999999999997  0.21034999999999993  0.41691999999999996  1.0000
  H   H108      1.0  0.08318  0.79357  0.56877  1.0000
  H   H109      1.0  0.44843  0.66843  0.20402000000000003  1.0000
  H   H110      1.0  0.1006099999999999  0.8908899999999997  0.401  1.0000
  H   H111      1.0  0.08165000000000004  0.60457  0.85932  1.0000
  H   H112      1.0  0.77973  0.33137  0.03538  1.0000
  H   H113      1.0  0.3806199999999998  0.8948599999999995  0.7077399999999999  1.0000
  H   H114      1.0  0.89486  0.38061  0.20774  1.0000
  H   H115      1.0  0.36426  0.93912  0.73619  1.0000
  H   H116      1.0  0.1407  0.41837  0.89545  1.0000
  H   H117      1.0  0.10456  0.35931  0.08164  1.0000
  H   H118      1.0  0.72986  0.017569999999999957  0.79244  1.0000
  H   H119      1.0  0.83356  0.8852899999999998  0.42735  1.0000
  H   H120      1.0  0.75474  0.9770099999999998  0.8955  1.0000
  H   H121      1.0  0.91456  0.11634  0.55331  1.0000
  H   H122      1.0  0.59894  0.19966999999999996  0.48995000000000005  1.0000
  H   H123      1.0  0.11934  0.29221  0.10512  1.0000
  H   H124      1.0  0.2102  0.2849399999999999  0.25545  1.0000
  H   H125      1.0  0.47500999999999993  0.32360999999999984  0.37684999999999996  1.0000
  H   H126      1.0  0.5816400000000002  0.8593200000000001  0.60458  1.0000
  H   H127      1.0  0.48244  0.7075499999999999  0.27015  1.0000
  H   H128      1.0  0.38531  0.45784  0.05154  1.0000
  H   H129      1.0  0.24436000000000008  0.27995000000000003  0.9483500000000001  1.0000
  H   H130      1.0  0.98919  0.57175  0.10406  1.0000
  H   H131      1.0  0.97223  0.24101  0.1367  1.0000
  H   H132      1.0  0.26432  0.4545499999999999  0.68252  1.0000
  H   H133      1.0  0.504  0.5916399999999999  0.64928  1.0000
  H   H134      1.0  0.25567  0.05166000000000002  0.72007  1.0000
  H   H135      1.0  0.98564  0.6726699999999999  0.38055  1.0000
  H   H136      1.0  0.22229999999999997  0.97708  0.58148  1.0000
  H   H137      1.0  0.72779  0.30963  0.04533  1.0000
  H   H138      1.0  0.7935299999999998  0.7103999999999998  0.22488  1.0000
  H   H139      1.0  0.53617  0.33826999999999996  0.60904  1.0000
  H   H140      1.0  0.25002  0.86567  0.13434  1.0000
  H   H141      1.0  0.8720300000000002  0.7362900000000001  0.29716  1.0000
  H   H142      1.0  0.75479  0.77769  0.35929  1.0000
  H   H143      1.0  0.51428  0.72465  0.43115  1.0000
  H   H144      1.0  0.10969999999999998  0.24585999999999997  0.63922  1.0000
  H   H145      1.0  0.40837  0.4960099999999999  0.85072  1.0000
  H   H146      1.0  0.2078199999999999  0.8129599999999998  0.82726  1.0000
  H   H147      1.0  0.6491299999999999  0.6452299999999997  0.05756  1.0000
  H   H148      1.0  0.10410999999999998  0.36307  0.83536  1.0000
  H   H149      1.0  0.18251999999999993  0.95453  0.7643099999999999  1.0000
  H   H150      1.0  0.86331  0.52778  0.25899  1.0000
  H   H151      1.0  0.88376  0.08551000000000002  0.94675  1.0000
  H   H152      1.0  0.43117  0.01428  0.22464  1.0000
  H   H153      1.0  0.6726999999999999  0.9856499999999998  0.8805699999999999  1.0000
  H   H154      1.0  0.52778  0.8632999999999997  0.75898  1.0000
  H   H155      1.0  0.36079  0.39032  0.25415  1.0000
  H   H156      1.0  0.3850600000000001  0.48908  0.9174  1.0000
  H   H157      1.0  0.06315000000000001  0.70203  0.61631  1.0000
  H   H158      1.0  0.7982200000000002  0.91444  0.36123  1.0000
  H   H159      1.0  0.70788  0.8272599999999998  0.81299  1.0000
  H   H160      1.0  0.14073  0.72231  0.74522  1.0000
  H   H161      1.0  0.29006000000000015  0.9897900000000001  0.8909800000000001  1.0000
  H   H162      1.0  0.060780000000000035  0.42505999999999994  0.7970999999999999  1.0000
  H   H163      1.0  0.9063699999999999  0.3338799999999999  0.44856  1.0000
  H   H164      1.0  0.30031  0.010080000000000026  0.40107  1.0000
  H   H165      1.0  0.12145999999999998  0.70306  0.49294  1.0000
  H   H166      1.0  0.08262  0.11491999999999997  0.010869999999999998  1.0000
  H   H167      1.0  0.86567  0.25002  0.63435  1.0000
  H   H168      1.0  0.63622  0.52965  0.89042  1.0000
  H   H169      1.0  0.55147  0.5936299999999998  0.16608999999999996  1.0000
  H   H170      1.0  0.33536  0.86306  0.60409  1.0000
  H   H171      1.0  0.12847999999999996  0.5071099999999997  0.71015  1.0000
  H   H172      1.0  0.3991599999999999  0.8003099999999997  0.7902  1.0000
  H   H173      1.0  0.10665999999999999  0.63618  0.74601  1.0000
  H   H174      1.0  0.87848  0.58147  0.87137  1.0000
  H   H175      1.0  0.029660000000000006  0.39041  0.63623  1.0000
  H   H176      1.0  0.5916799999999999  0.08774999999999995  0.94258  1.0000
  H   H177      1.0  0.27222  0.69037  0.95467  1.0000
  H   H178      1.0  0.01428999999999989  0.4311599999999998  0.7246499999999999  1.0000
  H   H179      1.0  0.78501  0.7554999999999998  0.21024  1.0000
  H   H180      1.0  0.45786  0.38531  0.55156  1.0000
  H   H181      1.0  0.74449  0.45456999999999986  0.02941  1.0000
  H   H182      1.0  0.14923  0.09164999999999997  0.00396  1.0000
  H   H183      1.0  0.39595999999999987  0.9282499999999997  0.51082  1.0000
  H   H184      1.0  0.56878  0.58319  0.29358  1.0000
  H   H185      1.0  0.08768  0.49611  0.14523  1.0000
  H   H186      1.0  0.91739  0.03225999999999999  0.42826  1.0000
  H   H187      1.0  0.7898599999999999  0.99289  0.37152  1.0000
  H   H188      1.0  0.901  0.3908699999999999  0.60062  1.0000
  H   H189      1.0  0.15133  0.67618  0.55306  1.0000
  H   H190      1.0  0.30211  0.07286000000000001  0.46394  1.0000
  H   H191      1.0  0.36385  0.8933699999999998  0.75401  1.0000
  H   H192      1.0  0.67641  0.52501  0.12319  1.0000
  H   H193      1.0  0.42507  0.06074999999999997  0.2971  1.0000
  H   H194      1.0  0.9645100000000001  0.24444  0.29599  1.0000
  H   H195      1.0  0.59824  0.97509  0.6513999999999999  1.0000
  H   H196      1.0  0.91836  0.39543  0.14068  1.0000
  H   H197      1.0  0.25479  0.3592799999999999  0.77769  1.0000
  H   H198      1.0  0.47058  0.04543000000000003  0.75552  1.0000
  H   H199      1.0  0.24527000000000002  0.022999999999999993  0.1045  1.0000
  H   H200      1.0  0.6358  0.57499  0.8722  1.0000
  H   H201      1.0  0.40833  0.91226  0.05742  1.0000
  H   H202      1.0  0.3508799999999999  0.35476999999999986  0.94244  1.0000
  H   H203      1.0  0.52493  0.8486  0.40176  1.0000
  H   H204      1.0  0.24103999999999998  0.26873999999999987  0.10418  1.0000
  H   H205      1.0  0.6452399999999999  0.9961099999999999  0.58769  1.0000
  H   H206      1.0  0.9062499999999998  0.5725399999999997  0.9578999999999999  1.0000
  H   H207      1.0  0.5143  0.89492  0.68708  1.0000
  H   H208      1.0  0.61495  0.51092  0.0826  1.0000
  H   H209      1.0  0.11551999999999993  0.23116999999999993  0.86551  1.0000
  H   H210      1.0  0.52779  0.6645699999999997  0.26878  1.0000
  H   H211      1.0  0.59826  0.62321  0.44696  1.0000
  H   H212      1.0  0.29716  0.37204  0.23633  1.0000
  H   H213      1.0  0.09375999999999995  0.4274599999999999  0.04211  1.0000
  H   H214      1.0  0.33803  0.8021099999999998  0.72918  1.0000
  H   H215      1.0  0.84861  0.5249200000000002  0.9017700000000001  1.0000
  H   H216      1.0  0.3236  0.47499  0.87682  1.0000
  H   H217      1.0  0.78778  0.72515  0.01764  1.0000
  H   H218      1.0  0.25472999999999996  0.8954899999999998  0.97699  1.0000
  H   H219      1.0  0.8903100000000002  0.7541499999999998  0.36079000000000006  1.0000
  H   H220      1.0  0.60913  0.099  0.8994  1.0000
  H   H221      1.0  0.977  0.75473  0.3955  1.0000
  H   H222      1.0  0.9468099999999998  0.5630299999999997  0.8612099999999999  1.0000
  H   H223      1.0  0.57257  0.90624  0.45789  1.0000
  H   H224      1.0  0.58557  0.13876  0.20182  1.0000
  H   H225      1.0  0.3852699999999999  0.8960199999999998  0.96775  1.0000
  H   H226      1.0  0.36551  0.73116  0.61551  1.0000
  H   H227      1.0  0.39088  0.90101  0.1006  1.0000
  H   H228      1.0  0.9579  0.40624  0.07255  1.0000
  H   H229      1.0  0.109  0.20990999999999996  0.51017  1.0000
  H   H230      1.0  0.92826  0.39597  0.01085  1.0000
  H   H231      1.0  0.296  0.46452  0.74444  1.0000
  H   H232      1.0  0.9722199999999999  0.7312199999999998  0.33543  1.0000
  H   H233      1.0  0.39549999999999996  0.4769899999999999  0.25471  1.0000
  H   H234      1.0  0.59901  0.3994  0.60917  1.0000
  H   H235      1.0  0.37206  0.29717  0.73634  1.0000
  H   H236      1.0  0.9578700000000003  0.5515799999999998  0.38532  1.0000
  H   H237      1.0  0.77485  0.48236000000000007  0.21223000000000003  1.0000
  H   H238      1.0  0.70202  0.06314  0.11629  1.0000
  H   H239      1.0  0.44257999999999986  0.5877299999999998  0.09165  1.0000
  H   H240      1.0  0.39337  0.25401  0.36383  1.0000
  H   H241      1.0  0.77464  0.2923  0.06243  1.0000
  H   H242      1.0  0.69037  0.2722  0.45466  1.0000
  H   H243      1.0  0.045430000000000005  0.47058  0.25551  1.0000
  H   H244      1.0  0.86126  0.4144799999999999  0.29825  1.0000
  H   H245      1.0  0.024909999999999967  0.4017699999999999  0.8486  1.0000
  H   H246      1.0  0.39344  0.13928000000000001  0.52958  1.0000
  H   H247      1.0  0.55158  0.33157  0.79598  1.0000
  H   H248      1.0  0.20305000000000006  0.99294  0.12146  1.0000
  H   H249      1.0  0.33832000000000007  0.5361699999999998  0.10903  1.0000
  H   H250      1.0  0.4145499999999999  0.5532999999999998  0.11633  1.0000
  H   H251      1.0  0.7970000000000003  0.78991  0.41851  1.0000
  H   H252      1.0  0.40637  0.4485299999999999  0.33388  1.0000
  H   H253      1.0  0.39590999999999993  0.16464999999999994  0.6369399999999998  1.0000
  H   H254      1.0  0.58257  0.010889999999999999  0.11495  1.0000
  H   H255      1.0  0.010899999999999946  0.5825499999999998  0.61495  1.0000
  H   H256      1.0  0.8910100000000002  0.7901  0.48984  1.0000
  H   H257      1.0  0.2708500000000001  0.10897  0.07295  1.0000
  H   H258      1.0  0.93686  0.29796999999999996  0.3836899999999999  1.0000
  H   H259      1.0  0.9173899999999999  0.8850799999999998  0.98913  1.0000
  H   H260      1.0  0.79225  0.60513  0.11937000000000002  1.0000
  H   H261      1.0  0.66457  0.52778  0.7688  1.0000
  H   H262      1.0  0.56244  0.79231  0.27465  1.0000
  H   H263      1.0  0.6194699999999997  0.5143599999999998  0.82734  1.0000
  H   H264      1.0  0.10398000000000003  0.61475  0.53221  1.0000
  H   H265      1.0  0.27465  0.06242999999999999  0.2923  1.0000
  H   H266      1.0  0.05320000000000005  0.43698  0.1388  1.0000
  H   H267      1.0  0.71507  0.92516  0.97051  1.0000
  H   H268      1.0  0.28779000000000005  0.017650000000000016  0.72516  1.0000
  H   H269      1.0  0.60058  0.40099  0.89087  1.0000
  H   H270      1.0  0.8641800000000002  0.12782  0.42502  1.0000
  H   H271      1.0  0.60405  0.07175  0.48919  1.0000
  H   H272      1.0  0.21499999999999997  0.2445  0.78976  1.0000
  H   H273      1.0  0.33157999999999993  0.5515799999999998  0.29598  1.0000
  H   H274      1.0  0.8806700000000002  0.70779  0.89489  1.0000
  H   H275      1.0  0.8638100000000002  0.75399  0.89334  1.0000
  H   H276      1.0  0.63575  0.060880000000000004  0.26381  1.0000
  H   H277      1.0  0.53549  0.70401  0.75556  1.0000
  H   H278      1.0  0.36379  0.47035  0.10958  1.0000
  H   H279      1.0  0.18708999999999998  0.39492999999999995  0.014309999999999998  1.0000
  H   H280      1.0  0.43743  0.22988  0.21227  1.0000
  H   H281      1.0  0.70647  0.77513  0.28959  1.0000
  H   H282      1.0  0.6041899999999999  0.7687499999999998  0.74104  1.0000
  H   H283      1.0  0.88527  0.05157000000000001  0.45785  1.0000
  H   H284      1.0  0.13449999999999998  0.3845099999999999  0.26885  1.0000
  H   H285      1.0  0.27485999999999994  0.21222999999999997  0.48236000000000007  1.0000
  H   H286      1.0  0.77517  0.7065699999999998  0.78965  1.0000
  H   H287      1.0  0.71009  0.08150999999999997  0.20301  1.0000
  H   H288      1.0  0.46775  0.07171999999999998  0.0826  1.0000
  H   H289      1.0  0.66611  0.09363  0.05146  1.0000
  H   H290      1.0  0.47042  0.10655999999999999  0.36072  1.0000
  H   H291      1.0  0.44841  0.04213  0.11468  1.0000
  H   H292      1.0  0.5818  0.30985  0.76429  1.0000
  H   H293      1.0  0.75551  0.785  0.71024  1.0000
  H   H294      1.0  0.25418999999999997  0.86079  0.8903299999999998  1.0000
  H   H295      1.0  0.045469999999999934  0.81749  0.73569  1.0000
  H   H296      1.0  0.85078  0.90835  0.99604  1.0000
  H   H297      1.0  0.22920000000000004  0.30213  0.83804  1.0000
  H   H298      1.0  0.2290799999999999  0.9270299999999998  0.891  1.0000
  H   H299      1.0  0.70285  0.6279699999999998  0.76367  1.0000
  H   H300      1.0  0.053109999999999914  0.1762299999999999  0.6513499999999999  1.0000
  H   H301      1.0  0.7460099999999998  0.6066599999999998  0.13618  1.0000
  H   H302      1.0  0.06303000000000004  0.36121  0.94683  1.0000
  H   H303      1.0  0.56884  0.98572  0.77537  1.0000
  H   H304      1.0  0.38053999999999993  0.48563999999999985  0.17267  1.0000
  H   H305      1.0  0.89545  0.64069  0.91836  1.0000
  H   H306      1.0  0.575  0.6358099999999998  0.3721999999999999  1.0000
  H   H307      1.0  0.02301000000000004  0.24527  0.60451  1.0000
  H   H308      1.0  0.67275  0.68703  0.29216  1.0000
  H   H309      1.0  0.81297  0.20781999999999998  0.32724999999999993  1.0000
  H   H310      1.0  0.58318  0.56877  0.79357  1.0000
  H   H311      1.0  0.7688399999999999  0.8844899999999998  0.6344899999999999  1.0000
  H   H312      1.0  0.67617  0.15132  0.05309  1.0000
  H   H313      1.0  0.98236  0.71222  0.77484  1.0000
  H   H314      1.0  0.89603  0.38525  0.46779  1.0000
  H   H315      1.0  0.7443399999999999  0.9483499999999997  0.27993  1.0000
  H   H316      1.0  0.5360800000000001  0.19785999999999998  0.42716999999999994  1.0000
  H   H317      1.0  0.09364  0.66613  0.55145  1.0000
  H   H318      1.0  0.08773999999999996  0.5916899999999998  0.44257  1.0000
  H   H319      1.0  0.9185300000000002  0.52293  0.27771  1.0000
  H   H320      1.0  0.24100999999999995  0.9722299999999998  0.6367  1.0000
  H   H321      1.0  0.7638200000000002  0.56089  0.13575  1.0000
  H   H322      1.0  0.3994300000000001  0.59901  0.10913  1.0000
  H   H323      1.0  0.21009  0.20301  0.0815  1.0000
  H   H324      1.0  0.55328  0.41452  0.61635  1.0000
  H   H325      1.0  0.6041  0.8353599999999998  0.36306  1.0000
  H   H326      1.0  0.42739  0.3336  0.38535  1.0000
  H   H327      1.0  0.2589699999999999  0.8957999999999998  0.73125  1.0000
  H   H328      1.0  0.19790999999999995  0.5360699999999999  0.9271499999999999  1.0000
  H   H329      1.0  0.08309  0.28964  0.01437  1.0000
  H   H330      1.0  0.57498  0.045509999999999974  0.79001  1.0000
  H   H331      1.0  0.9857100000000002  0.31292  0.10507  1.0000
  H   H332      1.0  0.9369800000000001  0.6387899999999997  0.05317  1.0000
  H   H333      1.0  0.66643  0.5726299999999998  0.11468999999999999  1.0000
  H   H334      1.0  0.52953  0.57489  0.78503  1.0000
  H   H335      1.0  0.8098599999999999  0.26429999999999987  0.5818  1.0000
  H   H336      1.0  0.22028  0.66863  0.96462  1.0000
  H   H337      1.0  0.58147  0.7222899999999998  0.47707  1.0000
  H   H338      1.0  0.06877999999999998  0.2935699999999999  0.58318  1.0000
  H   H339      1.0  0.9250799999999999  0.20995  0.95451  1.0000
  H   H340      1.0  0.19036  0.45467  0.2722  1.0000
  H   H341      1.0  0.91692  0.71036  0.98564  1.0000
  H   H342      1.0  0.62783  0.92502  0.8642299999999999  1.0000
  H   H343      1.0  0.79599  0.74443  0.46452  1.0000
  H   H344      1.0  0.41853  0.12151999999999999  0.62864  1.0000
  H   H345      1.0  0.42826999999999993  0.4174299999999999  0.53227  1.0000
  H   H346      1.0  0.40177  0.024910000000000015  0.3486  1.0000
  H   H347      1.0  0.48993000000000003  0.09893000000000005  0.6997  1.0000
  H   H348      1.0  0.25002  0.38441  0.61561  1.0000
  H   H349      1.0  0.2064399999999999  0.91683  0.9312299999999999  1.0000
  H   H350      1.0  0.27204  0.5818699999999998  0.81758  1.0000
  H   H351      1.0  0.05156000000000004  0.88531  0.95784  1.0000
  H   H352      1.0  0.46383999999999986  0.6617299999999998  0.39096  1.0000
  H   H353      1.0  0.85931  0.58163  0.10455  1.0000
  H   H354      1.0  0.48236  0.77485  0.71222  1.0000
  H   H355      1.0  0.010819999999999975  0.42826  0.89594  1.0000
  H   H356      1.0  0.14522000000000004  0.5876700000000001  0.9960900000000001  1.0000
  H   H357      1.0  0.5516  0.95788  0.88532  1.0000
  H   H358      1.0  0.07297999999999998  0.77093  0.60899  1.0000
  H   H359      1.0  0.92507  0.29709  0.06074  1.0000
  H   H360      1.0  0.89582  0.25896  0.23125  1.0000
  H   H361      1.0  0.12153000000000004  0.41853  0.12864  1.0000
  H   H362      1.0  0.08147999999999997  0.4770799999999999  0.72229  1.0000
  H   H363      1.0  0.74999  0.13434000000000001  0.86566  1.0000
  H   H364      1.0  0.07493000000000001  0.79005  0.04549  1.0000
  H   H365      1.0  0.6686299999999998  0.22027999999999998  0.4646199999999999  1.0000
  H   H366      1.0  0.2099899999999999  0.9250399999999998  0.45449999999999996  1.0000
  H   H367      1.0  0.80965  0.54534  0.7277999999999999  1.0000
  H   H368      1.0  0.79246  0.22986  0.51757  1.0000
  H   H369      1.0  0.5100799999999999  0.9010699999999998  0.3003  1.0000
  H   H370      1.0  0.83544  0.23121  0.47222  1.0000
  H   H371      1.0  0.45455999999999996  0.7445099999999998  0.52942  1.0000
  H   H372      1.0  0.53223  0.60398  0.11473  1.0000
  H   H373      1.0  0.09824000000000004  0.65142  0.97508  1.0000
  H   H374      1.0  0.9960000000000001  0.35070999999999997  0.40835  1.0000
  H   H375      1.0  0.6090400000000002  0.51019  0.20994  1.0000
  H   H376      1.0  0.6616900000000001  0.46382999999999996  0.8909800000000001  1.0000
  H   H377      1.0  0.64522  0.6491099999999997  0.55757  1.0000
  H   H378      1.0  0.5937700000000002  0.042109999999999995  0.42747  1.0000
  H   H379      1.0  0.72797  0.4181299999999999  0.18242  1.0000
  H   H380      1.0  0.3175900000000001  0.08188  0.77204  1.0000
  H   H381      1.0  0.014289999999999916  0.6870899999999999  0.89494  1.0000
  H   H382      1.0  0.004009999999999973  0.6492899999999998  0.59166  1.0000
  H   H383      1.0  0.71041  0.79353  0.72489  1.0000
  H   H384      1.0  0.8003199999999999  0.40107  0.01009  1.0000
  H   H385      1.0  0.7018  0.63877  0.08558  1.0000
  H   H386      1.0  0.70402  0.16843000000000002  0.94843  1.0000
  H   H387      1.0  0.39582  0.23125999999999994  0.25897  1.0000
  H   H388      1.0  0.6979  0.92715  0.53606  1.0000
  H   H389      1.0  0.22781  0.04533999999999997  0.30965  1.0000
  H   H390      1.0  0.11498  0.08261  0.51093  1.0000
  H   H391      1.0  0.1369600000000002  0.6646600000000001  0.8959100000000001  1.0000
  H   H392      1.0  0.39102  0.42704  0.72909  1.0000
  H   H393      1.0  0.30964  0.7278  0.54534  1.0000
  H   H394      1.0  0.2971  0.92506  0.56075  1.0000
  H   H395      1.0  0.8642699999999999  0.7362099999999998  0.9391299999999999  1.0000
  H   H396      1.0  0.79717  0.23630000000000004  0.37206000000000006  1.0000
  H   H397      1.0  0.042109999999999946  0.5937699999999998  0.92745  1.0000
  H   H398      1.0  0.49601000000000006  0.40836  0.35073  1.0000
  H   H399      1.0  0.8129199999999999  0.6050799999999997  0.98569  1.0000
  H   H400      1.0  0.57494  0.93925  0.70291  1.0000
  H   H401      1.0  0.28965  0.08307999999999999  0.51437  1.0000
  H   H402      1.0  0.43922  0.20291  0.57495  1.0000
  H   H403      1.0  0.6387599999999999  0.7017899999999998  0.58558  1.0000
  H   H404      1.0  0.55321  0.13878000000000001  0.437  1.0000
  H   H405      1.0  0.70654  0.93128  0.91687  1.0000
  H   H406      1.0  0.83391  0.94854  0.90635  1.0000
  H   H407      1.0  0.4857099999999999  0.10508999999999998  0.31293  1.0000
  H   H408      1.0  0.6096699999999999  0.6392  0.24582  1.0000
  H   H409      1.0  0.26885  0.63449  0.88449  1.0000
  H   H410      1.0  0.8994  0.10912000000000004  0.59901  1.0000
  H   H411      1.0  0.38368  0.43687  0.79799  1.0000
  H   H412      1.0  0.60451  0.52301  0.7453  1.0000
  H   H413      1.0  0.93742  0.21227  0.22986999999999996  1.0000
  H   H414      1.0  0.66465  0.13694999999999993  0.39591  1.0000
  H   H415      1.0  0.93123  0.70644  0.41683000000000003  1.0000
  H   H416      1.0  0.9928999999999999  0.78986  0.87153  1.0000
  H   H417      1.0  0.21015  0.007109999999999978  0.62848  1.0000
  H   H418      1.0  0.26368  0.12796  0.20282  1.0000
  H   H419      1.0  0.79024  0.8991399999999998  0.3003  1.0000
  H   H420      1.0  0.09891999999999998  0.48993  0.19969  1.0000
  H   H421      1.0  0.1870400000000001  0.79218  0.67275  1.0000
  H   H422      1.0  0.54535  0.80964  0.2278  1.0000
  H   H423      1.0  0.6096  0.97035  0.86375  1.0000
  H   H424      1.0  0.9251299999999999  0.7149899999999998  0.47048  1.0000
  H   H425      1.0  0.6361599999999998  0.10663999999999997  0.24599  1.0000
  H   H426      1.0  0.41821  0.69015  0.23571  1.0000
  H   H427      1.0  0.7980600000000001  0.88378  0.93693  1.0000
  H   H428      1.0  0.5454499999999999  0.7356799999999998  0.81748  1.0000
  H   H429      1.0  0.57298  0.6089899999999999  0.7709199999999999  1.0000
  H   H430      1.0  0.28986999999999996  0.3715399999999999  0.9929099999999998  1.0000
  H   H431      1.0  0.91232  0.50389  0.85477  1.0000
  H   H432      1.0  0.07262  0.61466  0.6664  1.0000
  H   H433      1.0  0.06879999999999988  0.7754199999999998  0.98572  1.0000
  H   H434      1.0  0.30213  0.22919999999999993  0.33804  1.0000
  H   H435      1.0  0.65141  0.09823999999999995  0.47508999999999996  1.0000
  H   H436      1.0  0.07487999999999997  0.2850099999999999  0.52952  1.0000
  H   H437      1.0  0.43757000000000007  0.20770000000000005  0.72536  1.0000
  H   H438      1.0  0.83139  0.53538  0.77973  1.0000
  H   H439      1.0  0.47700000000000004  0.39549999999999996  0.7547299999999999  1.0000
  H   H440      1.0  0.68705  0.6727699999999998  0.79218  1.0000
  H   H441      1.0  0.77771  0.022919999999999975  0.41851999999999995  1.0000
  H   H442      1.0  0.36125000000000007  0.29822000000000004  0.4144300000000001  1.0000
  H   H443      1.0  0.04535000000000001  0.22781000000000007  0.80965  1.0000
  H   H444      1.0  0.8910400000000002  0.72912  0.42706  1.0000
  H   H445      1.0  0.93756  0.72534  0.20769  1.0000
  H   H446      1.0  0.50707  0.3785399999999999  0.79695  1.0000
  H   H447      1.0  0.95466  0.77219  0.19036  1.0000
  H   H448      1.0  0.2445  0.21500999999999998  0.28976  1.0000
  H   H449      1.0  0.6279499999999998  0.7028299999999995  0.26366  1.0000
  H   H450      1.0  0.48573  0.27536  0.56885  1.0000
  H   H451      1.0  0.49291  0.87153  0.78986  1.0000
  H   H452      1.0  0.09159999999999997  0.14923999999999996  0.50396  1.0000
  H   H453      1.0  0.89597  0.51083  0.92828  1.0000
  H   H454      1.0  0.85091  0.94242  0.35477  1.0000
  H   H455      1.0  0.98993  0.69968  0.09891  1.0000
  H   H456      1.0  0.022909999999999996  0.7777  0.91852  1.0000
  H   H457      1.0  0.74528  0.10450999999999998  0.023009999999999996  1.0000
  H   H458      1.0  0.9470300000000001  0.1233  0.09832  1.0000
  H   H459      1.0  0.975  0.3768499999999999  0.3236  1.0000
  H   H460      1.0  0.55308  0.90176  0.87679  1.0000
  H   H461      1.0  0.60398  0.53222  0.61475  1.0000
  H   H462      1.0  0.7445  0.28979  0.21498000000000003  1.0000
  H   H463      1.0  0.06086999999999998  0.63571  0.7638  1.0000
  H   H464      1.0  0.5071  0.12847  0.21014  1.0000
  H   H465      1.0  0.2982  0.3612399999999999  0.91443  1.0000
  H   H466      1.0  0.17619  0.05302  0.15133  1.0000
  H   H467      1.0  0.8852899999999999  0.96784  0.8960099999999999  1.0000
  H   H468      1.0  0.8655099999999999  0.6154899999999999  0.7311600000000001  1.0000
  H   H469      1.0  0.9181300000000001  0.6824200000000001  0.7279600000000002  1.0000
  H   H470      1.0  0.28500999999999993  0.2102399999999999  0.7555  1.0000
  H   H471      1.0  0.2754  0.48574  0.06886  1.0000
  H   H472      1.0  0.30986  0.5818  0.26429  1.0000
  H   H473      1.0  0.27974  0.03538000000000003  0.33138  1.0000
  H   H474      1.0  0.8722  0.13582  0.07499  1.0000
  H   H475      1.0  0.10509000000000007  0.4857000000000001  0.8129300000000002  1.0000
  H   H476      1.0  0.68252  0.76431  0.95455  1.0000
  H   H477      1.0  0.88369  0.7980099999999998  0.43689  1.0000
  H   H478      1.0  0.92827  0.53226  0.41743  1.0000
  H   H479      1.0  0.8850299999999999  0.9173899999999998  0.48907  1.0000
  H   H480      1.0  0.43685999999999997  0.3836799999999999  0.29798  1.0000
  H   H481      1.0  0.98911  0.41745  0.38505999999999996  1.0000
  H   H482      1.0  0.76367  0.20284000000000002  0.12796  1.0000
  H   H483      1.0  0.16465  0.39591  0.13694  1.0000
  H   H484      1.0  0.45789  0.07254  0.40625  1.0000
  H   H485      1.0  0.29004  0.54551  0.07498  1.0000
  H   H486      1.0  0.81758  0.77202  0.08187999999999998  1.0000
  H   H487      1.0  0.40175  0.37679000000000007  0.55305  1.0000
  H   H488      1.0  0.6388099999999998  0.9369799999999996  0.55318  1.0000
  H   H489      1.0  0.60508  0.81293  0.4857  1.0000
  H   H490      1.0  0.87153  0.4928999999999998  0.28986  1.0000
  H   H491      1.0  0.78962  0.27515  0.20649  1.0000
  H   H492      1.0  0.41682000000000013  0.43123  0.20643  1.0000
  H   H493      1.0  0.20647999999999997  0.2896  0.77512  1.0000
  H   H494      1.0  0.91227  0.40832  0.55744  1.0000
  H   H495      1.0  0.49611  0.08767000000000001  0.64524  1.0000
  H   H496      1.0  0.10514999999999998  0.61939  0.79227  1.0000
  H   H497      1.0  0.9185  0.2899199999999999  0.29698  1.0000
  H   H498      1.0  0.36072  0.97042  0.60656  1.0000
  H   H499      1.0  0.16644  0.11470999999999996  0.57265  1.0000
  H   H500      1.0  0.6154999999999999  0.8655099999999999  0.23116  1.0000
  H   H501      1.0  0.19015000000000004  0.7357000000000001  0.4182  1.0000
  H   H502      1.0  0.29022  0.30029999999999996  0.89917  1.0000
  H   H503      1.0  0.14909999999999998  0.05758999999999996  0.6452299999999999  1.0000
  H   H504      1.0  0.9182100000000002  0.23571999999999999  0.69016  1.0000
  H   H505      1.0  0.92746  0.5421199999999998  0.09375  1.0000
  H   H506      1.0  0.26874  0.24103  0.60418  1.0000
  H   H507      1.0  0.21037999999999996  0.4856399999999999  0.91691  1.0000
  H   H508      1.0  0.9704900000000002  0.21499  0.42514  1.0000
  H   H509      1.0  0.24449000000000004  0.029410000000000002  0.45457  1.0000
  H   H510      1.0  0.25899  0.3633099999999999  0.02778  1.0000
  H   H511      1.0  0.7444299999999999  0.7959899999999999  0.9645099999999999  1.0000
  H   H512      1.0  0.28992  0.91849  0.79699  1.0000
  H   H513      1.0  0.20977  0.10086  0.69971  1.0000
  H   H514      1.0  0.8933500000000001  0.36382  0.25399  1.0000
  H   H515      1.0  0.051579999999999994  0.7959799999999998  0.33157  1.0000
  H   H516      1.0  0.20179  0.08556  0.63877  1.0000
  H   H517      1.0  0.59164  0.50399  0.14928  1.0000
  H   H518      1.0  0.10450999999999998  0.7452799999999998  0.52301  1.0000
  H   H519      1.0  0.22231999999999996  0.24521999999999994  0.14073  1.0000
  H   H520      1.0  0.27996  0.24434999999999998  0.44836  1.0000
  H   H521      1.0  0.07493999999999999  0.7029199999999998  0.9392600000000001  1.0000
  H   H522      1.0  0.58766  0.14521  0.49613  1.0000
  H   H523      1.0  0.17276  0.2922  0.68704  1.0000
  H   H524      1.0  0.05745000000000003  0.90836  0.41228  1.0000
  H   H525      1.0  0.9898  0.29005  0.39096  1.0000
  H   H526      1.0  0.28774  0.27013  0.06258  1.0000
  H   H527      1.0  0.55743  0.41228  0.90835  1.0000
  H   H528      1.0  0.8991999999999999  0.7902599999999997  0.80031  1.0000
  H   H529      1.0  0.10080999999999998  0.20974999999999996  0.19969999999999996  1.0000
  H   H530      1.0  0.6997  0.9899299999999998  0.59893  1.0000
  H   H531      1.0  0.96781  0.08261999999999997  0.0718  1.0000
  H   H532      1.0  0.09900000000000002  0.60914  0.39938  1.0000
  H   H533      1.0  0.7701299999999999  0.5625799999999997  0.28773  1.0000
  H   H534      1.0  0.88053  0.17267  0.48564  1.0000
  H   H535      1.0  0.41228  0.55743  0.4083  1.0000
  H   H536      1.0  0.0354899999999999  0.75556  0.70401  1.0000
  H   H537      1.0  0.32384000000000013  0.84868  0.94692  1.0000
  H   H538      1.0  0.85479  0.44243  0.35093  1.0000
  H   H539      1.0  0.70995  0.010209999999999995  0.10902  1.0000
  H   H540      1.0  0.20301  0.2101  0.5815  1.0000
  H   H541      1.0  0.92703  0.22907999999999998  0.39101  1.0000
  H   H542      1.0  0.89043  0.13623999999999994  0.02965  1.0000
  H   H543      1.0  0.28494  0.07483999999999998  0.02949  1.0000
  H   H544      1.0  0.51436  0.7896599999999998  0.58309  1.0000
  H   H545      1.0  0.7101399999999999  0.6284699999999998  0.00709  1.0000
  H   H546      1.0  0.62846  0.71014  0.5071  1.0000
  H   H547      1.0  0.11472000000000002  0.03217  0.10399  1.0000
  H   H548      1.0  0.10901999999999999  0.83832  0.03616  1.0000
  H   H549      1.0  0.36120000000000013  0.06302  0.44682  1.0000
  H   H550      1.0  0.9751  0.59824  0.15139999999999998  1.0000
  H   H551      1.0  0.5109  0.6149399999999999  0.58254  1.0000
  H   H552      1.0  0.19968000000000005  0.60081  0.70973  1.0000
  H   H553      1.0  0.55307  0.65133  0.17616  1.0000
  H   H554      1.0  0.55758  0.14521999999999993  0.14914  1.0000
  H   H555      1.0  0.76879  0.16457  0.0278  1.0000
  H   H556      1.0  0.26878  0.02778  0.16457  1.0000
  H   H557      1.0  0.3486699999999999  0.44690999999999975  0.32382  1.0000
  H   H558      1.0  0.69788  0.7708  0.66196  1.0000
  H   H559      1.0  0.01437000000000001  0.32734  0.61945  1.0000
  H   H560      1.0  0.13669999999999996  0.47222999999999987  0.74101  1.0000
  H   H561      1.0  0.92739  0.38534  0.33361  1.0000
  H   H562      1.0  0.33357999999999993  0.4273699999999999  0.88532  1.0000
  H   H563      1.0  0.17645  0.12320000000000003  0.52503  1.0000
  H   H564      1.0  0.27771  0.41853  0.02294  1.0000
  H   H565      1.0  0.29798999999999987  0.9368599999999998  0.88371  1.0000
  H   H566      1.0  0.2897600000000001  0.74448  0.7149700000000001  1.0000
  H   H567      1.0  0.21502000000000002  0.9705099999999998  0.92517  1.0000
  H   H568      1.0  0.36567  0.63435  0.25  1.0000
  H   H569      1.0  0.21227999999999997  0.93741  0.72987  1.0000
  H   H570      1.0  0.71222  0.9823599999999998  0.27484  1.0000
  H   H571      1.0  0.77994  0.44836  0.24435  1.0000
  H   H572      1.0  0.74102  0.6367  0.97222  1.0000
  H   H573      1.0  0.6392899999999999  0.029589999999999988  0.39344  1.0000
  H   H574      1.0  0.8785500000000003  0.29694  0.50707  1.0000
  H   H575      1.0  0.8934500000000002  0.52958  0.13928  1.0000
  H   H576      1.0  0.58188  0.2720299999999999  0.3175799999999999  1.0000
  H   H577      1.0  0.2969399999999999  0.8785399999999998  0.00706  1.0000
  H   H578      1.0  0.025010000000000025  0.62316  0.67641  1.0000
  H   H579      1.0  0.12324999999999986  0.9469499999999997  0.59825  1.0000
  H   H580      1.0  0.11632  0.20199  0.56312  1.0000
  H   H581      1.0  0.017559999999999958  0.72985  0.29244  1.0000
  H   H582      1.0  0.5455  0.29  0.57495  1.0000
  H   H583      1.0  0.86305  0.33534999999999987  0.10409  1.0000
  H   H584      1.0  0.63669  0.74101  0.47222  1.0000
  H   H585      1.0  0.4271499999999999  0.036069999999999915  0.6978999999999999  1.0000
  H   H586      1.0  0.62863  0.9185400000000001  0.62154  1.0000
  H   H587      1.0  0.35073  0.99599  0.90835  1.0000
  H   H588      1.0  0.87676  0.8235999999999998  0.97499  1.0000
  H   H589      1.0  0.80216  0.33808  0.22926  1.0000
  H   H590      1.0  0.94853  0.83385  0.40635999999999994  1.0000
  H   H591      1.0  0.02941  0.24451  0.95459  1.0000
  H   H592      1.0  0.7357  0.1901499999999999  0.91821  1.0000
  H   H593      1.0  0.70997  0.45449  0.92503  1.0000
  H   H594      1.0  0.29227999999999993  0.11939999999999994  0.60515  1.0000
  H   H595      1.0  0.20194999999999996  0.11622  0.06307  1.0000
  H   H596      1.0  0.93923  0.57494  0.2029  1.0000
  H   H597      1.0  0.44673  0.58548  0.38365  1.0000
  H   H598      1.0  0.027789999999999968  0.26877999999999996  0.6645699999999999  1.0000
  H   H599      1.0  0.37679999999999997  0.4017499999999999  0.05304  1.0000
  H   H600      1.0  0.32731  0.01435  0.11943  1.0000
  H   H601      1.0  0.9771  0.2223  0.08147999999999998  1.0000
  H   H602      1.0  0.3633200000000001  0.2589999999999999  0.52778  1.0000
  H   H603      1.0  0.39096999999999993  0.9638399999999998  0.16172  1.0000
  H   H604      1.0  0.42827  0.010820000000000007  0.39595  1.0000
  H   H605      1.0  0.13919999999999988  0.7458199999999998  0.60967  1.0000
  H   H606      1.0  0.9467199999999999  0.3836599999999999  0.58548  1.0000
  H   H607      1.0  0.25552  0.54543  0.97059  1.0000
  H   H608      1.0  0.79219  0.18704999999999997  0.17274000000000003  1.0000
  H   H609      1.0  0.10914999999999987  0.8994499999999997  0.09904999999999999  1.0000
  H   H610      1.0  0.9646099999999997  0.7202599999999998  0.16861  1.0000
  H   H611      1.0  0.70773  0.8806099999999997  0.39485  1.0000
  H   H612      1.0  0.5831  0.014369999999999992  0.28963  1.0000
  H   H613      1.0  0.16193  0.27076  0.19784  1.0000
  H   H614      1.0  0.69969  0.7097699999999998  0.60085  1.0000
  H   H615      1.0  0.94256  0.09164  0.58773  1.0000
  H   H616      1.0  0.25551  0.7102099999999998  0.7850200000000002  1.0000
  H   H617      1.0  0.79231  0.56243  0.77464  1.0000
  H   H618      1.0  0.22985999999999998  0.79245  0.01756  1.0000
  H   H619      1.0  0.41744000000000003  0.98911  0.88505  1.0000
  H   H620      1.0  0.3339  0.90637  0.94854  1.0000
  H   H621      1.0  0.6066399999999998  0.7459999999999998  0.6361699999999999  1.0000
  H   H622      1.0  0.72536  0.9375799999999997  0.7077  1.0000
  H   H623      1.0  0.22537  0.7077  0.93757  1.0000
  H   H624      1.0  0.7251499999999999  0.7877699999999997  0.51764  1.0000
  H   H625      1.0  0.39544  0.9183599999999998  0.64068  1.0000
  H   H626      1.0  0.47223  0.1367  0.24102  1.0000
  H   H627      1.0  0.82382  0.9469899999999998  0.84868  1.0000
  H   H628      1.0  0.7901199999999999  0.8909699999999998  0.98985  1.0000
  H   H629      1.0  0.9706  0.7554999999999998  0.04542000000000001  1.0000
  H   H630      1.0  0.5454500000000002  0.2555  0.47058  1.0000
  H   H631      1.0  0.36421  0.42501  0.1278  1.0000
  H   H632      1.0  0.12798  0.26371  0.70284  1.0000
  H   H633      1.0  0.17266999999999988  0.88058  0.98565  1.0000
  H   H634      1.0  0.9185300000000002  0.62862  0.12152  1.0000
  H   H635      1.0  0.19785  0.66192  0.77075  1.0000
  H   H636      1.0  0.18243  0.22798  0.91813  1.0000
  H   H637      1.0  0.9168300000000001  0.20642999999999995  0.43123  1.0000
  H   H638      1.0  0.56085  0.76378  0.63571  1.0000
  H   H639      1.0  0.41813  0.7279699999999998  0.68242  1.0000
  H   H640      1.0  0.86378  0.10961000000000003  0.47036  1.0000
  H   H641      1.0  0.9545800000000001  0.52942  0.74449  1.0000
  H   H642      1.0  0.5102  0.60903  0.70994  1.0000
  H   H643      1.0  0.33544  0.47222  0.23121  1.0000
  H   H644      1.0  0.80033  0.39919  0.29028  1.0000
  H   H645      1.0  0.3836599999999999  0.9467099999999999  0.08546  1.0000
  H   H646      1.0  0.20291000000000003  0.43926999999999994  0.07494  1.0000
  H   H647      1.0  0.8315800000000001  0.29599  0.55158  1.0000
  H   H648      1.0  0.9961000000000001  0.64521  0.08766999999999998  1.0000
  H   H649      1.0  0.20776000000000003  0.39487  0.88063  1.0000
  H   H650      1.0  0.08187999999999997  0.3175899999999999  0.27204  1.0000
  H   H651      1.0  0.10418999999999995  0.7410399999999998  0.76875  1.0000
  H   H652      1.0  0.9391399999999999  0.36429  0.23621  1.0000
  H   H653      1.0  0.5936399999999998  0.5514699999999999  0.6661199999999999  1.0000
  H   H654      1.0  0.91439  0.79826  0.86123  1.0000
  H   H655      1.0  0.63434  0.36566  0.75  1.0000
  H   H656      1.0  0.49294000000000004  0.62146  0.20305  1.0000
  H   H657      1.0  0.08261999999999997  0.9677499999999999  0.57174  1.0000
  H   H658      1.0  0.68708  0.014299999999999985  0.39494  1.0000
  H   H659      1.0  0.7202699999999999  0.9646199999999996  0.66862  1.0000
  H   H660      1.0  0.8382900000000001  0.10902000000000005  0.53616  1.0000
  H   H661      1.0  0.7223  0.58147  0.97707  1.0000
  H   H662      1.0  0.2251599999999999  0.5176399999999998  0.7877799999999999  1.0000
  H   H663      1.0  0.77093  0.07297999999999999  0.10899999999999999  1.0000
  H   H664      1.0  0.0717499999999999  0.6040399999999998  0.98915  1.0000
  H   H665      1.0  0.38441  0.25002  0.11560999999999999  1.0000
  H   H666      1.0  0.52959  0.8934400000000001  0.63929  1.0000
  H   H667      1.0  0.94835  0.74434  0.77994  1.0000
  H   H668      1.0  0.05751  0.14908  0.14522  1.0000
  H   H669      1.0  0.07499999999999993  0.3721899999999999  0.63579  1.0000
  H   H670      1.0  0.5726199999999999  0.6664  0.6146599999999999  1.0000
  H   H671      1.0  0.44241999999999987  0.8547799999999998  0.85087  1.0000
  H   H672      1.0  0.23126  0.39582  0.75897  1.0000
  H   H673      1.0  0.2357  0.31749  0.54545  1.0000
  H   H674      1.0  0.74999  0.6156  0.3844  1.0000
  H   H675      1.0  0.43915999999999994  0.23621999999999996  0.3643  1.0000
  H   H676      1.0  0.13434  0.74999  0.36565  1.0000
  H   H677      1.0  0.13929999999999995  0.39345999999999987  0.029590000000000005  1.0000
  H   H678      1.0  0.045490000000000023  0.57495  0.29  1.0000
  H   H679      1.0  0.44694  0.34868  0.82384  1.0000
  H   H680      1.0  0.3715400000000001  0.28986  0.49291  1.0000
  H   H681      1.0  0.62321  0.59825  0.94696  1.0000
  H   H682      1.0  0.46452  0.296  0.24444  1.0000
  H   H683      1.0  0.82734  0.11942  0.01435  1.0000
  H   H684      1.0  0.4467999999999999  0.8612199999999999  0.56301  1.0000
  H   H685      1.0  0.82725  0.7078  0.31295999999999996  1.0000
  H   H686      1.0  0.58148  0.87848  0.37137  1.0000
  H   H687      1.0  0.9704199999999998  0.36071  0.10659  1.0000
  H   H688      1.0  0.95452  0.42506  0.71001  1.0000
  H   H689      1.0  0.37853999999999993  0.5070599999999997  0.29693  1.0000
  H   H690      1.0  0.46778  0.39602  0.88528  1.0000
  H   H691      1.0  0.34859999999999997  0.9017599999999999  0.52491  1.0000
  H   H692      1.0  0.61474  0.10397999999999999  0.03226  1.0000
  H   H693      1.0  0.81749  0.045469999999999976  0.23569  1.0000
  H   H694      1.0  0.029590000000000012  0.6393  0.89342  1.0000
  H   H695      1.0  0.87137  0.37846  0.08146  1.0000
  H   H696      1.0  0.70301  0.5815  0.21009  1.0000
  H   H697      1.0  0.47508  0.1514  0.59825  1.0000
  H   H698      1.0  0.73569  0.5454499999999999  0.31748  1.0000
  H   H699      1.0  0.78981  0.71506  0.74455  1.0000
  H   H700      1.0  0.6392199999999999  0.6096799999999997  0.7458499999999999  1.0000
  H   H701      1.0  0.05297999999999999  0.87671  0.90168  1.0000
  H   H702      1.0  0.11624999999999991  0.9144999999999998  0.05326  1.0000
  H   H703      1.0  0.89492  0.5143  0.18707  1.0000
  H   H704      1.0  0.90175  0.55305  0.37679  1.0000
  H   H705      1.0  0.39041  0.02965  0.13625  1.0000
  H   H706      1.0  0.62147  0.49294999999999994  0.70307  1.0000
  H   H707      1.0  0.9703499999999998  0.6095899999999997  0.3637699999999999  1.0000
  H   H708      1.0  0.69015  0.41821  0.73571  1.0000
  H   H709      1.0  0.29231000000000007  0.77465  0.56243  1.0000
  H   H710      1.0  0.54212  0.92747  0.59375  1.0000
  H   H711      1.0  0.44854  0.4063699999999999  0.83391  1.0000
  H   H712      1.0  0.21039  0.72485  0.79352  1.0000
  H   H713      1.0  0.8486800000000001  0.32382  0.44694  1.0000
  H   H714      1.0  0.94845  0.11469  0.04217  1.0000
  H   H715      1.0  0.22006999999999993  0.5516499999999999  0.7556599999999999  1.0000
  H   H716      1.0  0.47036  0.36379  0.60959  1.0000
  H   H717      1.0  0.86071  0.60655  0.97041  1.0000
  H   H718      1.0  0.13879000000000002  0.55318  0.93696  1.0000
  H   H719      1.0  0.57174  0.58258  0.46774  1.0000
  H   H720      1.0  0.4169099999999999  0.9856299999999999  0.7103699999999998  1.0000
  H   H721      1.0  0.3784799999999999  0.8713699999999998  0.58146  1.0000
  H   H722      1.0  0.72916  0.89104  0.92706  1.0000
  H   H723      1.0  0.401  0.6006  0.39082999999999996  1.0000
  H   H724      1.0  0.35479  0.35089  0.44243000000000005  1.0000
  H   H725      1.0  0.5625800000000001  0.7701300000000001  0.7877300000000002  1.0000
  H   H726      1.0  0.78773  0.0626  0.27014  1.0000
  H   H727      1.0  0.20769999999999997  0.43757  0.22536  1.0000
  H   H728      1.0  0.6407  0.89545  0.41836  1.0000
  H   H729      1.0  0.64928  0.0040199999999999975  0.09165  1.0000
  H   H730      1.0  0.70755  0.48243999999999987  0.77015  1.0000
  H   H731      1.0  0.39034  0.3608  0.75418  1.0000
  H   H732      1.0  0.2708  0.16195999999999994  0.69787  1.0000
  H   H733      1.0  0.8844  0.11561  0.25001  1.0000
  H   H734      1.0  0.24522000000000002  0.22231000000000006  0.64071  1.0000
  H   H735      1.0  0.88534  0.8336099999999997  0.92741  1.0000
  H   H736      1.0  0.29354  0.22488000000000005  0.71041  1.0000
  H   H737      1.0  0.09825999999999996  0.44696  0.6232099999999999  1.0000
  H   H738      1.0  0.29347  0.06873  0.08314  1.0000
  H   H739      1.0  0.56303  0.9468  0.3612  1.0000
  H   H740      1.0  0.26430999999999993  0.8098499999999997  0.0818  1.0000
  H   H741      1.0  0.4250299999999999  0.9544999999999999  0.20998999999999998  1.0000
  H   H742      1.0  0.08561  0.20174  0.13877  1.0000
  H   H743      1.0  0.61468  0.07261999999999998  0.16639999999999996  1.0000
  H   H744      1.0  0.13619999999999996  0.24600999999999995  0.10666  1.0000
  H   H745      1.0  0.07255  0.45789  0.90625  1.0000
  H   H746      1.0  0.715  0.78977  0.24450999999999998  1.0000
  H   H747      1.0  0.41743999999999987  0.4282699999999999  0.03227  1.0000
  H   H748      1.0  0.36306  0.10409000000000002  0.33534  1.0000
  H   H749      1.0  0.23122000000000012  0.83543  0.97221  1.0000
  H   H750      1.0  0.42500999999999994  0.3641899999999999  0.62781  1.0000
  H   H751      1.0  0.9638499999999999  0.39095999999999986  0.66174  1.0000
  H   H752      1.0  0.10655999999999993  0.47041999999999995  0.8607199999999999  1.0000
  H   H753      1.0  0.07285999999999997  0.3021099999999998  0.96393  1.0000
  H   H754      1.0  0.41836999999999996  0.14067999999999994  0.39543  1.0000
  H   H755      1.0  0.24584  0.10965999999999997  0.1392  1.0000
  H   H756      1.0  0.08150999999999997  0.71009  0.70302  1.0000
  H   H757      1.0  0.78992  0.797  0.9184999999999999  1.0000
  H   H758      1.0  0.20989000000000002  0.10903  0.01016  1.0000
  H   H759      1.0  0.7452199999999999  0.6407199999999996  0.22232  1.0000
  H   H760      1.0  0.20284  0.7636999999999999  0.62794  1.0000
  H   H761      1.0  0.9639400000000001  0.5728599999999998  0.8021100000000001  1.0000
  H   H762      1.0  0.76431  0.68251  0.45455  1.0000
  H   H763      1.0  0.09169999999999989  0.9426299999999997  0.08778999999999999  1.0000
  H   H764      1.0  0.96777  0.88523  0.39602000000000004  1.0000
  H   H765      1.0  0.03224000000000003  0.11477999999999998  0.60399  1.0000
  H   H766      1.0  0.08179999999999996  0.7642899999999998  0.30984  1.0000
  H   H767      1.0  0.5250000000000002  0.67639  0.62315  1.0000
  H   H768      1.0  0.90841  0.85076  0.49604  1.0000
  H   H769      1.0  0.6090400000000002  0.03616000000000001  0.83828  1.0000
  H   H770      1.0  0.5039  0.9123299999999999  0.35477  1.0000
  H   H771      1.0  0.2555800000000001  0.20401999999999998  0.0355  1.0000
  H   H772      1.0  0.23570999999999998  0.91821  0.19017  1.0000
  H   H773      1.0  0.13875  0.58553  0.70176  1.0000
  H   H774      1.0  0.70401  0.5354899999999999  0.25557  1.0000
  H   H775      1.0  0.74104  0.10419999999999997  0.26875  1.0000
  H   H776      1.0  0.33138  0.77973  0.53538  1.0000
  H   H777      1.0  0.5717399999999999  0.9891799999999996  0.60406  1.0000
  H   H778      1.0  0.98572  0.5688399999999998  0.27535  1.0000
  H   H779      1.0  0.83535  0.6041  0.86306  1.0000
  H   H780      1.0  0.72461  0.51426  0.93114  1.0000
  H   H781      1.0  0.99294  0.20305  0.62146  1.0000
  H   H782      1.0  0.31292999999999993  0.9856999999999998  0.60507  1.0000
  H   H783      1.0  0.3713800000000001  0.08145999999999998  0.37846  1.0000
  H   H784      1.0  0.48916  0.10403999999999998  0.57175  1.0000
  H   H785      1.0  0.11561000000000003  0.8843899999999998  0.75  1.0000
  H   H786      1.0  0.29213  0.17274  0.18701  1.0000
  H   H787      1.0  0.70979  0.6997  0.10084  1.0000
  H   H788      1.0  0.9545399999999999  0.18252  0.26431  1.0000
  H   H789      1.0  0.75557  0.03550000000000002  0.20402000000000003  1.0000
  H   H790      1.0  0.23619  0.43912  0.86425  1.0000
  H   H791      1.0  0.79002  0.07496999999999993  0.5455  1.0000
  H   H792      1.0  0.26384  0.13574999999999995  0.5609  1.0000
  H   H793      1.0  0.0854499999999999  0.88366  0.44669  1.0000
  H   H794      1.0  0.5108499999999999  0.8959699999999998  0.42826  1.0000
  H   H795      1.0  0.9425  0.8509200000000001  0.8547800000000001  1.0000
  H   H796      1.0  0.1645700000000001  0.76879  0.52779  1.0000
  H   H797      1.0  0.22987  0.43741999999999986  0.71227  1.0000
  H   H798      1.0  0.07174  0.46775  0.58257  1.0000
  H   H799      1.0  0.7708100000000002  0.69788  0.16196000000000002  1.0000
  H   H800      1.0  0.8909899999999998  0.16168999999999992  0.9638399999999999  1.0000
  H   H801      1.0  0.3948700000000001  0.20774  0.38061  1.0000
  H   H802      1.0  0.27015  0.98244  0.20756  1.0000
  H   H803      1.0  0.8955  0.25472  0.4769900000000001  1.0000
  H   H804      1.0  0.7722  0.95467  0.69036  1.0000
  H   H805      1.0  0.61633  0.56314  0.20202  1.0000
  H   H806      1.0  0.58151  0.70302  0.7101  1.0000
  H   H807      1.0  0.4062399999999999  0.9578899999999998  0.57253  1.0000
  H   H808      1.0  0.66198  0.19788999999999995  0.27083  1.0000
  H   H809      1.0  0.8844900000000002  0.7688299999999999  0.13449  1.0000
  H   H810      1.0  0.007110000000000002  0.21014  0.12847  1.0000
  H   H811      1.0  0.54215  0.6147  0.44844  1.0000
  H   H812      1.0  0.89086  0.10054999999999999  0.90096  1.0000
  H   H813      1.0  0.24444000000000007  0.9645000000000001  0.7959900000000001  1.0000
  H   H814      1.0  0.4483599999999999  0.7799399999999997  0.74434  1.0000
  H   H815      1.0  0.05147999999999999  0.16614999999999994  0.59365  1.0000
  H   H816      1.0  0.7971  0.56074  0.92507  1.0000
  H   H817      1.0  0.5825699999999999  0.5717299999999997  0.9677399999999999  1.0000
  H   H818      1.0  0.51436  0.61946  0.32734  1.0000
  H   H819      1.0  0.7753800000000001  0.06886  0.48574  1.0000
  H   H820      1.0  0.13623000000000007  0.8904  0.52964  1.0000
  H   H821      1.0  0.85928  0.2777  0.25478  1.0000
  H   H822      1.0  0.47222  0.33544  0.73122  1.0000
  H   H823      1.0  0.94843  0.2040299999999999  0.66843  1.0000
  H   H824      1.0  0.24602999999999997  0.13617999999999994  0.60667  1.0000
  H   H825      1.0  0.03539999999999997  0.27975  0.83139  1.0000
  H   H826      1.0  0.7248999999999999  0.21042999999999995  0.29356  1.0000
  H   H827      1.0  0.7312699999999998  0.7589699999999998  0.39583  1.0000
  H   H828      1.0  0.39493  0.18708  0.5143  1.0000
  H   H829      1.0  0.55165  0.22005999999999998  0.25566  1.0000
  H   H830      1.0  0.6065699999999998  0.8607299999999997  0.47042999999999996  1.0000
  H   H831      1.0  0.60085  0.1997  0.2098  1.0000
  H   H832      1.0  0.4646200000000001  0.16862  0.72027  1.0000
  H   H833      1.0  0.7643  0.0818  0.80984  1.0000
  H   H834      1.0  0.051660000000000005  0.25567  0.22006000000000003  1.0000
  H   H835      1.0  0.64073  0.74522  0.72231  1.0000
  H   H836      1.0  0.03219999999999993  0.9173799999999998  0.9282  1.0000
  H   H837      1.0  0.44693  0.09823999999999997  0.12321  1.0000
  H   H838      1.0  0.60899  0.57296  0.27091  1.0000
  H   H839      1.0  0.93121  0.22457999999999995  0.01428  1.0000
  H   H840      1.0  0.92501  0.62781  0.36421000000000003  1.0000
  H   H841      1.0  0.65134  0.55309  0.67619  1.0000
  H   H842      1.0  0.60457  0.08163999999999998  0.35932  1.0000
  H   H843      1.0  0.47047999999999995  0.42511999999999994  0.21497  1.0000
  H   H844      1.0  0.11473999999999993  0.9484399999999997  0.54216  1.0000
  H   H845      1.0  0.60514  0.79226  0.6194  1.0000
  H   H846      1.0  0.20754999999999996  0.7701499999999998  0.48244  1.0000
  H   H847      1.0  0.23634  0.79716  0.87204  1.0000
  H   H848      1.0  0.029519999999999963  0.7850199999999998  0.57487  1.0000
  H   H849      1.0  0.43123  0.41682  0.70642  1.0000
  H   H850      1.0  0.92715  0.6979  0.03607  1.0000
  H   H851      1.0  0.01437999999999989  0.5830899999999998  0.78965  1.0000
  H   H852      1.0  0.62153  0.12864  0.41854  1.0000
  H   H853      1.0  0.51765  0.22516  0.28779  1.0000
  H   H854      1.0  0.01764999999999997  0.28777999999999987  0.22516  1.0000
  H   H855      1.0  0.75552  0.97059  0.54543  1.0000
  H   H856      1.0  0.38451  0.13449  0.76885  1.0000
  H   H857      1.0  0.87676  0.05306000000000001  0.40175  1.0000
  H   H858      1.0  0.5229300000000002  0.91853  0.7777  1.0000
  H   H859      1.0  0.8547899999999999  0.4123399999999999  0.00391  1.0000
  H   H860      1.0  0.7312299999999999  0.9722199999999998  0.8354399999999998  1.0000
  H   H861      1.0  0.5353900000000001  0.8313899999999999  0.27974  1.0000
  H   H862      1.0  0.15138999999999997  0.47508999999999996  0.09822999999999998  1.0000
  H   H863      1.0  0.27510999999999997  0.7895799999999997  0.70644  1.0000
  H   H864      1.0  0.6824200000000001  0.9181200000000002  0.22796000000000002  1.0000
  H   H865      1.0  0.759  0.027769999999999954  0.36331  1.0000
  H   H866      1.0  0.036159999999999914  0.6090399999999998  0.33827  1.0000
  H   H867      1.0  0.42513  0.47049  0.71498  1.0000
  H   H868      1.0  0.42703  0.39101  0.22908  1.0000
  H   H869      1.0  0.48980999999999997  0.3909799999999999  0.29006  1.0000
  H   H870      1.0  0.21222999999999995  0.2748499999999999  0.98236  1.0000
  H   H871      1.0  0.4639300000000001  0.80214  0.57283  1.0000
  H   H872      1.0  0.83808  0.72925  0.8021599999999999  1.0000
  H   H873      1.0  0.11948000000000002  0.82733  0.51437  1.0000
  H   H874      1.0  0.11465999999999997  0.16638999999999995  0.07259  1.0000
  H   H875      1.0  0.71025  0.25552  0.28504  1.0000
  H   H876      1.0  0.6345  0.26884  0.3845  1.0000
  H   H877      1.0  0.41444  0.86125  0.79819  1.0000
  H   H878      1.0  0.22798  0.18242999999999998  0.41813  1.0000
  H   H879      1.0  0.72921  0.8380399999999999  0.30213  1.0000
  H   H880      1.0  0.7969600000000001  0.00706000000000003  0.87854  1.0000
  H   H881      1.0  0.42744  0.09375999999999995  0.54212  1.0000
  H   H882      1.0  0.053289999999999955  0.6163499999999997  0.41453  1.0000
  H   H883      1.0  0.39097  0.4898099999999999  0.79006  1.0000
  H   H884      1.0  0.51757  0.29245000000000004  0.72985  1.0000
  H   H885      1.0  0.19969000000000003  0.59893  0.98991  1.0000
  H   H886      1.0  0.5607900000000001  0.7970999999999998  0.42506  1.0000
  H   H887      1.0  0.86081  0.25419  0.39033  1.0000
  H   H888      1.0  0.10403999999999997  0.48917  0.07172  1.0000
  C   C1        1.0  0.11372000000000002  0.94804  0.96782  1.0000
  C   C2        1.0  0.33441  0.009099999999999988  0.47049  1.0000
  C   C3        1.0  0.72768  0.86391  0.61388  1.0000
  C   C4        1.0  0.55995  0.93741  0.90502  1.0000
  C   C5        1.0  0.68594  0.49498  0.97109  1.0000
  C   C6        1.0  0.03620000000000001  0.61762  0.04289  1.0000
  C   C7        1.0  0.9306200000000002  0.5220599999999997  0.83782  1.0000
  C   C8        1.0  0.5067200000000001  0.042940000000000075  0.9253200000000001  1.0000
  C   C9        1.0  0.6489199999999998  0.8601099999999996  0.60386  1.0000
  C   C10       1.0  0.09153  0.90735  0.06949  1.0000
  C   C11       1.0  0.67478  0.009229999999999997  0.03865  1.0000
  C   C12       1.0  0.88238  0.4571099999999999  0.9637599999999998  1.0000
  C   C13       1.0  0.8294199999999999  0.5448499999999998  0.9835899999999999  1.0000
  C   C14       1.0  0.50499  0.19094999999999995  0.47616  1.0000
  C   C15       1.0  0.85409  0.51985  0.9679200000000001  1.0000
  C   C16       1.0  0.1408600000000001  0.25658000000000003  0.6750800000000001  1.0000
  C   C17       1.0  0.009229999999999969  0.67478  0.53866  1.0000
  C   C18       1.0  0.92833  0.6843099999999998  0.79793  1.0000
  C   C19       1.0  0.4789499999999999  0.96711  0.77406  1.0000
  C   C20       1.0  0.06938999999999995  0.47794999999999993  0.16218  1.0000
  C   C21       1.0  0.45707999999999993  0.8823599999999998  0.46374  1.0000
  C   C22       1.0  0.042919999999999986  0.50672  0.42532  1.0000
  C   C23       1.0  0.68899  0.9390300000000001  0.37811  1.0000
  C   C24       1.0  0.57169  0.20206999999999994  0.31569  1.0000
  C   C25       1.0  0.21482999999999988  0.1860199999999999  0.6908799999999999  1.0000
  C   C26       1.0  0.9449899999999999  0.70687  0.7686199999999999  1.0000
  C   C27       1.0  0.61757  0.58141  0.57464  1.0000
  C   C28       1.0  0.8342199999999999  0.9480699999999997  0.48012  1.0000
  C   C29       1.0  0.54293  0.11763999999999998  0.53626  1.0000
  C   C30       1.0  0.24007999999999996  0.23811999999999997  0.61571  1.0000
  C   C31       1.0  0.4835099999999999  0.6269799999999998  0.50203  1.0000
  C   C32       1.0  0.6269600000000002  0.48351  0.00204  1.0000
  C   C33       1.0  0.31574  0.33784  0.90718  1.0000
  C   C34       1.0  0.75624  0.71115  0.36004  1.0000
  C   C35       1.0  0.62231  0.73814  0.4980299999999999  1.0000
  C   C36       1.0  0.14894000000000002  0.60387  0.86012  1.0000
  C   C37       1.0  0.34496  0.4675699999999999  0.90502  1.0000
  C   C38       1.0  0.97783  0.31559  0.40848  1.0000
  C   C39       1.0  0.88655  0.70213  0.1305  1.0000
  C   C40       1.0  0.78885  0.13996999999999996  0.24376  1.0000
  C   C41       1.0  0.23810999999999996  0.29307  0.56167  1.0000
  C   C42       1.0  0.5450100000000001  0.39622  0.75618  1.0000
  C   C43       1.0  0.2618799999999999  0.8842699999999997  0.7599199999999999  1.0000
  C   C44       1.0  0.62488  0.64335  0.12695  1.0000
  C   C45       1.0  0.75002  0.06092000000000001  0.9391  1.0000
  C   C46       1.0  0.73811  0.17637999999999995  0.94506  1.0000
  C   C47       1.0  0.48016  0.14591  0.53211  1.0000
  C   C48       1.0  0.9185199999999999  0.3842999999999999  0.24333  1.0000
  C   C49       1.0  0.45706  0.57468  0.49327  1.0000
  C   C50       1.0  0.44601000000000024  0.42736  0.23136  1.0000
  C   C51       1.0  0.38621  0.03207  0.05194  1.0000
  C   C52       1.0  0.97606  0.2851199999999999  0.47113  1.0000
  C   C53       1.0  0.3156099999999999  0.97783  0.9085  1.0000
  C   C54       1.0  0.98145  0.35652  0.98353  1.0000
  C   C55       1.0  0.47606  0.47114  0.28512  1.0000
  C   C56       1.0  0.032359999999999924  0.4373999999999999  0.87739  1.0000
  C   C57       1.0  0.82954  0.28459  0.3458899999999999  1.0000
  C   C58       1.0  0.05193  0.16572  0.01977  1.0000
  C   C59       1.0  0.11354000000000002  0.81561  0.7439399999999999  1.0000
  C   C60       1.0  0.98123  0.42729999999999996  0.69586  1.0000
  C   C61       1.0  0.49803  0.12232  0.23814  1.0000
  C   C62       1.0  0.59283  0.16216  0.18427999999999997  1.0000
  C   C63       1.0  0.43062  0.83783  0.52204  1.0000
  C   C64       1.0  0.8695  0.61345  0.79786  1.0000
  C   C65       1.0  0.5295  0.16558  0.4909  1.0000
  C   C66       1.0  0.26864  0.20687999999999995  0.44499  1.0000
  C   C67       1.0  0.87568  0.25988  0.49798  1.0000
  C   C68       1.0  0.43834  0.26190999999999987  0.20694  1.0000
  C   C69       1.0  0.055020000000000006  0.29313  0.23139  1.0000
  C   C70       1.0  0.75993  0.76188  0.38429  1.0000
  C   C71       1.0  0.9480799999999998  0.8342899999999998  0.98023  1.0000
  C   C72       1.0  0.24334  0.41852  0.88428  1.0000
  C   C73       1.0  0.48356  0.43869  0.65412  1.0000
  C   C74       1.0  0.06261000000000004  0.44007000000000007  0.59498  1.0000
  C   C75       1.0  0.3252999999999999  0.33451999999999993  0.8639199999999999  1.0000
  C   C76       1.0  0.57264  0.554  0.26865  1.0000
  C   C77       1.0  0.48122  0.69586  0.42729  1.0000
  C   C78       1.0  0.8774  0.53235  0.93741  1.0000
  C   C79       1.0  0.2560700000000001  0.38648  0.68439  1.0000
  C   C80       1.0  0.3343099999999999  0.8542499999999997  0.88622  1.0000
  C   C81       1.0  0.20215000000000002  0.63051  0.88656  1.0000
  C   C82       1.0  0.9373999999999999  0.3773899999999999  0.03236  1.0000
  C   C83       1.0  0.4950199999999998  0.8090499999999996  0.52385  1.0000
  C   C84       1.0  0.8510699999999998  0.3961399999999999  0.13988  1.0000
  C   C85       1.0  0.045090000000000026  0.28891  0.14885  1.0000
  C   C86       1.0  0.79785  0.3695  0.11345  1.0000
  C   C87       1.0  0.19087999999999994  0.6860199999999997  0.71482  1.0000
  C   C88       1.0  0.37305000000000016  0.51649  0.99797  1.0000
  C   C89       1.0  0.5387  0.029519999999999994  0.86398  1.0000
  C   C90       1.0  0.49089999999999995  0.029509999999999956  0.6655999999999999  1.0000
  C   C91       1.0  0.29795  0.18432  0.42833  1.0000
  C   C92       1.0  0.87303  0.9979499999999999  0.51647  1.0000
  C   C93       1.0  0.9835299999999999  0.4814299999999999  0.85653  1.0000
  C   C94       1.0  0.70483  0.69293  0.22594000000000003  1.0000
  C   C95       1.0  0.12444  0.38437  0.12247  1.0000
  C   C96       1.0  0.58148  0.75667  0.6157  1.0000
  C   C97       1.0  0.44805999999999996  0.46794999999999987  0.11379  1.0000
  C   C98       1.0  0.3039299999999999  0.78536  0.7313899999999999  1.0000
  C   C99       1.0  0.77411  0.79524  0.8070899999999999  1.0000
  C   C100      1.0  0.29786999999999997  0.11344999999999994  0.3695  1.0000
  C   C101      1.0  0.07159000000000001  0.75599  0.3696  1.0000
  C   C102      1.0  0.028890000000000013  0.81412  0.00506  1.0000
  C   C103      1.0  0.49797  0.016480000000000015  0.87303  1.0000
  C   C104      1.0  0.83455  0.3639199999999999  0.32531  1.0000
  C   C105      1.0  0.12433000000000001  0.74012  0.50202  1.0000
  C   C106      1.0  0.0745  0.0813  0.11771  1.0000
  C   C107      1.0  0.3862399999999999  0.6137799999999998  0.25  1.0000
  C   C108      1.0  0.37505  0.01847  0.00206  1.0000
  C   C109      1.0  0.15406999999999996  0.9386899999999999  0.98352  1.0000
  C   C110      1.0  0.9980399999999999  0.23814  0.12232  1.0000
  C   C111      1.0  0.2619099999999999  0.4383399999999999  0.7069399999999999  1.0000
  C   C112      1.0  0.36011  0.10386  0.64892  1.0000
  C   C113      1.0  0.96574  0.32486  0.08143  1.0000
  C   C114      1.0  0.97894  0.77411  0.96713  1.0000
  C   C115      1.0  0.1842499999999999  0.09282999999999995  0.6621699999999999  1.0000
  C   C116      1.0  0.59151  0.52217  0.1844  1.0000
  C   C117      1.0  0.4253499999999999  0.8824099999999998  0.91861  1.0000
  C   C118      1.0  0.2562599999999999  0.36005  0.71116  1.0000
  C   C119      1.0  0.94506  0.23811999999999992  0.67639  1.0000
  C   C120      1.0  0.68906  0.7500099999999997  0.81096  1.0000
  C   C121      1.0  0.8090400000000002  0.49502  0.02387  1.0000
  C   C122      1.0  0.16545999999999983  0.6360899999999997  0.6746899999999999  1.0000
  C   C123      1.0  0.88625  0.8343  0.35422999999999993  1.0000
  C   C124      1.0  0.17469999999999994  0.13609999999999994  0.66549  1.0000
  C   C125      1.0  0.7599  0.99799  0.87567  1.0000
  C   C126      1.0  0.12261  0.46765999999999996  0.06259  1.0000
  C   C127      1.0  0.36398  0.52954  0.03869  1.0000
  C   C128      1.0  0.11763  0.5429  0.03624  1.0000
  C   C129      1.0  0.78891  0.6488399999999998  0.04508  1.0000
  C   C130      1.0  0.70688  0.94499  0.26862  1.0000
  C   C131      1.0  0.38656000000000007  0.1305  0.70215  1.0000
  C   C132      1.0  0.59156  0.06945000000000003  0.90733  1.0000
  C   C133      1.0  0.50673  0.46388  0.08144  1.0000
  C   C134      1.0  0.76859  0.71462  0.19606  1.0000
  C   C135      1.0  0.76189  0.05494999999999998  0.82362  1.0000
  C   C136      1.0  0.94601  0.23135999999999998  0.42736  1.0000
  C   C137      1.0  0.023860000000000034  0.30904000000000004  0.99502  1.0000
  C   C138      1.0  0.52386  0.99501  0.30904  1.0000
  C   C139      1.0  0.74384  0.10379  0.955  1.0000
  C   C140      1.0  0.41863  0.3824399999999999  0.92535  1.0000
  C   C141      1.0  0.2619  0.82363  0.05495  1.0000
  C   C142      1.0  0.28458  0.82953  0.84586  1.0000
  C   C143      1.0  0.18439999999999998  0.8864599999999998  0.75606  1.0000
  C   C144      1.0  0.43845  0.1765499999999999  0.73155  1.0000
  C   C145      1.0  0.4778299999999999  0.4084899999999999  0.3156  1.0000
  C   C146      1.0  0.044880000000000024  0.56126  0.71549  1.0000
  C   C147      1.0  0.14573999999999993  0.6656899999999998  0.61374  1.0000
  C   C148      1.0  0.46130999999999994  0.9704799999999998  0.13602  1.0000
  C   C149      1.0  0.5814799999999999  0.9638999999999998  0.00676  1.0000
  C   C150      1.0  0.5693899999999998  0.16216999999999998  0.47796999999999995  1.0000
  C   C151      1.0  0.07466000000000002  0.99324  0.45708  1.0000
  C   C152      1.0  0.6656  0.9909  0.52951  1.0000
  C   C153      1.0  0.21536000000000002  0.15405  0.17045  1.0000
  C   C154      1.0  0.81407  0.02890999999999999  0.50503  1.0000
  C   C155      1.0  0.05197000000000001  0.88623  0.53208  1.0000
  C   C156      1.0  0.69583  0.48121  0.92729  1.0000
  C   C157      1.0  0.82533  0.9614  0.99092  1.0000
  C   C158      1.0  0.46793  0.019850000000000003  0.3541  1.0000
  C   C159      1.0  0.022180000000000012  0.68441  0.59152  1.0000
  C   C160      1.0  0.17058999999999994  0.4551499999999999  0.01642  1.0000
  C   C161      1.0  0.69297  0.7048400000000001  0.7259700000000001  1.0000
  C   C162      1.0  0.93845  0.7315399999999997  0.17654  1.0000
  C   C163      1.0  0.20694000000000007  0.9383199999999999  0.7619  1.0000
  C   C164      1.0  0.53866  0.50923  0.17477  1.0000
  C   C165      1.0  0.76864  0.054  0.07264  1.0000
  C   C166      1.0  0.021069999999999978  0.22589999999999993  0.03287  1.0000
  C   C167      1.0  0.12698  0.002060000000000002  0.48353  1.0000
  C   C168      1.0  0.19097  0.50499  0.97614  1.0000
  C   C169      1.0  0.5362400000000003  0.04288000000000003  0.61762  1.0000
  C   C170      1.0  0.5165  0.37303  0.49798  1.0000
  C   C171      1.0  0.19583999999999996  0.92731  0.48122  1.0000
  C   C172      1.0  0.2889200000000001  0.04509000000000008  0.6488500000000001  1.0000
  C   C173      1.0  0.53427  0.9185800000000001  0.67514  1.0000
  C   C174      1.0  0.196  0.26851  0.21457  1.0000
  C   C175      1.0  0.76188  0.7599299999999997  0.8842899999999999  1.0000
  C   C176      1.0  0.08138000000000005  0.006830000000000009  0.96369  1.0000
  C   C177      1.0  0.52206  0.93061  0.33780999999999994  1.0000
  C   C178      1.0  0.44809999999999994  0.9801199999999999  0.8342300000000001  1.0000
  C   C179      1.0  0.62697  0.14336999999999997  0.1249  1.0000
  C   C180      1.0  0.455  0.60378  0.24382000000000004  1.0000
  C   C181      1.0  0.8862900000000002  0.051959999999999985  0.03218  1.0000
  C   C182      1.0  0.7314299999999999  0.8039499999999996  0.28538  1.0000
  C   C183      1.0  0.8459400000000002  0.06132  0.01649  1.0000
  C   C184      1.0  0.3248599999999999  0.9657299999999999  0.58142  1.0000
  C   C185      1.0  0.93833  0.20694  0.2619  1.0000
  C   C186      1.0  0.25001  0.88623  0.11377999999999999  1.0000
  C   C187      1.0  0.10386000000000001  0.3601  0.14892  1.0000
  C   C188      1.0  0.7559899999999999  0.07158999999999993  0.8695999999999999  1.0000
  C   C189      1.0  0.63609  0.88613  0.27232  1.0000
  C   C190      1.0  0.47615  0.0049900000000000205  0.69097  1.0000
  C   C191      1.0  0.46382999999999996  0.50671  0.58143  1.0000
  C   C192      1.0  0.48152  0.49792999999999993  0.6249399999999999  1.0000
  C   C193      1.0  0.8343699999999998  0.88632  0.85419  1.0000
  C   C194      1.0  0.9255099999999999  0.9186999999999997  0.88229  1.0000
  C   C195      1.0  0.44006  0.06259999999999999  0.09497999999999998  1.0000
  C   C196      1.0  0.26855  0.07260999999999997  0.05396  1.0000
  C   C197      1.0  0.98353  0.5020399999999999  0.62698  1.0000
  C   C198      1.0  0.9186199999999999  0.9253599999999997  0.38243  1.0000
  C   C199      1.0  0.09148999999999999  0.18436999999999995  0.52215  1.0000
  C   C200      1.0  0.16219  0.5693899999999998  0.9779400000000001  1.0000
  C   C201      1.0  0.46574  0.08143  0.32486  1.0000
  C   C202      1.0  0.67059  0.016430000000000007  0.45516  1.0000
  C   C203      1.0  0.12689  0.12477  0.14346  1.0000
  C   C204      1.0  0.09503  0.94007  0.56261  1.0000
  C   C205      1.0  0.46712  0.27406  0.47897  1.0000
  C   C206      1.0  0.52954  0.36398  0.53871  1.0000
  C   C207      1.0  0.9979300000000001  0.8731  0.01665  1.0000
  C   C208      1.0  0.9085199999999999  0.8156299999999997  0.47785  1.0000
  C   C209      1.0  0.55191  0.019879999999999995  0.16577  1.0000
  C   C210      1.0  0.8110000000000002  0.6218899999999998  0.06097  1.0000
  C   C211      1.0  0.30418  0.5188  0.07271  1.0000
  C   C212      1.0  0.11564000000000002  0.37754  0.87558  1.0000
  C   C213      1.0  0.21109999999999998  0.3511699999999999  0.9549299999999998  1.0000
  C   C214      1.0  0.8449299999999998  0.905  0.46755  1.0000
  C   C215      1.0  0.12486999999999994  0.12697  0.64336  1.0000
  C   C216      1.0  0.11759  0.57463  0.58138  1.0000
  C   C217      1.0  0.032899999999999985  0.52104  0.72594  1.0000
  C   C218      1.0  0.2500200000000001  0.3109700000000001  0.6890500000000002  1.0000
  C   C219      1.0  0.69088  0.71484  0.68603  1.0000
  C   C220      1.0  0.50208  0.51848  0.87507  1.0000
  C   C221      1.0  0.49076999999999993  0.4613499999999998  0.32522  1.0000
  C   C222      1.0  0.011829999999999992  0.70484  0.4789  1.0000
  C   C223      1.0  0.79312  0.73137  0.055009999999999996  1.0000
  C   C224      1.0  0.13991  0.35109  0.89615  1.0000
  C   C225      1.0  0.6137700000000001  0.38623  0.75  1.0000
  C   C226      1.0  0.6763800000000001  0.44505  0.73812  1.0000
  C   C227      1.0  0.91863  0.9931799999999997  0.03631  1.0000
  C   C228      1.0  0.6656999999999998  0.14575999999999995  0.11377999999999999  1.0000
  C   C229      1.0  0.9950299999999999  0.52386  0.80905  1.0000
  C   C230      1.0  0.7740699999999999  0.9789399999999998  0.46711  1.0000
  C   C231      1.0  0.54488  0.7154899999999997  0.56125  1.0000
  C   C232      1.0  0.47114  0.47605999999999987  0.7851199999999999  1.0000
  C   C233      1.0  0.004979999999999977  0.47614  0.19096  1.0000
  C   C234      1.0  0.11345999999999999  0.29787  0.86951  1.0000
  C   C235      1.0  0.36004  0.25625  0.21115  1.0000
  C   C236      1.0  0.63051  0.20214999999999994  0.38655  1.0000
  C   C237      1.0  0.41858  0.17514  0.53428  1.0000
  C   C238      1.0  0.32363  0.55495  0.26189  1.0000
  C   C239      1.0  0.04485999999999996  0.4835699999999999  0.82942  1.0000
  C   C240      1.0  0.71463  0.76859  0.69606  1.0000
  C   C241      1.0  0.88612  0.63609  0.77232  1.0000
  C   C242      1.0  0.061680000000000075  0.79307  0.7381  1.0000
  C   C243      1.0  0.66216  0.6842499999999999  0.59283  1.0000
  C   C244      1.0  0.9049800000000001  0.05994  0.43739  1.0000
  C   C245      1.0  0.63603  0.47047  0.96132  1.0000
  C   C246      1.0  0.46135000000000004  0.49077000000000004  0.82523  1.0000
  C   C247      1.0  0.55391  0.9813  0.28537  1.0000
  C   C248      1.0  0.68431  0.92833  0.29793  1.0000
  C   C249      1.0  0.74332  0.88429  0.41851  1.0000
  C   C250      1.0  0.5221799999999999  0.5915099999999998  0.6843999999999999  1.0000
  C   C251      1.0  0.25001999999999996  0.36384  0.63618  1.0000
  C   C252      1.0  0.6157200000000003  0.74008  0.73812  1.0000
  C   C253      1.0  0.34516000000000013  0.87749  0.94007  1.0000
  C   C254      1.0  0.19304000000000002  0.46711  0.98819  1.0000
  C   C255      1.0  0.5020400000000003  0.9835299999999999  0.12697  1.0000
  C   C256      1.0  0.3541  0.9679099999999998  0.51984  1.0000
  C   C257      1.0  0.7381000000000001  0.56167  0.29307  1.0000
  C   C258      1.0  0.17468  0.03859999999999999  0.00909  1.0000
  C   C259      1.0  0.51849  0.50207  0.37506  1.0000
  C   C260      1.0  0.0813899999999999  0.07463999999999989  0.6175799999999999  1.0000
  C   C261      1.0  0.12483000000000002  0.9979000000000001  0.9813200000000001  1.0000
  C   C262      1.0  0.13610999999999995  0.27232999999999996  0.88613  1.0000
  C   C263      1.0  0.85651  0.48350999999999994  0.9814199999999998  1.0000
  C   C264      1.0  0.85427  0.33432  0.38625999999999994  1.0000
  C   C265      1.0  0.07263  0.26862  0.55398  1.0000
  C   C266      1.0  0.4551299999999999  0.28450999999999993  0.43876  1.0000
  C   C267      1.0  0.74401  0.13039999999999996  0.92842  1.0000
  C   C268      1.0  0.88429  0.26188  0.25992  1.0000
  C   C269      1.0  0.6157699999999999  0.5343299999999997  0.85924  1.0000
  C   C270      1.0  0.34588  0.01642999999999999  0.061309999999999996  1.0000
  C   C271      1.0  0.12247999999999998  0.62444  0.88438  1.0000
  C   C272      1.0  0.68439  0.7560499999999998  0.88647  1.0000
  C   C273      1.0  0.018780000000000012  0.57271  0.30415  1.0000
  C   C274      1.0  0.94804  0.11378  0.46792  1.0000
  C   C275      1.0  0.26845  0.06155000000000001  0.32345  1.0000
  C   C276      1.0  0.06097999999999999  0.311  0.12188999999999998  1.0000
  C   C277      1.0  0.2561699999999999  0.8962099999999997  0.045  1.0000
  C   C278      1.0  0.28518  0.3091399999999999  0.81399  1.0000
  C   C279      1.0  0.9386799999999997  0.15411999999999995  0.48356  1.0000
  C   C280      1.0  0.27405  0.80704  0.79516  1.0000
  C   C281      1.0  0.50911  0.9705  0.33441  1.0000
  C   C282      1.0  0.51181  0.03290000000000002  0.30698  1.0000
  C   C283      1.0  0.64884  0.78891  0.54508  1.0000
  C   C284      1.0  0.47047000000000005  0.63603  0.46129000000000003  1.0000
  C   C285      1.0  0.7315599999999999  0.9384599999999998  0.6765499999999999  1.0000
  C   C286      1.0  0.41853  0.03610999999999995  0.99325  1.0000
  C   C287      1.0  0.05993000000000005  0.15489000000000006  0.62253  1.0000
  C   C288      1.0  0.3252299999999999  0.99078  0.96135  1.0000
  C   C289      1.0  0.006820000000000007  0.92548  0.04321  1.0000
  C   C290      1.0  0.22593999999999995  0.021059999999999943  0.5329  1.0000
  C   C291      1.0  0.042899999999999924  0.5362599999999997  0.11764  1.0000
  C   C292      1.0  0.9671100000000001  0.47896000000000005  0.27406  1.0000
  C   C293      1.0  0.26858  0.19605999999999996  0.71462  1.0000
  C   C294      1.0  0.5343300000000002  0.61577  0.35923999999999995  1.0000
  C   C295      1.0  0.64083  0.6750699999999997  0.25655  1.0000
  C   C296      1.0  0.37748  0.4400799999999999  0.34514  1.0000
  C   C297      1.0  0.52892  0.005019999999999955  0.81407  1.0000
  C   C298      1.0  0.15483  0.05985999999999998  0.12254  1.0000
  C   C299      1.0  0.6844  0.022170000000000002  0.0915  1.0000
  C   C300      1.0  0.51858  0.016480000000000015  0.64349  1.0000
  C   C301      1.0  0.37812  0.18898999999999994  0.43903  1.0000
  C   C302      1.0  0.57465  0.45703  0.99323  1.0000
  C   C303      1.0  0.37567  0.49798  0.25987  1.0000
  C   C304      1.0  0.21463000000000007  0.6960400000000001  0.7685700000000001  1.0000
  C   C305      1.0  0.18431999999999996  0.29793999999999987  0.92833  1.0000
  C   C306      1.0  0.50198  0.8776899999999997  0.76186  1.0000
  C   C307      1.0  0.18596  0.21475  0.19086  1.0000
  C   C308      1.0  0.51648  0.14348  0.51859  1.0000
  C   C309      1.0  0.5715899999999998  0.36961  0.756  1.0000
  C   C310      1.0  0.31407  0.50503  0.02891  1.0000
  C   C311      1.0  0.29515  0.98817  0.0211  1.0000
  C   C312      1.0  0.98013  0.44809999999999983  0.33422  1.0000
  C   C313      1.0  0.23814000000000002  0.99804  0.62232  1.0000
  C   C314      1.0  0.55495  0.32362999999999986  0.76189  1.0000
  C   C315      1.0  0.9671  0.4881899999999999  0.19301999999999997  1.0000
  C   C316      1.0  0.6654699999999999  0.6747099999999998  0.6361  1.0000
  C   C317      1.0  0.3861200000000001  0.7723199999999998  0.63609  1.0000
  C   C318      1.0  0.64591  0.03208999999999999  0.48016  1.0000
  C   C319      1.0  0.8751399999999999  0.8730399999999996  0.35665  1.0000
  C   C320      1.0  0.23138999999999993  0.5550099999999998  0.79312  1.0000
  C   C321      1.0  0.60386  0.14892  0.36011  1.0000
  C   C322      1.0  0.034330000000000006  0.35924999999999996  0.61577  1.0000
  C   C323      1.0  0.4679400000000001  0.44806000000000007  0.61379  1.0000
  C   C324      1.0  0.17654999999999998  0.4384599999999999  0.23155  1.0000
  C   C325      1.0  0.9932599999999999  0.9185599999999996  0.53609  1.0000
  C   C326      1.0  0.36384  0.25001  0.13618  1.0000
  C   C327      1.0  0.18433  0.09147999999999998  0.02209  1.0000
  C   C328      1.0  0.11570999999999998  0.25664  0.08147  1.0000
  C   C329      1.0  0.3843  0.91852  0.74333  1.0000
  C   C330      1.0  0.89615  0.6399  0.85108  1.0000
  C   C331      1.0  0.8696099999999999  0.2559999999999999  0.57159  1.0000
  C   C332      1.0  0.62496  0.98153  0.99794  1.0000
  C   C333      1.0  0.61389  0.22767999999999994  0.36391  1.0000
  C   C334      1.0  0.80697  0.53289  0.011810000000000001  1.0000
  C   C335      1.0  0.20206999999999994  0.57167  0.8156899999999999  1.0000
  C   C336      1.0  0.8601000000000003  0.64891  0.10385  1.0000
  C   C337      1.0  0.95492  0.71109  0.85115  1.0000
  C   C338      1.0  0.02205999999999999  0.33782  0.93062  1.0000
  C   C339      1.0  0.36961  0.5715899999999998  0.25599  1.0000
  C   C340      1.0  0.9570799999999999  0.4932799999999999  0.57468  1.0000
  C   C341      1.0  0.07267999999999994  0.80421  0.01879  1.0000
  C   C342      1.0  0.69608  0.21464000000000003  0.26861  1.0000
  C   C343      1.0  0.4979299999999999  0.4815199999999999  0.12493999999999998  1.0000
  C   C344      1.0  0.9273800000000001  0.7313899999999999  0.4460200000000001  1.0000
  C   C345      1.0  0.13618  0.86382  0.75  1.0000
  C   C346      1.0  0.60378  0.45499  0.74383  1.0000
  C   C347      1.0  0.29312999999999995  0.05500999999999996  0.7313899999999999  1.0000
  C   C348      1.0  0.97047  0.46130000000000004  0.63603  1.0000
  C   C349      1.0  0.1763699999999999  0.7381099999999998  0.44504999999999995  1.0000
  C   C350      1.0  0.053999999999999986  0.76864  0.57264  1.0000
  C   C351      1.0  0.7110899999999998  0.9549199999999998  0.35115  1.0000
  C   C352      1.0  0.09279999999999995  0.18419999999999995  0.16218  1.0000
  C   C353      1.0  0.53243  0.65504  0.59495  1.0000
  C   C354      1.0  0.96765  0.5626  0.12261000000000001  1.0000
  C   C355      1.0  0.35666999999999993  0.3751199999999999  0.3730399999999999  1.0000
  C   C356      1.0  0.54294  0.42533  0.50674  1.0000
  C   C357      1.0  0.30704  0.29516  0.27403  1.0000
  C   C358      1.0  0.67656  0.23155  0.43845  1.0000
  C   C359      1.0  0.7951799999999999  0.7740499999999999  0.30705999999999994  1.0000
  C   C360      1.0  0.71543  0.17047  0.15414  1.0000
  C   C361      1.0  0.6399  0.8961499999999998  0.35108  1.0000
  C   C362      1.0  0.5239499999999999  0.5288699999999997  0.71489  1.0000
  C   C363      1.0  0.73813  0.11573  0.24008  1.0000
  C   C364      1.0  0.06090999999999999  0.74999  0.43908  1.0000
  C   C365      1.0  0.20479  0.97888  0.01179  1.0000
  C   C366      1.0  0.50924  0.53866  0.67478  1.0000
  C   C367      1.0  0.24010999999999996  0.002019999999999995  0.12432999999999998  1.0000
  C   C368      1.0  0.96758  0.40505  0.34495  1.0000
  C   C369      1.0  0.35924  0.03432000000000001  0.11577  1.0000
  C   C370      1.0  0.70206  0.81568  0.57167  1.0000
  C   C371      1.0  0.88437  0.62246  0.12442  1.0000
  C   C372      1.0  0.48143  0.98352  0.35652  1.0000
  C   C373      1.0  0.85115  0.45492  0.21109  1.0000
  C   C374      1.0  0.3342399999999998  0.48013999999999984  0.9480899999999999  1.0000
  C   C375      1.0  0.43739999999999996  0.4050199999999999  0.55994  1.0000
  C   C376      1.0  0.99791  0.12491999999999998  0.48151  1.0000
  C   C377      1.0  0.5211099999999997  0.48818  0.79515  1.0000
  C   C378      1.0  0.73137  0.79312  0.55501  1.0000
  C   C379      1.0  0.1656  0.52951  0.99089  1.0000
  C   C380      1.0  0.97889  0.20484  0.51182  1.0000
  C   C381      1.0  0.4273  0.98121  0.19585  1.0000
  C   C382      1.0  0.14592  0.48016  0.03209  1.0000
  C   C383      1.0  0.005029999999999883  0.5289199999999997  0.31406999999999996  1.0000
  C   C384      1.0  0.93874  0.7845799999999998  0.95517  1.0000
  C   C385      1.0  0.6176  0.03620999999999999  0.54287  1.0000
  C   C386      1.0  0.13997  0.78884  0.74375  1.0000
  C   C387      1.0  0.82486  0.5814199999999998  0.96573  1.0000
  C   C388      1.0  0.7069299999999998  0.7618999999999998  0.9383299999999999  1.0000
  C   C389      1.0  0.002079999999999955  0.12689999999999993  0.9833599999999999  1.0000
  C   C390      1.0  0.8591499999999999  0.7434299999999998  0.32492  1.0000
  C   C391      1.0  0.42737  0.44600999999999996  0.73135  1.0000
  C   C392      1.0  0.29307999999999995  0.23810999999999993  0.06167  1.0000
  C   C393      1.0  0.8234600000000002  0.56155  0.76845  1.0000
  C   C394      1.0  0.22769999999999999  0.61389  0.86391  1.0000
  C   C395      1.0  0.51988  0.6657799999999998  0.5519  1.0000
  C   C396      1.0  0.46758  0.34496  0.40505  1.0000
  C   C397      1.0  0.029539999999999914  0.5386999999999997  0.3639800000000001  1.0000
  C   C398      1.0  0.5626000000000001  0.9676500000000001  0.62261  1.0000
  C   C399      1.0  0.7499899999999999  0.6890399999999998  0.31095  1.0000
  C   C400      1.0  0.56945  0.4073199999999999  0.59158  1.0000
  C   C401      1.0  0.3862499999999999  0.3542499999999999  0.83432  1.0000
  C   C402      1.0  0.4789  0.51182  0.20485  1.0000
  C   C403      1.0  0.55992  0.6225199999999997  0.15483999999999998  1.0000
  C   C404      1.0  0.77231  0.38612  0.13609  1.0000
  C   C405      1.0  0.18901000000000004  0.37812000000000007  0.9390300000000001  1.0000
  C   C406      1.0  0.27408  0.46711999999999987  0.97895  1.0000
  C   C407      1.0  0.43055999999999994  0.5926799999999998  0.40842  1.0000
  C   C408      1.0  0.79522  0.021119999999999986  0.98821  1.0000
  C   C409      1.0  0.97051  0.50912  0.83443  1.0000
  C   C410      1.0  0.11571999999999999  0.73812  0.74008  1.0000
  C   C411      1.0  0.49498000000000003  0.68594  0.47107  1.0000
  C   C412      1.0  0.51879  0.30415  0.57271  1.0000
  C   C413      1.0  0.33781  0.02204999999999999  0.43061  1.0000
  C   C414      1.0  0.39615  0.85108  0.63989  1.0000
  C   C415      1.0  0.06261000000000001  0.62262  0.96765  1.0000
  C   C416      1.0  0.98015  0.53209  0.1459  1.0000
  C   C417      1.0  0.5323700000000002  0.8774  0.43739  1.0000
  C   C418      1.0  0.5329000000000003  0.8069799999999998  0.5118  1.0000
  C   C419      1.0  0.16579  0.05193000000000001  0.51988  1.0000
  C   C420      1.0  0.95515  0.51643  0.17058  1.0000
  C   C421      1.0  0.56098  0.12189999999999994  0.31100999999999995  1.0000
  C   C422      1.0  0.12190999999999999  0.56098  0.81102  1.0000
  C   C423      1.0  0.8842999999999999  0.74337  0.91853  1.0000
  C   C424      1.0  0.98818  0.2951699999999999  0.5211  1.0000
  C   C425      1.0  0.74348  0.85919  0.82495  1.0000
  C   C426      1.0  0.0021000000000000025  0.87508  0.51849  1.0000
  C   C427      1.0  0.37753999999999993  0.11562999999999997  0.37556  1.0000
  C   C428      1.0  0.63617  0.74999  0.86383  1.0000
  C   C429      1.0  0.25653  0.14081  0.17505  1.0000
  C   C430      1.0  0.15507999999999997  0.09499999999999995  0.53245  1.0000
  C   C431      1.0  0.40734  0.56945  0.09155000000000002  1.0000
  C   C432      1.0  0.53208  0.9801499999999999  0.6459  1.0000
  C   C433      1.0  0.78538  0.30397  0.23143  1.0000
  C   C434      1.0  0.85927  0.11577  0.03433  1.0000
  C   C435      1.0  0.6225299999999999  0.5599199999999998  0.65486  1.0000
  C   C436      1.0  0.002020000000000032  0.24011  0.62434  1.0000
  C   C437      1.0  0.32492  0.3591599999999999  0.24344  1.0000
  C   C438      1.0  0.9813  0.5539  0.78538  1.0000
  C   C439      1.0  0.48818  0.52111  0.29516  1.0000
  C   C440      1.0  0.9072099999999998  0.8157999999999997  0.83782  1.0000
  C   C441      1.0  0.20688999999999988  0.2686299999999998  0.9449899999999999  1.0000
  C   C442      1.0  0.7561899999999998  0.04501999999999994  0.8962199999999999  1.0000
  C   C443      1.0  0.46377000000000007  0.95712  0.38239  1.0000
  C   C444      1.0  0.69302  0.9881899999999998  0.46709999999999996  1.0000
  C   C445      1.0  0.62247  0.88438  0.62444  1.0000
  C   C446      1.0  0.56131  0.51643  0.84587  1.0000
  C   C447      1.0  0.8458799999999999  0.7845799999999998  0.32953  1.0000
  C   C448      1.0  0.36391  0.83452  0.82528  1.0000
  C   C449      1.0  0.85667  0.37305  0.37514  1.0000
  C   C450      1.0  0.35426  0.38624  0.33431  1.0000
  C   C451      1.0  0.56126  0.04486999999999997  0.21549  1.0000
  C   C452      1.0  0.67509  0.64085  0.75657  1.0000
  C   C453      1.0  0.34588999999999986  0.32954999999999995  0.7845999999999999  1.0000
  C   C454      1.0  0.08143  0.46573  0.82486  1.0000
  C   C455      1.0  0.6157100000000001  0.08148  0.25667  1.0000
  C   C456      1.0  0.86004  0.21115999999999996  0.25625  1.0000
  C   C457      1.0  0.12252000000000002  0.65486  0.5599  1.0000
  C   C458      1.0  0.24381999999999995  0.95499  0.10378  1.0000
  C   C459      1.0  0.62434  0.50202  0.74013  1.0000
  C   C460      1.0  0.79794  0.42833  0.18432000000000004  1.0000
  C   C461      1.0  0.75656  0.17509  0.14085  1.0000
  C   C462      1.0  0.38429  0.25992  0.26188  1.0000
  C   C463      1.0  0.83786  0.40719  0.31578  1.0000
  C   C464      1.0  0.41853  0.24333999999999995  0.3843  1.0000
  C   C465      1.0  0.7314600000000001  0.9273899999999998  0.9460500000000001  1.0000
  C   C466      1.0  0.11577999999999992  0.85923  0.53432  1.0000
  C   C467      1.0  0.03427  0.67514  0.91857  1.0000
  C   C468      1.0  0.061330000000000016  0.84588  0.51645  1.0000
  C   C469      1.0  0.2845300000000001  0.45514  0.93874  1.0000
  C   C470      1.0  0.40503  0.4373999999999999  0.05994  1.0000
  C   C471      1.0  0.52106  0.03289000000000002  0.22594000000000003  1.0000
  C   C472      1.0  0.23141999999999993  0.28538  0.80395  1.0000
  C   C473      1.0  0.50202  0.62433  0.24011  1.0000
  C   C474      1.0  0.59498  0.5626  0.9400599999999999  1.0000
  C   C475      1.0  0.44506  0.67638  0.23811  1.0000
  C   C476      1.0  0.8639  0.72767  0.11388000000000001  1.0000
  C   C477      1.0  0.8378199999999998  0.4306199999999999  0.022069999999999996  1.0000
  C   C478      1.0  0.14333999999999997  0.62695  0.6248599999999999  1.0000
  C   C479      1.0  0.56167  0.7381  0.79307  1.0000
  C   C480      1.0  0.11388999999999996  0.3639199999999999  0.22769  1.0000
  C   C481      1.0  0.15413  0.21542999999999998  0.67047  1.0000
  C   C482      1.0  0.44498999999999994  0.7686199999999997  0.70688  1.0000
  C   C483      1.0  0.01181  0.30697  0.0329  1.0000
  C   C484      1.0  0.6399699999999999  0.74376  0.78885  1.0000
  C   C485      1.0  0.023949999999999992  0.71488  0.52887  1.0000
  C   C486      1.0  0.10377999999999991  0.74382  0.45498999999999995  1.0000
  C   C487      1.0  0.29517999999999994  0.3070699999999999  0.77406  1.0000
  C   C488      1.0  0.71483  0.69087  0.18601  1.0000
  C   C489      1.0  0.75667  0.58148  0.11572  1.0000
  C   C490      1.0  0.6622  0.9779499999999998  0.5694  1.0000
  C   C491      1.0  0.2559999999999999  0.8696099999999996  0.07158  1.0000
  C   C492      1.0  0.21115999999999996  0.86003  0.75625  1.0000
  C   C493      1.0  0.25669  0.11572000000000002  0.58149  1.0000
  C   C494      1.0  0.7259299999999999  0.53289  0.02106  1.0000
  C   C495      1.0  0.82492  0.24343999999999993  0.35917  1.0000
  C   C496      1.0  0.32345000000000007  0.76845  0.56155  1.0000
  C   C497      1.0  0.56261  0.59499  0.44006  1.0000
  C   C498      1.0  0.4551599999999999  0.17058999999999994  0.51645  1.0000
  C   C499      1.0  0.9711199999999999  0.18588999999999992  0.99494  1.0000
  C   C500      1.0  0.25992999999999994  0.3842899999999999  0.76188  1.0000
  C   C501      1.0  0.38648  0.25606  0.18438999999999997  1.0000
  C   C502      1.0  0.90848  0.09265  0.93051  1.0000
  C   C503      1.0  0.49328  0.5361199999999999  0.91857  1.0000
  C   C504      1.0  0.28538  0.053899999999999976  0.48129999999999995  1.0000
  C   C505      1.0  0.43875  0.95513  0.78452  1.0000
  C   C506      1.0  0.061269999999999984  0.21542999999999995  0.04483  1.0000
  C   C507      1.0  0.018490000000000003  0.37506  0.50207  1.0000
  C   C508      1.0  0.038649999999999955  0.8640199999999998  0.02963  1.0000
  C   C509      1.0  0.45492  0.85115  0.71109  1.0000
  C   C510      1.0  0.2259  0.20476  0.19290999999999997  1.0000
  C   C511      1.0  0.40504000000000007  0.96757  0.84495  1.0000
  C   C512      1.0  0.64077  0.9656899999999998  0.88423  1.0000
  C   C513      1.0  0.23811999999999992  0.9450499999999997  0.17637999999999998  1.0000
  C   C514      1.0  0.78465  0.8459499999999998  0.82955  1.0000
  C   C515      1.0  0.9815200000000001  0.6249499999999998  0.49793999999999994  1.0000
  C   C516      1.0  0.3843700000000001  0.12442999999999993  0.62247  1.0000
  C   C517      1.0  0.67047  0.65413  0.71542  1.0000
  C   C518      1.0  0.49798  0.37567  0.75989  1.0000
  C   C519      1.0  0.7853700000000001  0.4813  0.05390000000000001  1.0000
  C   C520      1.0  0.35117  0.21109  0.45492  1.0000
  C   C521      1.0  0.18904000000000012  0.81095  0.75  1.0000
  C   C522      1.0  0.3777  0.26187  0.50197  1.0000
  C   C523      1.0  0.4071799999999999  0.8378399999999998  0.81572  1.0000
  C   C524      1.0  0.33453000000000005  0.32528999999999997  0.36389999999999995  1.0000
  C   C525      1.0  0.5746599999999998  0.11759999999999998  0.08138999999999999  1.0000
  C   C526      1.0  0.03863999999999998  0.17474999999999993  0.50922  1.0000
  C   C527      1.0  0.47109  0.9949799999999998  0.18594  1.0000
  C   C528      1.0  0.1621499999999999  0.5928099999999998  0.6842199999999999  1.0000
  C   C529      1.0  0.32954  0.34588  0.28458  1.0000
  C   C530      1.0  0.36392  0.11387999999999994  0.72769  1.0000
  C   C531      1.0  0.009109999999999946  0.33440999999999993  0.9704999999999999  1.0000
  C   C532      1.0  0.24345  0.82492  0.85916  1.0000
  C   C533      1.0  0.62262  0.06261  0.46767  1.0000
  C   C534      1.0  0.7259599999999999  0.19296  0.20484  1.0000
  C   C535      1.0  0.006749999999999964  0.08144999999999995  0.46390999999999993  1.0000
  C   C536      1.0  0.4812899999999999  0.7853899999999998  0.55389  1.0000
  C   C537      1.0  0.1360300000000001  0.9613299999999999  0.47047000000000005  1.0000
  C   C538      1.0  0.4705099999999999  0.8344199999999998  0.5091  1.0000
  C   C539      1.0  0.68427  0.66217  0.09282  1.0000
  C   C540      1.0  0.31562  0.24395  0.11353  1.0000
  C   C541      1.0  0.21548999999999996  0.061269999999999936  0.54487  1.0000
  C   C542      1.0  0.7845200000000001  0.93873  0.45513  1.0000
  C   C543      1.0  0.4656800000000001  0.38423  0.64076  1.0000
  C   C544      1.0  0.6361  0.16549  0.17473  1.0000
  C   C545      1.0  0.5519499999999998  0.53205  0.88621  1.0000
  C   C546      1.0  0.87769  0.5019699999999998  0.26186  1.0000
  C   C547      1.0  0.50503  0.31407  0.52893  1.0000
  C   C548      1.0  0.8824200000000002  0.42537  0.41862  1.0000
  C   C549      1.0  0.54509  0.14885  0.28891  1.0000
  C   C550      1.0  0.26187  0.37769  0.00198  1.0000
  C   C551      1.0  0.81405  0.78526  0.80914  1.0000
  C   C552      1.0  0.48353000000000007  0.85653  0.48141  1.0000
  C   C553      1.0  0.65412  0.67046  0.21541  1.0000
  C   C554      1.0  0.01643000000000007  0.67059  0.95515  1.0000
  C   C555      1.0  0.80705  0.27405  0.29519  1.0000
  C   C556      1.0  0.37557000000000024  0.87753  0.61563  1.0000
  C   C557      1.0  0.5198500000000001  0.8541000000000001  0.46789  1.0000
  C   C558      1.0  0.24377  0.2888599999999999  0.63996  1.0000
  C   C559      1.0  0.62189  0.81101  0.56097  1.0000
  C   C560      1.0  0.70486  0.011839999999999986  0.9789  1.0000
  C   C561      1.0  0.03242999999999997  0.59496  0.65505  1.0000
  C   C562      1.0  0.8781  0.43903  0.18899  1.0000
  C   C563      1.0  0.06155999999999991  0.2684599999999999  0.8234599999999999  1.0000
  C   C564      1.0  0.44609999999999994  0.018699999999999987  0.71463  1.0000
  C   C565      1.0  0.032910000000000016  0.51181  0.80698  1.0000
  C   C566      1.0  0.016479999999999946  0.49796999999999986  0.37303  1.0000
  C   C567      1.0  0.83441  0.47049  0.00911  1.0000
  C   C568      1.0  0.53618  0.49329  0.41857  1.0000
  C   C569      1.0  0.40844999999999987  0.9305499999999998  0.09268  1.0000
  C   C570      1.0  0.21464  0.51871  0.9461  1.0000
  C   C571      1.0  0.82363  0.2618899999999999  0.55495  1.0000
  C   C572      1.0  0.6550499999999999  0.5324299999999997  0.09497999999999998  1.0000
  C   C573      1.0  0.64334  0.62489  0.62696  1.0000
  C   C574      1.0  0.9613599999999999  0.1359799999999999  0.9703699999999998  1.0000
  C   C575      1.0  0.31095  0.24999  0.18904  1.0000
  C   C576      1.0  0.55502  0.23138  0.29313  1.0000
  C   C577      1.0  0.30699  0.011809999999999935  0.5329  1.0000
  C   C578      1.0  0.97615  0.69096  0.00498  1.0000
  C   C579      1.0  0.81096  0.18906  0.25001  1.0000
  C   C580      1.0  0.87312  0.87523  0.85655  1.0000
  C   C581      1.0  0.47794999999999993  0.06938999999999998  0.6622  1.0000
  C   C582      1.0  0.84518  0.9401499999999998  0.87746  1.0000
  C   C583      1.0  0.35917999999999994  0.32493  0.74346  1.0000
  C   C584      1.0  0.74013  0.12433999999999998  0.00203  1.0000
  C   C585      1.0  0.67471  0.66548  0.13608  1.0000
  C   C586      1.0  0.029499999999999985  0.49088  0.16558  1.0000
  C   C587      1.0  0.51645  0.56131  0.34587999999999997  1.0000
  C   C588      1.0  0.3157  0.07168000000000002  0.70207  1.0000
  C   C589      1.0  0.53207  0.55195  0.38621  1.0000
  C   C590      1.0  0.71548  0.54486  0.06127  1.0000
  C   C591      1.0  0.96568  0.64076  0.38423  1.0000
  C   C592      1.0  0.80417  0.0727  0.51879  1.0000
  C   C593      1.0  0.59497  0.032430000000000014  0.15505  1.0000
  C   C594      1.0  0.86383  0.13618  0.25  1.0000
  C   C595      1.0  0.64349  0.01857999999999999  0.51648  1.0000
  C   C596      1.0  0.20483  0.22595  0.69294  1.0000
  C   C597      1.0  0.9638100000000004  0.38237999999999994  0.95711  1.0000
  C   C598      1.0  0.62444  0.12247999999999995  0.38438  1.0000
  C   C599      1.0  0.30904  0.023859999999999958  0.49500999999999995  1.0000
  C   C600      1.0  0.30913  0.28517  0.31398  1.0000
  C   C601      1.0  0.6137999999999999  0.9679399999999998  0.94806  1.0000
  C   C602      1.0  0.9273300000000001  0.19578999999999996  0.98121  1.0000
  C   C603      1.0  0.5288700000000002  0.52395  0.21488  1.0000
  C   C604      1.0  0.35109  0.1398899999999999  0.39614  1.0000
  C   C605      1.0  0.9613700000000002  0.82525  0.49079  1.0000
  C   C606      1.0  0.9461000000000003  0.71462  0.0187  1.0000
  C   C607      1.0  0.6909699999999999  0.9761499999999997  0.50499  1.0000
  C   C608      1.0  0.8156899999999999  0.7020599999999998  0.07167  1.0000
  C   C609      1.0  0.27233  0.13609  0.38612  1.0000
  C   C610      1.0  0.5448499999999998  0.8294099999999998  0.48355  1.0000
  C   C611      1.0  0.7400799999999998  0.6157099999999998  0.23812000000000003  1.0000
  C   C612      1.0  0.1929599999999999  0.7259499999999998  0.70481  1.0000
  C   C613      1.0  0.70214  0.8865499999999998  0.6305  1.0000
  C   C614      1.0  0.24999000000000002  0.93908  0.060899999999999996  1.0000
  C   C615      1.0  0.75  0.11376999999999998  0.88623  1.0000
  C   C616      1.0  0.66577  0.51986  0.05192  1.0000
  C   C617      1.0  0.9373999999999999  0.55994  0.40502  1.0000
  C   C618      1.0  0.17046999999999998  0.71542  0.65411  1.0000
  C   C619      1.0  0.87557  0.61563  0.87753  1.0000
  C   C620      1.0  0.68603  0.19088  0.21485  1.0000
  C   C621      1.0  0.6457499999999999  0.6137699999999998  0.66569  1.0000
  C   C622      1.0  0.61345  0.8694999999999999  0.29786  1.0000
  C   C623      1.0  0.14074  0.88424  0.96567  1.0000
  C   C624      1.0  0.6548500000000003  0.12251999999999998  0.05992999999999999  1.0000
  C   C625      1.0  0.28511999999999993  0.9760499999999999  0.97114  1.0000
  C   C626      1.0  0.80401  0.7315  0.7854300000000001  1.0000
  C   C627      1.0  0.016479999999999974  0.51857  0.14348  1.0000
  C   C628      1.0  0.8862400000000002  0.25001  0.61378  1.0000
  C   C629      1.0  0.99078  0.32521999999999995  0.4613399999999999  1.0000
  C   C630      1.0  0.16564  0.11369  0.14581  1.0000
  C   C631      1.0  0.42842  0.6303999999999997  0.24401  1.0000
  C   C632      1.0  0.17515  0.41859  0.03427  1.0000
  C   C633      1.0  0.1303999999999999  0.7440099999999997  0.42840999999999996  1.0000
  C   C634      1.0  0.31102  0.060970000000000045  0.6219  1.0000
  C   C635      1.0  0.9835799999999999  0.3294199999999999  0.04485  1.0000
  C   C636      1.0  0.74394  0.61353  0.31561  1.0000
  C   C637      1.0  0.6304  0.4284099999999999  0.74401  1.0000
  C   C638      1.0  0.4387  0.4835699999999999  0.15413000000000002  1.0000
  C   C639      1.0  0.7437499999999999  0.6399599999999998  0.28885  1.0000
  C   C640      1.0  0.5187200000000002  0.21460999999999997  0.44611000000000006  1.0000
  C   C641      1.0  0.13605  0.17462  0.16555  1.0000
  C   C642      1.0  0.92535  0.006769999999999966  0.54292  1.0000
  C   C643      1.0  0.021119999999999955  0.7951699999999998  0.48819  1.0000
  C   C644      1.0  0.028849999999999973  0.2148699999999999  0.52394  1.0000
  C   C645      1.0  0.88423  0.14076999999999995  0.46568  1.0000
  C   C646      1.0  0.38424  0.46567999999999987  0.14076  1.0000
  C   C647      1.0  0.4400899999999999  0.37747999999999987  0.84517  1.0000
  C   C648      1.0  0.9639  0.58145  0.50673  1.0000
  C   C649      1.0  0.28538  0.23141999999999993  0.30394  1.0000
  C   C650      1.0  0.019849999999999965  0.46792  0.8541  1.0000
  C   C651      1.0  0.81561  0.11353999999999997  0.24395  1.0000
  C   C652      1.0  0.2148  0.028829999999999995  0.02388  1.0000
  C   C653      1.0  0.905  0.84498  0.9676100000000001  1.0000
  C   C654      1.0  0.98357  0.65412  0.43869  1.0000
  C   C655      1.0  0.23813  0.24006999999999995  0.11572  1.0000
  C   C656      1.0  0.018699999999999932  0.4460999999999998  0.21462999999999996  1.0000
  C   C657      1.0  0.019879999999999946  0.55191  0.66578  1.0000
  C   C658      1.0  0.016439999999999975  0.34588999999999986  0.56131  1.0000
  C   C659      1.0  0.5926699999999998  0.4305499999999998  0.9084599999999999  1.0000
  C   C660      1.0  0.3773899999999999  0.9373999999999998  0.53234  1.0000
  C   C661      1.0  0.059890000000000006  0.9049799999999999  0.93732  1.0000
  C   C662      1.0  0.018559999999999997  0.64348  0.01647  1.0000
  C   C663      1.0  0.0450099999999999  0.7561699999999999  0.39622  1.0000
  C   C664      1.0  0.24401999999999993  0.9284199999999998  0.1304  1.0000
  C   C665      1.0  0.8639800000000001  0.038680000000000055  0.52954  1.0000
  C   C666      1.0  0.25987999999999983  0.8756599999999998  0.99798  1.0000
  C   C667      1.0  0.9185800000000002  0.53427  0.17513999999999996  1.0000
  C   C668      1.0  0.51183  0.47889999999999994  0.70484  1.0000
  C   C669      1.0  0.75606  0.6843899999999998  0.38647  1.0000
  C   C670      1.0  0.42832  0.79793  0.68431  1.0000
  C   C671      1.0  0.12231999999999998  0.49802999999999986  0.73814  1.0000
  C   C672      1.0  0.09501  0.15503  0.03239  1.0000
  C   C673      1.0  0.48358000000000007  0.044849999999999994  0.32942000000000005  1.0000
  C   C674      1.0  0.9908999999999999  0.6655999999999997  0.0295  1.0000
  C   C675      1.0  0.554  0.57265  0.7686499999999999  1.0000
  C   C676      1.0  0.88647  0.1844  0.25606  1.0000
  C   C677      1.0  0.61376  0.64575  0.16568  1.0000
  C   C678      1.0  0.86396  0.82539  0.83445  1.0000
  C   C679      1.0  0.9779499999999998  0.6621799999999998  0.06938  1.0000
  C   C680      1.0  0.8157600000000002  0.90717  0.33784  1.0000
  C   C681      1.0  0.76862  0.4449899999999999  0.20688  1.0000
  C   C682      1.0  0.9679400000000001  0.61379  0.44806  1.0000
  C   C683      1.0  0.71489  0.02395  0.02887  1.0000
  C   C684      1.0  0.03207  0.38620999999999994  0.55194  1.0000
  C   C685      1.0  0.65413  0.98357  0.93869  1.0000
  C   C686      1.0  0.5814299999999999  0.8248599999999998  0.4657200000000001  1.0000
  C   C687      1.0  0.17508999999999997  0.75657  0.64083  1.0000
  C   C688      1.0  0.13051000000000001  0.38655  0.20215  1.0000
  C   C689      1.0  0.5615499999999999  0.8234599999999996  0.26845  1.0000
  C   C690      1.0  0.43741  0.03235  0.37739  1.0000
  C   C691      1.0  0.5328899999999999  0.7259399999999998  0.52104  1.0000
  C   C692      1.0  0.37512999999999996  0.35665999999999987  0.87305  1.0000
  C   C693      1.0  0.14350000000000002  0.51649  0.01858  1.0000
  C   C694      1.0  0.7619  0.7069299999999997  0.43834  1.0000
  C   C695      1.0  0.4390900000000001  0.56092  0.25  1.0000
  C   C696      1.0  0.09267999999999993  0.9084599999999998  0.43055  1.0000
  C   C697      1.0  0.9305499999999999  0.4084399999999999  0.59269  1.0000
  C   C698      1.0  0.80913  0.31399  0.28518  1.0000
  C   C699      1.0  0.94008  0.84512  0.3774799999999999  1.0000
  C   C700      1.0  0.61353  0.74394  0.8156099999999998  1.0000
  C   C701      1.0  0.9882  0.69303  0.9671  1.0000
  C   C702      1.0  0.03610999999999998  0.4185499999999999  0.49327999999999994  1.0000
  C   C703      1.0  0.76844  0.3234499999999999  0.06155  1.0000
  C   C704      1.0  0.58138  0.61757  0.07465  1.0000
  C   C705      1.0  0.46711  0.19302  0.48821  1.0000
  C   C706      1.0  0.7851800000000001  0.8139800000000001  0.30913  1.0000
  C   C707      1.0  0.95711  0.4637399999999999  0.88237  1.0000
  C   C708      1.0  0.40849  0.47783999999999993  0.8156  1.0000
  C   C709      1.0  0.0019699999999998794  0.7618599999999998  0.87769  1.0000
  C   C710      1.0  0.9284199999999999  0.24401999999999993  0.6304  1.0000
  C   C711      1.0  0.48819999999999997  0.9671099999999999  0.69303  1.0000
  C   C712      1.0  0.35651999999999995  0.9814299999999998  0.48351999999999995  1.0000
  C   C713      1.0  0.73814  0.62231  0.99803  1.0000
  C   C714      1.0  0.71463  0.94611  0.51871  1.0000
  C   C715      1.0  0.42535  0.54297  0.00677  1.0000
  C   C716      1.0  0.36949999999999994  0.7978599999999998  0.6134499999999999  1.0000
  C   C717      1.0  0.95513  0.43874999999999986  0.28451  1.0000
  C   C718      1.0  0.07167999999999995  0.31569999999999987  0.20208  1.0000
  C   C719      1.0  0.99319  0.07451999999999998  0.9568  1.0000
  C   C720      1.0  0.38244  0.41859  0.42536  1.0000
  C   C721      1.0  0.96791  0.3541  0.019840000000000003  1.0000
  C   C722      1.0  0.6751499999999999  0.03427999999999996  0.41859  1.0000
  C   C723      1.0  0.03209999999999998  0.6459099999999999  0.9801600000000001  1.0000
  C   C724      1.0  0.9979899999999999  0.75989  0.37567  1.0000
  C   C725      1.0  0.93903  0.689  0.87811  1.0000
  C   C726      1.0  0.89623  0.25618  0.54501  1.0000
  C   C727      1.0  0.43903  0.8781  0.68899  1.0000
  C   C728      1.0  0.06946  0.59157  0.40731  1.0000
  C   C729      1.0  0.1859399999999999  0.9710999999999996  0.49498  1.0000
  C   C730      1.0  0.24395  0.31562  0.61353  1.0000
  C   C731      1.0  0.7618700000000002  0.0019700000000000242  0.3776900000000001  1.0000
  C   C732      1.0  0.49328  0.95706  0.07468  1.0000
  C   C733      1.0  0.78521  0.97117  0.97612  1.0000
  C   C734      1.0  0.05391  0.28539  0.9813  1.0000
  C   C735      1.0  0.11375999999999996  0.16570999999999994  0.64577  1.0000
  C   C736      1.0  0.32941999999999994  0.9835699999999999  0.54485  1.0000
  C   C737      1.0  0.57271  0.018790000000000022  0.80416  1.0000
  C   C738      1.0  0.11376999999999995  0.74999  0.38622  1.0000
  C   C739      1.0  0.23156999999999991  0.67656  0.93846  1.0000
  C   C740      1.0  0.6156399999999999  0.8755699999999997  0.37753  1.0000
  C   C741      1.0  0.56092  0.43908999999999987  0.75  1.0000
  C   C742      1.0  0.23137  0.94601  0.92736  1.0000
  C   C743      1.0  0.8253100000000001  0.8639  0.33451  1.0000
  C   C744      1.0  0.90732  0.09153999999999995  0.56945  1.0000
  C   C745      1.0  0.8775299999999999  0.37556  0.11563  1.0000
  C   C746      1.0  0.7499899999999999  0.6361699999999998  0.36383  1.0000
  C   C747      1.0  0.81568  0.9085300000000001  0.9779100000000001  1.0000
  C   C748      1.0  0.8774900000000001  0.34514  0.4401  1.0000
  C   C749      1.0  0.51643  0.9551499999999998  0.67059  1.0000
  C   C750      1.0  0.33785  0.31575  0.40717  1.0000
  C   C751      1.0  0.39622  0.5450099999999998  0.25618  1.0000
  C   C752      1.0  0.31398  0.80912  0.78515  1.0000
  C   C753      1.0  0.46764  0.12260999999999993  0.56261  1.0000
  C   C754      1.0  0.94012  0.09502999999999998  0.06268  1.0000
  C   C755      1.0  0.28885  0.24375  0.13996  1.0000
  C   C756      1.0  0.37303999999999987  0.8566399999999997  0.87511  1.0000
  C   C757      1.0  0.79307  0.06167999999999997  0.2381  1.0000
  C   C758      1.0  0.3824100000000001  0.9637899999999999  0.45713  1.0000
  C   C759      1.0  0.9949799999999999  0.47107999999999994  0.68594  1.0000
  C   C760      1.0  0.9550000000000001  0.24383  0.60379  1.0000
  C   C761      1.0  0.7111600000000002  0.75625  0.86004  1.0000
  C   C762      1.0  0.1488599999999999  0.5450899999999999  0.78892  1.0000
  C   C763      1.0  0.054949999999999985  0.76189  0.32362  1.0000
  C   C764      1.0  0.87518  0.00211  0.01869  1.0000
  C   C765      1.0  0.97116  0.78514  0.47606  1.0000
  C   C766      1.0  0.9391  0.2500099999999999  0.56092  1.0000
  C   C767      1.0  0.48013  0.3342199999999999  0.44810999999999995  1.0000
  C   C768      1.0  0.08148999999999994  0.6157099999999998  0.75667  1.0000
  O   O1        1.0  0.56603  0.9934599999999998  0.023  1.0000
  O   O2        1.0  0.9968799999999999  0.9354099999999997  0.07968  1.0000
  O   O3        1.0  0.06471999999999999  0.00343999999999995  0.42081999999999997  1.0000
  O   O4        1.0  0.47704  0.50655  0.93401  1.0000
  O   O5        1.0  0.56127  0.6439299999999998  0.06479  1.0000
  O   O6        1.0  0.42085000000000006  0.8560499999999998  0.41723000000000005  1.0000
  O   O7        1.0  0.9173100000000002  0.35611  0.92089  1.0000
  O   O8        1.0  0.006599999999999992  0.57257  0.02954  1.0000
  O   O9        1.0  0.45716  0.92746  0.93421  1.0000
  O   O10       1.0  0.0031299999999999805  0.06458999999999995  0.92032  1.0000
  O   O11       1.0  0.92088  0.50356  0.56476  1.0000
  O   O12       1.0  0.06461  0.061500000000000006  0.14431  1.0000
  O   O13       1.0  0.43874  0.35607  0.93522  1.0000
  O   O14       1.0  0.49649  0.41738999999999987  0.06124999999999999  1.0000
  O   O15       1.0  0.50664  0.029519999999999994  0.57256  1.0000
  O   O16       1.0  0.58268  0.50359  0.43877  1.0000
  O   O17       1.0  0.45709999999999995  0.52967  0.02296  1.0000
  O   O18       1.0  0.47703999999999996  0.9702999999999998  0.0429  1.0000
  O   O19       1.0  0.9769600000000003  0.93397  0.50651  1.0000
  O   O20       1.0  0.57918  0.43525  0.49649  1.0000
  O   O21       1.0  0.9572499999999999  0.9343199999999998  0.92735  1.0000
  O   O22       1.0  0.54285  0.07254  0.0658  1.0000
  O   O23       1.0  0.9934100000000001  0.42743  0.97047  1.0000
  O   O24       1.0  0.9703899999999999  0.47705999999999976  0.54295  1.0000
  O   O25       1.0  0.06582999999999999  0.04281000000000001  0.57254  1.0000
  O   O26       1.0  0.9209199999999998  0.41722  0.85608  1.0000
  O   O27       1.0  0.54291  0.47033  0.97704  1.0000
  O   O28       1.0  0.56477  0.14396  0.0613  1.0000
  O   O29       1.0  0.85609  0.42087  0.91725  1.0000
  O   O30       1.0  0.99348  0.5660099999999998  0.52296  1.0000
  O   O31       1.0  0.9385200000000002  0.003120000000000003  0.08274  1.0000
  O   O32       1.0  0.49337  0.52297  0.56595  1.0000
  O   O33       1.0  0.57253  0.56586  0.54285  1.0000
  O   O34       1.0  0.43523999999999996  0.8560499999999998  0.93871  1.0000
  O   O35       1.0  0.14392  0.57913  0.08275  1.0000
  O   O36       1.0  0.9965000000000002  0.061260000000000016  0.41742  1.0000
  O   O37       1.0  0.43873999999999996  0.08259  0.0035  1.0000
  O   O38       1.0  0.6438899999999999  0.08271999999999996  0.5791  1.0000
  O   O39       1.0  0.42745999999999995  0.9933999999999997  0.4705  1.0000
  O   O40       1.0  0.4341799999999999  0.4274799999999999  0.9571499999999998  1.0000
  O   O41       1.0  0.9341299999999999  0.9770599999999998  0.00679  1.0000
  O   O42       1.0  0.9704100000000001  0.49331  0.92742  1.0000
  O   O43       1.0  0.50352  0.58261  0.93875  1.0000
  O   O44       1.0  0.06587999999999998  0.022949999999999998  0.99321  1.0000
  O   O45       1.0  0.07258000000000003  0.52954  0.00666  1.0000
  O   O46       1.0  0.52297  0.4934599999999999  0.066  1.0000
  O   O47       1.0  0.9354  0.9385099999999998  0.8557  1.0000
  O   O48       1.0  0.06148999999999985  0.9968899999999996  0.9172599999999999  1.0000
  O   O49       1.0  0.47038  0.54296  0.47708  1.0000
  O   O50       1.0  0.04292999999999999  0.97702  0.4703800000000001  1.0000
  O   O51       1.0  0.95708  0.02297999999999999  0.52963  1.0000
  O   O52       1.0  0.029619999999999966  0.52294  0.45705  1.0000
  O   O53       1.0  0.5791500000000003  0.14396000000000006  0.58277  1.0000
  O   O54       1.0  0.56583  0.57252  0.04285  1.0000
  O   O55       1.0  0.35607000000000005  0.4386900000000001  0.43524000000000007  1.0000
  O   O56       1.0  0.56474  0.42076999999999987  0.00343  1.0000
  O   O57       1.0  0.14398  0.56478  0.56131  1.0000
  O   O58       1.0  0.92745  0.45722  0.43417999999999995  1.0000
  O   O59       1.0  0.49337  0.9704799999999998  0.42743999999999993  1.0000
  O   O60       1.0  0.52962  0.07258999999999999  0.50668  1.0000
  O   O61       1.0  0.07909000000000001  0.58278  0.14392  1.0000
  O   O62       1.0  0.9771200000000001  0.042869999999999936  0.9701899999999999  1.0000
  O   O63       1.0  0.35612  0.91728  0.4209  1.0000
  O   O64       1.0  0.07254999999999998  0.54278  0.56582  1.0000
  O   O65       1.0  0.08258999999999996  0.43874999999999986  0.50351  1.0000
  O   O66       1.0  0.04275999999999999  0.06567999999999999  0.07265  1.0000
  O   O67       1.0  0.5036  0.9208899999999999  0.0648  1.0000
  O   O68       1.0  0.47039  0.92741  0.49332  1.0000
  O   O69       1.0  0.9387099999999999  0.9352399999999998  0.3560499999999999  1.0000
  O   O70       1.0  0.006529999999999998  0.4339999999999999  0.47705  1.0000
  O   O71       1.0  0.93529  0.99656  0.57918  1.0000
  O   O72       1.0  0.0827  0.64389  0.07912  1.0000
  O   O73       1.0  0.52963  0.45705  0.52292  1.0000
  O   O74       1.0  0.43527  0.57924  0.99657  1.0000
  O   O75       1.0  0.42748  0.43414  0.45715  1.0000
  O   O76       1.0  0.57255  0.006609999999999938  0.5295  1.0000
  O   O77       1.0  0.43398  0.006539999999999945  0.977  1.0000
  O   O78       1.0  0.41733  0.4964099999999999  0.56123  1.0000
  O   O79       1.0  0.029599999999999987  0.5067  0.07259  1.0000
  O   O80       1.0  0.022889999999999935  0.9571399999999998  0.02981  1.0000
  O   O81       1.0  0.6439399999999998  0.5613199999999998  0.56477  1.0000
  O   O82       1.0  0.50664  0.4770299999999999  0.43404999999999994  1.0000
  O   O83       1.0  0.52297  0.02969999999999995  0.95711  1.0000
  O   O84       1.0  0.07913000000000002  0.49645000000000006  0.43524000000000007  1.0000
  O   O85       1.0  0.58275  0.07911  0.6439  1.0000
  O   O86       1.0  0.9341799999999999  0.95719  0.42747  1.0000
  O   O87       1.0  0.91742  0.56126  0.49649  1.0000
  O   O88       1.0  0.4964100000000001  0.07911999999999998  0.93521  1.0000
  O   O89       1.0  0.5612699999999999  0.9174199999999998  0.99651  1.0000
  O   O90       1.0  0.92743  0.47046  0.99334  1.0000
  O   O91       1.0  0.42083  0.56475  0.50351  1.0000
  O   O92       1.0  0.003509999999999925  0.9387499999999998  0.58258  1.0000
  O   O93       1.0  0.41726  0.92089  0.3561  1.0000
  O   O94       1.0  0.06130000000000004  0.06477000000000005  0.64395  1.0000
  O   O95       1.0  0.023049999999999984  0.06602999999999996  0.49349  1.0000
  O   O96       1.0  0.85603  0.43522  0.43869  1.0000
