data_image0
_chemical_formula_structural       Cu24H192C256N48O96
_chemical_formula_sum              "Cu24 H192 C256 N48 O96"
_cell_length_a       13.90824
_cell_length_b       18.62487
_cell_length_c       32.28628
_cell_angle_alpha    103.19886
_cell_angle_beta     90.00811
_cell_angle_gamma    90.08148

_space_group_name_H-M_alt    "P 1"
_space_group_IT_number       1

loop_
  _space_group_symop_operation_xyz
  'x, y, z'

loop_
  _atom_site_type_symbol
  _atom_site_label
  _atom_site_symmetry_multiplicity
  _atom_site_fract_x
  _atom_site_fract_y
  _atom_site_fract_z
  _atom_site_occupancy
  Cu  Cu1       1.0  0.65939  0.6906800000000001  0.2917399999999999  1.0000
  Cu  Cu2       1.0  0.32736999999999994  0.43792  0.29658  1.0000
  Cu  Cu3       1.0  0.99518  0.24623  0.50707  1.0000
  Cu  Cu4       1.0  0.82899  0.5224800000000002  0.20406  1.0000
  Cu  Cu5       1.0  0.17344  0.2773399999999999  0.19826999999999995  1.0000
  Cu  Cu6       1.0  0.15956  0.8102100000000001  0.20927999999999994  1.0000
  Cu  Cu7       1.0  0.82749  0.06212  0.20355  1.0000
  Cu  Cu8       1.0  0.49774  0.25321  0.99213  1.0000
  Cu  Cu9       1.0  0.32925  0.97805  0.29575  1.0000
  Cu  Cu10      1.0  0.6738599999999999  0.22050999999999996  0.3007999999999999  1.0000
  Cu  Cu11      1.0  0.34061  0.30932  0.70826  1.0000
  Cu  Cu12      1.0  0.67264  0.5620900000000001  0.70342  1.0000
  Cu  Cu13      1.0  0.00482  0.75377  0.49293  1.0000
  Cu  Cu14      1.0  0.17101  0.47753  0.79594  1.0000
  Cu  Cu15      1.0  0.82656  0.72266  0.80173  1.0000
  Cu  Cu16      1.0  0.84044  0.1897899999999999  0.7907199999999998  1.0000
  Cu  Cu17      1.0  0.17251  0.93788  0.79645  1.0000
  Cu  Cu18      1.0  0.50227  0.74679  0.00787  1.0000
  Cu  Cu19      1.0  0.67076  0.021949999999999966  0.7042499999999999  1.0000
  Cu  Cu20      1.0  0.32614  0.7795  0.6992  1.0000
  Cu  Cu21      1.0  0.0  0.5  0.5  1.0000
  Cu  Cu22      1.0  0.5  0.0  0.0  1.0000
  Cu  Cu23      1.0  0.5  0.5  0.0  1.0000
  Cu  Cu24      1.0  0.0  0.0  0.5  1.0000
  H   H1        1.0  0.09004  0.6028600000000002  0.39875  1.0000
  H   H2        1.0  0.9994699999999999  0.67268  0.4069  1.0000
  H   H3        1.0  0.98164  0.59075  0.36833  1.0000
  H   H4        1.0  0.68451  0.48250000000000004  0.4476  1.0000
  H   H5        1.0  0.67684  0.57997  0.45734  1.0000
  H   H6        1.0  0.69221  0.53499  0.50065  1.0000
  H   H7        1.0  0.74776  0.49939  0.37228  1.0000
  H   H8        1.0  0.84114  0.7204300000000001  0.43177  1.0000
  H   H9        1.0  0.7545299999999998  0.7634600000000002  0.37461  1.0000
  H   H10       1.0  0.66306  0.55147  0.31886  1.0000
  H   H11       1.0  0.72176  0.7868400000000002  0.22811  1.0000
  H   H12       1.0  0.62425  0.83912  0.17547  1.0000
  H   H13       1.0  0.36776999999999993  0.58257  0.17845  1.0000
  H   H14       1.0  0.26811  0.53372  0.23184  1.0000
  H   H15       1.0  0.3204  0.29554  0.3204  1.0000
  H   H16       1.0  0.23806  0.50771  0.38048  1.0000
  H   H17       1.0  0.15697  0.4634900000000001  0.4386199999999999  1.0000
  H   H18       1.0  0.23789999999999997  0.24213000000000004  0.37441  1.0000
  H   H19       1.0  0.3053  0.26953  0.50156  1.0000
  H   H20       1.0  0.31852  0.31918  0.46015  1.0000
  H   H21       1.0  0.30516  0.22195  0.44732  1.0000
  H   H22       1.0  0.90149  0.36126  0.4126  1.0000
  H   H23       1.0  0.99464  0.3262100000000001  0.37496  1.0000
  H   H24       1.0  0.00593  0.4149000000000001  0.40808  1.0000
  H   H25       1.0  0.7646799999999999  0.4408000000000001  0.27367  1.0000
  H   H26       1.0  0.85993  0.39997  0.33079  1.0000
  H   H27       1.0  0.8299499999999997  0.67347  0.19118  1.0000
  H   H28       1.0  0.73408  0.47055  0.12136  1.0000
  H   H29       1.0  0.75315  0.7394800000000001  0.14161999999999997  1.0000
  H   H30       1.0  0.65402  0.52808  0.06811  1.0000
  H   H31       1.0  0.81085  0.73219  0.0148  1.0000
  H   H32       1.0  0.82366  0.66899  0.04912  1.0000
  H   H33       1.0  0.81297  0.76476  0.07105  1.0000
  H   H34       1.0  0.42454999999999987  0.6686500000000002  0.12247  1.0000
  H   H35       1.0  0.53244  0.6232100000000003  0.13199999999999995  1.0000
  H   H36       1.0  0.45268  0.58077  0.09059  1.0000
  H   H37       1.0  0.73087  0.30291000000000007  0.22961  1.0000
  H   H38       1.0  0.62956  0.34161  0.17345999999999995  1.0000
  H   H39       1.0  0.17143  0.42887  0.18380999999999995  1.0000
  H   H40       1.0  0.24872  0.49306  0.13312  1.0000
  H   H41       1.0  0.27273  0.22532  0.11740999999999997  1.0000
  H   H42       1.0  0.34857  0.2803  0.06221  1.0000
  H   H43       1.0  0.18479  0.511  0.058529999999999985  1.0000
  H   H44       1.0  0.17892  0.4142  0.03884  1.0000
  H   H45       1.0  0.19046  0.47433  0.00267  1.0000
  H   H46       1.0  0.52997  0.3300300000000001  0.08665999999999997  1.0000
  H   H47       1.0  0.47132999999999997  0.39163  0.12896999999999995  1.0000
  H   H48       1.0  0.58445  0.41622  0.10961  1.0000
  H   H49       1.0  0.5903  0.89772  0.10115  1.0000
  H   H50       1.0  0.49882  0.8284  0.0935  1.0000
  H   H51       1.0  0.48263  0.91055  0.13203  1.0000
  H   H52       1.0  0.18456  0.01802  0.05283  1.0000
  H   H53       1.0  0.17638  0.92056  0.04305  1.0000
  H   H54       1.0  0.19186  0.9656  0.99975  1.0000
  H   H55       1.0  0.24685  0.0009600000000000015  0.12805  1.0000
  H   H56       1.0  0.34069999999999995  0.7802400000000002  0.06872  1.0000
  H   H57       1.0  0.25468  0.7370100000000003  0.12593  1.0000
  H   H58       1.0  0.16222  0.9486400000000001  0.18133  1.0000
  H   H59       1.0  0.22094  0.71164  0.27221  1.0000
  H   H60       1.0  0.12316  0.6598199999999999  0.32490999999999987  1.0000
  H   H61       1.0  0.86724  0.9172800000000001  0.3216999999999999  1.0000
  H   H62       1.0  0.76762  0.96666  0.26845  1.0000
  H   H63       1.0  0.81989  0.20435000000000006  0.17975  1.0000
  H   H64       1.0  0.73826  0.9918600000000001  0.11963  1.0000
  H   H65       1.0  0.65695  0.03568000000000001  0.06146  1.0000
  H   H66       1.0  0.7375  0.25735  0.12563  1.0000
  H   H67       1.0  0.80664  0.22934000000000002  0.99862  1.0000
  H   H68       1.0  0.81915  0.17976000000000003  0.04011  1.0000
  H   H69       1.0  0.80601  0.27695  0.05285  1.0000
  H   H70       1.0  0.40069  0.13956  0.08707  1.0000
  H   H71       1.0  0.49324  0.17516000000000004  0.12496999999999997  1.0000
  H   H72       1.0  0.50485  0.08614  0.09223  1.0000
  H   H73       1.0  0.26577  0.05935000000000001  0.22575999999999993  1.0000
  H   H74       1.0  0.36178999999999994  0.10003000000000001  0.16874  1.0000
  H   H75       1.0  0.33077  0.82756  0.30865  1.0000
  H   H76       1.0  0.23454  0.030020000000000012  0.37845  1.0000
  H   H77       1.0  0.25514  0.7611700000000001  0.3584299999999999  1.0000
  H   H78       1.0  0.1556  0.9722300000000003  0.43196  1.0000
  H   H79       1.0  0.31427999999999995  0.76886  0.48537  1.0000
  H   H80       1.0  0.32677  0.8316399999999999  0.4507599999999999  1.0000
  H   H81       1.0  0.31524  0.7357999999999999  0.42914999999999986  1.0000
  H   H82       1.0  0.92609  0.8314400000000003  0.37904  1.0000
  H   H83       1.0  0.03290999999999999  0.87771  0.36886999999999986  1.0000
  H   H84       1.0  0.9539  0.9195900000000001  0.4107  1.0000
  H   H85       1.0  0.23043999999999998  0.19590999999999997  0.2701999999999999  1.0000
  H   H86       1.0  0.12941  0.15807999999999997  0.3267199999999999  1.0000
  H   H87       1.0  0.67177  0.06919  0.31616  1.0000
  H   H88       1.0  0.74846  0.0062800000000000095  0.36757  1.0000
  H   H89       1.0  0.77259  0.27373  0.38173  1.0000
  H   H90       1.0  0.84734  0.22010000000000002  0.4377  1.0000
  H   H91       1.0  0.6844499999999998  0.9894100000000002  0.4420499999999999  1.0000
  H   H92       1.0  0.67859  0.08618000000000003  0.46166  1.0000
  H   H93       1.0  0.69023  0.026190000000000022  0.49789  1.0000
  H   H94       1.0  0.029639999999999996  0.17031999999999994  0.4131899999999999  1.0000
  H   H95       1.0  0.97056  0.10825999999999997  0.37114  1.0000
  H   H96       1.0  0.08382  0.084  0.3905  1.0000
  H   H97       1.0  0.90996  0.39714000000000005  0.6012499999999997  1.0000
  H   H98       1.0  0.0005299999999999999  0.32731999999999994  0.5930999999999998  1.0000
  H   H99       1.0  0.01836  0.40925  0.63167  1.0000
  H   H100      1.0  0.31549  0.5175  0.5523999999999998  1.0000
  H   H101      1.0  0.32316  0.42003000000000007  0.54267  1.0000
  H   H102      1.0  0.30779  0.4650100000000001  0.49935  1.0000
  H   H103      1.0  0.25224  0.5006100000000001  0.62772  1.0000
  H   H104      1.0  0.15886  0.2795700000000001  0.56823  1.0000
  H   H105      1.0  0.24548  0.23654  0.62539  1.0000
  H   H106      1.0  0.33694  0.44854  0.68114  1.0000
  H   H107      1.0  0.27824  0.2131599999999999  0.7718999999999998  1.0000
  H   H108      1.0  0.37575  0.16088  0.82453  1.0000
  H   H109      1.0  0.63223  0.4174300000000001  0.82155  1.0000
  H   H110      1.0  0.73189  0.46628000000000003  0.76816  1.0000
  H   H111      1.0  0.6796  0.70446  0.6796  1.0000
  H   H112      1.0  0.76195  0.4923  0.61952  1.0000
  H   H113      1.0  0.84303  0.5365100000000002  0.56138  1.0000
  H   H114      1.0  0.7620999999999999  0.75787  0.62559  1.0000
  H   H115      1.0  0.6947  0.73047  0.49844  1.0000
  H   H116      1.0  0.68148  0.68082  0.53985  1.0000
  H   H117      1.0  0.69485  0.7780500000000001  0.55269  1.0000
  H   H118      1.0  0.09851  0.63874  0.5874  1.0000
  H   H119      1.0  0.00536  0.6737900000000001  0.62504  1.0000
  H   H120      1.0  0.99407  0.5851100000000001  0.59192  1.0000
  H   H121      1.0  0.23533  0.5592  0.72633  1.0000
  H   H122      1.0  0.14007  0.60004  0.66921  1.0000
  H   H123      1.0  0.17006  0.32653  0.80883  1.0000
  H   H124      1.0  0.26593  0.5294500000000002  0.87865  1.0000
  H   H125      1.0  0.24685  0.26052  0.8583899999999998  1.0000
  H   H126      1.0  0.34599  0.47192  0.93189  1.0000
  H   H127      1.0  0.18916  0.26782  0.9852  1.0000
  H   H128      1.0  0.17634  0.33101  0.95089  1.0000
  H   H129      1.0  0.18703  0.23525  0.92895  1.0000
  H   H130      1.0  0.57545  0.33135  0.87753  1.0000
  H   H131      1.0  0.4675599999999999  0.37679  0.868  1.0000
  H   H132      1.0  0.54732  0.41923  0.90941  1.0000
  H   H133      1.0  0.26913  0.6970900000000001  0.77039  1.0000
  H   H134      1.0  0.37044  0.65839  0.8265399999999998  1.0000
  H   H135      1.0  0.82857  0.57114  0.81619  1.0000
  H   H136      1.0  0.75128  0.50694  0.86688  1.0000
  H   H137      1.0  0.7272699999999999  0.77469  0.88259  1.0000
  H   H138      1.0  0.6514299999999998  0.7197  0.93779  1.0000
  H   H139      1.0  0.81521  0.489  0.94147  1.0000
  H   H140      1.0  0.8210799999999999  0.5857999999999999  0.9611599999999998  1.0000
  H   H141      1.0  0.80954  0.52567  0.9973299999999998  1.0000
  H   H142      1.0  0.47003  0.66997  0.9133399999999998  1.0000
  H   H143      1.0  0.52868  0.60837  0.87103  1.0000
  H   H144      1.0  0.41556  0.58378  0.89039  1.0000
  H   H145      1.0  0.4097  0.10229000000000003  0.89885  1.0000
  H   H146      1.0  0.50118  0.17160999999999996  0.9065  1.0000
  H   H147      1.0  0.51738  0.08945000000000002  0.86797  1.0000
  H   H148      1.0  0.81544  0.9819800000000001  0.94718  1.0000
  H   H149      1.0  0.82362  0.07944000000000002  0.95695  1.0000
  H   H150      1.0  0.80814  0.0344  0.00025  1.0000
  H   H151      1.0  0.75315  0.99904  0.8719599999999997  1.0000
  H   H152      1.0  0.65931  0.21977000000000002  0.93128  1.0000
  H   H153      1.0  0.74532  0.263  0.87408  1.0000
  H   H154      1.0  0.8377799999999999  0.05135999999999992  0.8186699999999998  1.0000
  H   H155      1.0  0.77906  0.2883599999999999  0.7277899999999998  1.0000
  H   H156      1.0  0.8768399999999998  0.34019000000000005  0.6750899999999997  1.0000
  H   H157      1.0  0.13276  0.08272999999999991  0.6783099999999997  1.0000
  H   H158      1.0  0.23237999999999998  0.03334999999999993  0.7315499999999998  1.0000
  H   H159      1.0  0.18012  0.79565  0.82025  1.0000
  H   H160      1.0  0.26174  0.008149999999999978  0.88038  1.0000
  H   H161      1.0  0.34305  0.96432  0.93854  1.0000
  H   H162      1.0  0.2625  0.7426500000000003  0.87437  1.0000
  H   H163      1.0  0.19336  0.77066  0.00138  1.0000
  H   H164      1.0  0.18085  0.8202400000000002  0.95989  1.0000
  H   H165      1.0  0.194  0.72305  0.9471499999999998  1.0000
  H   H166      1.0  0.59931  0.86044  0.91293  1.0000
  H   H167      1.0  0.50676  0.82485  0.87503  1.0000
  H   H168      1.0  0.49515  0.9138600000000001  0.90777  1.0000
  H   H169      1.0  0.73424  0.9406500000000001  0.77424  1.0000
  H   H170      1.0  0.63821  0.89997  0.83127  1.0000
  H   H171      1.0  0.66923  0.17245  0.69135  1.0000
  H   H172      1.0  0.76546  0.9699800000000001  0.62155  1.0000
  H   H173      1.0  0.7448599999999999  0.23883000000000004  0.64157  1.0000
  H   H174      1.0  0.8444  0.027780000000000044  0.56804  1.0000
  H   H175      1.0  0.68572  0.23114  0.51463  1.0000
  H   H176      1.0  0.67324  0.16835999999999995  0.54924  1.0000
  H   H177      1.0  0.68476  0.26420000000000005  0.5708499999999997  1.0000
  H   H178      1.0  0.07392  0.16856999999999991  0.6209599999999997  1.0000
  H   H179      1.0  0.9670899999999999  0.12229000000000005  0.63113  1.0000
  H   H180      1.0  0.0461  0.08041000000000001  0.5893  1.0000
  H   H181      1.0  0.76957  0.8041  0.7297999999999998  1.0000
  H   H182      1.0  0.87059  0.8419300000000002  0.67328  1.0000
  H   H183      1.0  0.32822999999999997  0.9308100000000001  0.68384  1.0000
  H   H184      1.0  0.25155  0.99372  0.63243  1.0000
  H   H185      1.0  0.22740999999999997  0.7262699999999999  0.61827  1.0000
  H   H186      1.0  0.15267  0.7798999999999999  0.5622999999999999  1.0000
  H   H187      1.0  0.31555  0.01059000000000003  0.55795  1.0000
  H   H188      1.0  0.32141  0.9138200000000001  0.53834  1.0000
  H   H189      1.0  0.30978000000000006  0.9738100000000001  0.50212  1.0000
  H   H190      1.0  0.97036  0.82968  0.58681  1.0000
  H   H191      1.0  0.02944  0.8917400000000002  0.62886  1.0000
  H   H192      1.0  0.91618  0.916  0.6095  1.0000
  C   C1        1.0  0.01261  0.6129900000000001  0.39994  1.0000
  C   C2        1.0  0.96758  0.5781  0.43297999999999986  1.0000
  C   C3        1.0  0.86573  0.57368  0.43623  1.0000
  C   C4        1.0  0.82018  0.53654  0.46451  1.0000
  C   C5        1.0  0.71179  0.5344000000000001  0.46766  1.0000
  C   C6        1.0  0.80598  0.6048700000000001  0.40627  1.0000
  C   C7        1.0  0.75136  0.55849  0.37451  1.0000
  C   C8        1.0  0.80384  0.6805800000000002  0.40715  1.0000
  C   C9        1.0  0.75447  0.7056000000000001  0.37575  1.0000
  C   C10       1.0  0.70315  0.58726  0.34427999999999986  1.0000
  C   C11       1.0  0.46058  0.69866  0.28209  1.0000
  C   C12       1.0  0.50315  0.7340300000000001  0.24847  1.0000
  C   C13       1.0  0.6441799999999999  0.77936  0.22497  1.0000
  C   C14       1.0  0.59008  0.80625  0.19526999999999994  1.0000
  C   C15       1.0  0.45136  0.75903  0.21731  1.0000
  C   C16       1.0  0.34430999999999995  0.7485500000000002  0.20951999999999996  1.0000
  C   C17       1.0  0.64783  0.5151200000000001  0.22539  1.0000
  C   C18       1.0  0.53946  0.51175  0.22596999999999995  1.0000
  C   C19       1.0  0.48553  0.4842  0.25554  1.0000
  C   C20       1.0  0.40139  0.5521600000000001  0.19967  1.0000
  C   C21       1.0  0.3458  0.52644  0.22941999999999996  1.0000
  C   C22       1.0  0.526  0.44687  0.28864  1.0000
  C   C23       1.0  0.28261  0.33087  0.34683  1.0000
  C   C24       1.0  0.2372  0.44952  0.38084  1.0000
  C   C25       1.0  0.19059  0.42391  0.4127099999999999  1.0000
  C   C26       1.0  0.23632  0.3014899999999999  0.3773799999999999  1.0000
  C   C27       1.0  0.18616  0.3478800000000001  0.4106899999999999  1.0000
  C   C28       1.0  0.28249  0.2730899999999999  0.4695799999999999  1.0000
  C   C29       1.0  0.17415  0.27935  0.46911  1.0000
  C   C30       1.0  0.12781  0.31741  0.44139  1.0000
  C   C31       1.0  0.02621  0.32485  0.44011  1.0000
  C   C32       1.0  0.97917  0.3591599999999999  0.4071399999999999  1.0000
  C   C33       1.0  0.02475  0.5347900000000001  0.22178999999999993  1.0000
  C   C34       1.0  0.98212  0.4973800000000001  0.25448  1.0000
  C   C35       1.0  0.84177  0.45028000000000007  0.27746  1.0000
  C   C36       1.0  0.8950699999999999  0.42933  0.30947  1.0000
  C   C37       1.0  0.03338  0.47639  0.2871299999999999  1.0000
  C   C38       1.0  0.13948  0.49116  0.29556  1.0000
  C   C39       1.0  0.79121  0.64321  0.16333  1.0000
  C   C40       1.0  0.7368  0.5298  0.1242  1.0000
  C   C41       1.0  0.74711  0.6797100000000001  0.13530999999999996  1.0000
  C   C42       1.0  0.69187  0.5625  0.09491  1.0000
  C   C43       1.0  0.69284  0.63969  0.10109  1.0000
  C   C44       1.0  0.78864  0.71951  0.0449  1.0000
  C   C45       1.0  0.68029  0.7136000000000001  0.045359999999999984  1.0000
  C   C46       1.0  0.63377  0.6758100000000002  0.07317  1.0000
  C   C47       1.0  0.532  0.66973  0.0754  1.0000
  C   C48       1.0  0.4841799999999999  0.6337100000000002  0.10731  1.0000
  C   C49       1.0  0.35269  0.27263  0.22296  1.0000
  C   C50       1.0  0.47757999999999995  0.20762000000000005  0.28562  1.0000
  C   C51       1.0  0.51645  0.24665000000000004  0.25301  1.0000
  C   C52       1.0  0.46111  0.27074  0.22262  1.0000
  C   C53       1.0  0.65376  0.29268  0.22703  1.0000
  C   C54       1.0  0.59709  0.31328  0.19589999999999994  1.0000
  C   C55       1.0  0.21157  0.39802  0.15655  1.0000
  C   C56       1.0  0.25491  0.43340000000000006  0.12774999999999995  1.0000
  C   C57       1.0  0.26803  0.28414  0.11907999999999998  1.0000
  C   C58       1.0  0.31108  0.31561000000000006  0.08876  1.0000
  C   C59       1.0  0.30864  0.39249  0.09362999999999998  1.0000
  C   C60       1.0  0.21194  0.4648900000000001  0.03365  1.0000
  C   C61       1.0  0.32036  0.46253  0.035639999999999984  1.0000
  C   C62       1.0  0.36678  0.42758  0.06484  1.0000
  C   C63       1.0  0.46843  0.42312  0.06764  1.0000
  C   C64       1.0  0.51546  0.3886500000000001  0.10056  1.0000
  C   C65       1.0  0.51275  0.888  0.10031999999999998  1.0000
  C   C66       1.0  0.46738  0.9228400000000001  0.06738  1.0000
  C   C67       1.0  0.36547999999999997  0.92703  0.06426  1.0000
  C   C68       1.0  0.31989  0.96354  0.03573  1.0000
  C   C69       1.0  0.21152  0.9661200000000001  0.03272  1.0000
  C   C70       1.0  0.30571  0.89575  0.09422  1.0000
  C   C71       1.0  0.25076  0.9419  0.12585  1.0000
  C   C72       1.0  0.30354  0.82002  0.09334  1.0000
  C   C73       1.0  0.25429  0.7948600000000002  0.12475  1.0000
  C   C74       1.0  0.20246  0.9129100000000001  0.15600999999999995  1.0000
  C   C75       1.0  0.96052  0.80132  0.2188  1.0000
  C   C76       1.0  0.00291  0.76576  0.25231  1.0000
  C   C77       1.0  0.1435  0.7197  0.27551  1.0000
  C   C78       1.0  0.08923  0.6930900000000002  0.3053  1.0000
  C   C79       1.0  0.95095  0.7411900000000001  0.28361  1.0000
  C   C80       1.0  0.84393  0.75231  0.29149  1.0000
  C   C81       1.0  0.14762  0.9839600000000004  0.27449  1.0000
  C   C82       1.0  0.03925  0.9874300000000001  0.27386  1.0000
  C   C83       1.0  0.9854  0.015310000000000002  0.24441  1.0000
  C   C84       1.0  0.90092  0.9475000000000002  0.30035  1.0000
  C   C85       1.0  0.84542  0.97351  0.27071  1.0000
  C   C86       1.0  0.02607  0.053079999999999974  0.21147999999999995  1.0000
  C   C87       1.0  0.78213  0.16887  0.15332  1.0000
  C   C88       1.0  0.73707  0.05005  0.11928  1.0000
  C   C89       1.0  0.69029  0.07547  0.0874  1.0000
  C   C90       1.0  0.73579  0.19803  0.12273  1.0000
  C   C91       1.0  0.68572  0.15148000000000003  0.08939  1.0000
  C   C92       1.0  0.78344  0.22577  0.03054  1.0000
  C   C93       1.0  0.6750999999999999  0.21952  0.03077  1.0000
  C   C94       1.0  0.62792  0.18197  0.05853999999999999  1.0000
  C   C95       1.0  0.52615  0.1757  0.05987  1.0000
  C   C96       1.0  0.4782799999999999  0.14177  0.09282999999999997  1.0000
  C   C97       1.0  0.52478  0.96486  0.27793  1.0000
  C   C98       1.0  0.48258  0.0015600000000000017  0.24484  1.0000
  C   C99       1.0  0.34277  0.04944000000000002  0.22194  1.0000
  C   C100      1.0  0.39643  0.07023  0.18997  1.0000
  C   C101      1.0  0.53418  0.021970000000000014  0.21206  1.0000
  C   C102      1.0  0.64067  0.007400000000000005  0.2041  1.0000
  C   C103      1.0  0.29237  0.85757  0.3366099999999999  1.0000
  C   C104      1.0  0.23769999999999997  0.97083  0.37573  1.0000
  C   C105      1.0  0.24887  0.8209200000000002  0.36473  1.0000
  C   C106      1.0  0.19336  0.9380000000000001  0.40511999999999987  1.0000
  C   C107      1.0  0.19495  0.8608300000000001  0.3990399999999999  1.0000
  C   C108      1.0  0.29158  0.7812800000000001  0.45527  1.0000
  C   C109      1.0  0.18326  0.78733  0.4551  1.0000
  C   C110      1.0  0.13655  0.82485  0.42723  1.0000
  C   C111      1.0  0.03488  0.83139  0.42562  1.0000
  C   C112      1.0  0.98571  0.8669300000000001  0.39386  1.0000
  C   C113      1.0  0.85272  0.22846  0.2773099999999999  1.0000
  C   C114      1.0  0.97738  0.29028  0.21382  1.0000
  C   C115      1.0  0.01662  0.25271  0.24696  1.0000
  C   C116      1.0  0.96125  0.22963000000000003  0.27771  1.0000
  C   C117      1.0  0.15349  0.20654000000000003  0.27296  1.0000
  C   C118      1.0  0.09686  0.18649000000000002  0.30432  1.0000
  C   C119      1.0  0.71178  0.10059000000000004  0.34334  1.0000
  C   C120      1.0  0.7547  0.06592000000000003  0.37255  1.0000
  C   C121      1.0  0.7678899999999999  0.21501  0.3803699999999999  1.0000
  C   C122      1.0  0.81044  0.18427999999999997  0.4110999999999999  1.0000
  C   C123      1.0  0.80824  0.10747000000000002  0.40659  1.0000
  C   C124      1.0  0.7116799999999999  0.03562  0.4669  1.0000
  C   C125      1.0  0.8201199999999997  0.03831999999999996  0.4649599999999999  1.0000
  C   C126      1.0  0.86646  0.07297  0.43558  1.0000
  C   C127      1.0  0.96812  0.07741999999999997  0.4326299999999999  1.0000
  C   C128      1.0  0.01495  0.11160999999999995  0.3995299999999999  1.0000
  C   C129      1.0  0.98739  0.38701  0.60007  1.0000
  C   C130      1.0  0.03242  0.42191000000000006  0.56703  1.0000
  C   C131      1.0  0.13427  0.42632  0.56377  1.0000
  C   C132      1.0  0.17982  0.46347  0.53549  1.0000
  C   C133      1.0  0.28822  0.4656100000000001  0.53234  1.0000
  C   C134      1.0  0.19402  0.39513000000000004  0.59373  1.0000
  C   C135      1.0  0.24864  0.4415099999999999  0.6254899999999998  1.0000
  C   C136      1.0  0.19616  0.31942000000000004  0.59285  1.0000
  C   C137      1.0  0.24553  0.29441000000000006  0.6242499999999999  1.0000
  C   C138      1.0  0.29685  0.41273999999999994  0.6557299999999998  1.0000
  C   C139      1.0  0.53943  0.30134000000000005  0.7179099999999999  1.0000
  C   C140      1.0  0.49685  0.26598  0.75153  1.0000
  C   C141      1.0  0.35582  0.22063999999999992  0.7750299999999998  1.0000
  C   C142      1.0  0.40991999999999995  0.19374999999999995  0.8047299999999997  1.0000
  C   C143      1.0  0.54865  0.24096999999999993  0.7826899999999998  1.0000
  C   C144      1.0  0.65569  0.25145000000000006  0.79048  1.0000
  C   C145      1.0  0.35218  0.48488  0.7746099999999998  1.0000
  C   C146      1.0  0.46054  0.4882500000000001  0.77403  1.0000
  C   C147      1.0  0.51447  0.5158000000000001  0.74447  1.0000
  C   C148      1.0  0.59861  0.4478500000000001  0.80033  1.0000
  C   C149      1.0  0.6541999999999999  0.47356000000000004  0.77058  1.0000
  C   C150      1.0  0.4739999999999999  0.5531300000000002  0.71136  1.0000
  C   C151      1.0  0.7174  0.6691300000000002  0.65318  1.0000
  C   C152      1.0  0.76281  0.5504799999999999  0.6191599999999998  1.0000
  C   C153      1.0  0.80941  0.57609  0.5873  1.0000
  C   C154      1.0  0.76368  0.6985200000000001  0.6226199999999997  1.0000
  C   C155      1.0  0.81384  0.65213  0.5893199999999997  1.0000
  C   C156      1.0  0.71751  0.72692  0.53042  1.0000
  C   C157      1.0  0.8258499999999999  0.72065  0.53089  1.0000
  C   C158      1.0  0.87219  0.6825900000000003  0.55862  1.0000
  C   C159      1.0  0.97379  0.67516  0.5599  1.0000
  C   C160      1.0  0.02083  0.64084  0.5928699999999998  1.0000
  C   C161      1.0  0.97525  0.46521  0.77821  1.0000
  C   C162      1.0  0.017880000000000007  0.50263  0.74553  1.0000
  C   C163      1.0  0.15822999999999998  0.54973  0.72254  1.0000
  C   C164      1.0  0.10493  0.57067  0.69053  1.0000
  C   C165      1.0  0.96663  0.52361  0.7128699999999998  1.0000
  C   C166      1.0  0.86053  0.50885  0.70445  1.0000
  C   C167      1.0  0.20879  0.35680000000000006  0.83667  1.0000
  C   C168      1.0  0.26321  0.47021  0.8758  1.0000
  C   C169      1.0  0.25289  0.3202900000000001  0.86469  1.0000
  C   C170      1.0  0.30813  0.43750000000000006  0.9051  1.0000
  C   C171      1.0  0.30716  0.36032  0.89891  1.0000
  C   C172      1.0  0.21136999999999997  0.2804899999999999  0.9551099999999998  1.0000
  C   C173      1.0  0.31971  0.2864  0.95464  1.0000
  C   C174      1.0  0.36624  0.32420000000000004  0.9268299999999999  1.0000
  C   C175      1.0  0.468  0.33028  0.9246  1.0000
  C   C176      1.0  0.51582  0.36629  0.89269  1.0000
  C   C177      1.0  0.64731  0.72737  0.7770399999999997  1.0000
  C   C178      1.0  0.52243  0.7923800000000001  0.7143899999999997  1.0000
  C   C179      1.0  0.48355  0.75336  0.747  1.0000
  C   C180      1.0  0.53889  0.7292600000000001  0.7773899999999998  1.0000
  C   C181      1.0  0.34624  0.70732  0.77297  1.0000
  C   C182      1.0  0.40291  0.6867199999999999  0.8040999999999998  1.0000
  C   C183      1.0  0.78843  0.60198  0.8434499999999998  1.0000
  C   C184      1.0  0.74509  0.5666  0.87225  1.0000
  C   C185      1.0  0.73197  0.71587  0.88092  1.0000
  C   C186      1.0  0.68892  0.6843900000000002  0.91124  1.0000
  C   C187      1.0  0.69136  0.60751  0.90637  1.0000
  C   C188      1.0  0.7880599999999999  0.53511  0.96635  1.0000
  C   C189      1.0  0.67964  0.5374700000000001  0.9643599999999998  1.0000
  C   C190      1.0  0.63323  0.57243  0.93516  1.0000
  C   C191      1.0  0.53158  0.5768900000000001  0.93236  1.0000
  C   C192      1.0  0.48455  0.6113600000000001  0.89945  1.0000
  C   C193      1.0  0.4872499999999999  0.1119999999999999  0.8996799999999998  1.0000
  C   C194      1.0  0.53263  0.07715999999999998  0.93262  1.0000
  C   C195      1.0  0.63453  0.07297000000000001  0.93574  1.0000
  C   C196      1.0  0.68011  0.036460000000000034  0.96427  1.0000
  C   C197      1.0  0.78849  0.03387999999999991  0.9672799999999998  1.0000
  C   C198      1.0  0.69429  0.10426000000000002  0.90578  1.0000
  C   C199      1.0  0.7492499999999999  0.058110000000000016  0.87415  1.0000
  C   C200      1.0  0.69646  0.17997999999999992  0.9066599999999998  1.0000
  C   C201      1.0  0.74571  0.20515000000000005  0.87526  1.0000
  C   C202      1.0  0.79755  0.08708999999999997  0.84399  1.0000
  C   C203      1.0  0.039479999999999994  0.19869000000000003  0.78121  1.0000
  C   C204      1.0  0.9970899999999999  0.23424000000000006  0.74769  1.0000
  C   C205      1.0  0.8565  0.28031  0.72449  1.0000
  C   C206      1.0  0.91077  0.30692  0.6946999999999998  1.0000
  C   C207      1.0  0.04906  0.25881  0.71639  1.0000
  C   C208      1.0  0.15608  0.24769000000000002  0.70851  1.0000
  C   C209      1.0  0.85239  0.01604999999999997  0.72551  1.0000
  C   C210      1.0  0.96075  0.012569999999999991  0.72614  1.0000
  C   C211      1.0  0.01461  0.9846900000000001  0.75559  1.0000
  C   C212      1.0  0.09907999999999999  0.05250999999999995  0.6996499999999999  1.0000
  C   C213      1.0  0.15458  0.02649000000000001  0.72929  1.0000
  C   C214      1.0  0.97393  0.94692  0.78852  1.0000
  C   C215      1.0  0.21788  0.8311400000000002  0.84668  1.0000
  C   C216      1.0  0.26294  0.9499600000000001  0.88073  1.0000
  C   C217      1.0  0.30971  0.9245300000000001  0.9126099999999998  1.0000
  C   C218      1.0  0.26422  0.80197  0.87727  1.0000
  C   C219      1.0  0.31429  0.8485300000000002  0.91061  1.0000
  C   C220      1.0  0.21657  0.7742300000000001  0.96946  1.0000
  C   C221      1.0  0.32491  0.78048  0.96923  1.0000
  C   C222      1.0  0.3720799999999999  0.81803  0.94146  1.0000
  C   C223      1.0  0.47385  0.8243  0.94013  1.0000
  C   C224      1.0  0.52172  0.8582400000000001  0.9071699999999998  1.0000
  C   C225      1.0  0.47523  0.035139999999999914  0.7220699999999998  1.0000
  C   C226      1.0  0.51742  0.99844  0.7551599999999998  1.0000
  C   C227      1.0  0.65724  0.95056  0.77806  1.0000
  C   C228      1.0  0.60357  0.9297700000000001  0.8100299999999998  1.0000
  C   C229      1.0  0.46582  0.9780299999999998  0.7879399999999998  1.0000
  C   C230      1.0  0.35933  0.9926  0.7959  1.0000
  C   C231      1.0  0.70763  0.14243  0.6633899999999998  1.0000
  C   C232      1.0  0.7623  0.02917000000000003  0.62427  1.0000
  C   C233      1.0  0.75114  0.17909  0.63527  1.0000
  C   C234      1.0  0.80664  0.06201000000000001  0.59488  1.0000
  C   C235      1.0  0.80505  0.13917  0.60096  1.0000
  C   C236      1.0  0.70842  0.21872000000000003  0.54473  1.0000
  C   C237      1.0  0.8167499999999999  0.2126800000000001  0.5449  1.0000
  C   C238      1.0  0.8634499999999998  0.17516000000000007  0.57277  1.0000
  C   C239      1.0  0.96512  0.16861000000000007  0.57438  1.0000
  C   C240      1.0  0.0143  0.13307  0.60615  1.0000
  C   C241      1.0  0.14728  0.77154  0.72269  1.0000
  C   C242      1.0  0.02262  0.70972  0.78618  1.0000
  C   C243      1.0  0.98339  0.7472900000000001  0.75304  1.0000
  C   C244      1.0  0.03876  0.77037  0.72229  1.0000
  C   C245      1.0  0.84651  0.7934599999999999  0.72704  1.0000
  C   C246      1.0  0.9031499999999999  0.8135099999999998  0.69568  1.0000
  C   C247      1.0  0.28822  0.89942  0.65666  1.0000
  C   C248      1.0  0.2453  0.93408  0.6274499999999997  1.0000
  C   C249      1.0  0.23210999999999996  0.785  0.6196299999999998  1.0000
  C   C250      1.0  0.18956  0.81572  0.5888999999999998  1.0000
  C   C251      1.0  0.19177  0.8925300000000002  0.59341  1.0000
  C   C252      1.0  0.28832  0.9643900000000002  0.5331  1.0000
  C   C253      1.0  0.17988  0.96169  0.53504  1.0000
  C   C254      1.0  0.13354  0.92703  0.56442  1.0000
  C   C255      1.0  0.03188  0.92259  0.5673699999999998  1.0000
  C   C256      1.0  0.98505  0.8883900000000001  0.60047  1.0000
  N   N1        1.0  0.70684  0.6594800000000002  0.34399999999999986  1.0000
  N   N2        1.0  0.59963  0.74287  0.25066  1.0000
  N   N3        1.0  0.49513999999999997  0.79518  0.19068  1.0000
  N   N4        1.0  0.49714  0.5444400000000001  0.19744  1.0000
  N   N5        1.0  0.38885999999999993  0.49129  0.2561299999999999  1.0000
  N   N6        1.0  0.28063  0.4036  0.34776999999999997  1.0000
  N   N7        1.0  0.8866399999999999  0.48406  0.25055  1.0000
  N   N8        1.0  0.98954  0.442  0.31461  1.0000
  N   N9        1.0  0.78369  0.56949  0.15846  1.0000
  N   N10       1.0  0.6123  0.2585200000000001  0.25464  1.0000
  N   N11       1.0  0.50185  0.30271  0.1934  1.0000
  N   N12       1.0  0.22054  0.32464999999999994  0.15285  1.0000
  N   N13       1.0  0.20638999999999993  0.8407600000000001  0.15642  1.0000
  N   N14       1.0  0.09934999999999998  0.75662  0.24995  1.0000
  N   N15       1.0  0.9945099999999999  0.70493  0.31021  1.0000
  N   N16       1.0  0.99678  0.9547900000000001  0.3023999999999999  1.0000
  N   N17       1.0  0.88869  0.00852999999999997  0.24394999999999994  1.0000
  N   N18       1.0  0.78038  0.09614  0.15237999999999993  1.0000
  N   N19       1.0  0.38724  0.015439999999999994  0.24884  1.0000
  N   N20       1.0  0.49072  0.05683999999999998  0.18471999999999994  1.0000
  N   N21       1.0  0.28446  0.93123  0.34147  1.0000
  N   N22       1.0  0.11231  0.24047  0.24519  1.0000
  N   N23       1.0  0.00173  0.19775  0.30702  1.0000
  N   N24       1.0  0.72098  0.17386  0.34655  1.0000
  N   N25       1.0  0.29316  0.3405200000000001  0.656  1.0000
  N   N26       1.0  0.40037  0.25714  0.74934  1.0000
  N   N27       1.0  0.50486  0.2048300000000001  0.80932  1.0000
  N   N28       1.0  0.50286  0.45556  0.8025599999999998  1.0000
  N   N29       1.0  0.61114  0.5087200000000001  0.7438799999999998  1.0000
  N   N30       1.0  0.7193799999999999  0.5964  0.65224  1.0000
  N   N31       1.0  0.11336  0.5159399999999998  0.7494599999999998  1.0000
  N   N32       1.0  0.010459999999999999  0.55801  0.68539  1.0000
  N   N33       1.0  0.21631  0.43051  0.84154  1.0000
  N   N34       1.0  0.3877  0.7414800000000001  0.74537  1.0000
  N   N35       1.0  0.49815  0.6972900000000002  0.80661  1.0000
  N   N36       1.0  0.7794699999999999  0.67535  0.84715  1.0000
  N   N37       1.0  0.79361  0.15924000000000005  0.84358  1.0000
  N   N38       1.0  0.90065  0.24338  0.75005  1.0000
  N   N39       1.0  0.0055  0.29507  0.68979  1.0000
  N   N40       1.0  0.00323  0.04520999999999993  0.6975999999999998  1.0000
  N   N41       1.0  0.11132  0.99147  0.75605  1.0000
  N   N42       1.0  0.21962  0.90387  0.84762  1.0000
  N   N43       1.0  0.61276  0.98456  0.75116  1.0000
  N   N44       1.0  0.50928  0.9431600000000001  0.81528  1.0000
  N   N45       1.0  0.71554  0.06877999999999995  0.6585299999999997  1.0000
  N   N46       1.0  0.8876899999999999  0.7595400000000001  0.7548099999999998  1.0000
  N   N47       1.0  0.99827  0.80225  0.69298  1.0000
  N   N48       1.0  0.27902  0.82614  0.65345  1.0000
  O   O1        1.0  0.8632  0.50196  0.48948999999999987  1.0000
  O   O2        1.0  0.02806  0.5525500000000001  0.45614  1.0000
  O   O3        1.0  0.52329  0.6760800000000001  0.30606  1.0000
  O   O4        1.0  0.37161999999999995  0.69448  0.28543  1.0000
  O   O5        1.0  0.29422  0.80371  0.22934999999999994  1.0000
  O   O6        1.0  0.31448  0.69351  0.18296  1.0000
  O   O7        1.0  0.68626  0.57186  0.24798999999999993  1.0000
  O   O8        1.0  0.69579  0.46527  0.19981  1.0000
  O   O9        1.0  0.61479  0.43965  0.29144  1.0000
  O   O10       1.0  0.46266  0.4251400000000001  0.31246  1.0000
  O   O11       1.0  0.9667  0.30132  0.46452  1.0000
  O   O12       1.0  0.1317  0.24736000000000002  0.4954  1.0000
  O   O13       1.0  0.96221  0.5529200000000001  0.196  1.0000
  O   O14       1.0  0.11284999999999998  0.54541  0.22084999999999994  1.0000
  O   O15       1.0  0.19436  0.43982  0.27479  1.0000
  O   O16       1.0  0.16383  0.54628  0.3232299999999999  1.0000
  O   O17       1.0  0.63816  0.74519  0.01881  1.0000
  O   O18       1.0  0.47204  0.69475  0.05169  1.0000
  O   O19       1.0  0.31432  0.3265199999999999  0.24794  1.0000
  O   O20       1.0  0.30489  0.22503  0.19575  1.0000
  O   O21       1.0  0.38974  0.19599000000000003  0.28731  1.0000
  O   O22       1.0  0.54214  0.18883  0.31016  1.0000
  O   O23       1.0  0.36286  0.49427  0.00927  1.0000
  O   O24       1.0  0.52845  0.44743000000000005  0.04373  1.0000
  O   O25       1.0  0.36314  0.99691  0.01023  1.0000
  O   O26       1.0  0.52777  0.94859  0.04419  1.0000
  O   O27       1.0  0.02341  0.8258000000000002  0.1957  1.0000
  O   O28       1.0  0.87161  0.80391  0.21467999999999995  1.0000
  O   O29       1.0  0.79305  0.69797  0.271  1.0000
  O   O30       1.0  0.81479  0.8069700000000001  0.3185699999999999  1.0000
  O   O31       1.0  0.18606  0.92719  0.25201  1.0000
  O   O32       1.0  0.19574  0.03378  0.30008  1.0000
  O   O33       1.0  0.11496  0.05952000000000001  0.20857999999999993  1.0000
  O   O34       1.0  0.96301  0.07609999999999997  0.18802999999999995  1.0000
  O   O35       1.0  0.46727  0.20012000000000002  0.03558  1.0000
  O   O36       1.0  0.63334  0.2512  0.0042099999999999985  1.0000
  O   O37       1.0  0.46207  0.9485200000000001  0.3042  1.0000
  O   O38       1.0  0.6125599999999999  0.9532  0.2789099999999999  1.0000
  O   O39       1.0  0.69446  0.05936000000000001  0.22522  1.0000
  O   O40       1.0  0.66685  0.95245  0.1768  1.0000
  O   O41       1.0  0.14129  0.7561800000000001  0.48189  1.0000
  O   O42       1.0  0.97576  0.80714  0.4499799999999999  1.0000
  O   O43       1.0  0.81407  0.17455  0.25227  1.0000
  O   O44       1.0  0.80489  0.27615  0.30434  1.0000
  O   O45       1.0  0.88976  0.30296000000000006  0.21274  1.0000
  O   O46       1.0  0.04124  0.30645  0.18808  1.0000
  O   O47       1.0  0.8627  0.007200000000000002  0.49156  1.0000
  O   O48       1.0  0.02833  0.05319999999999995  0.45645999999999987  1.0000
  O   O49       1.0  0.13681  0.4980399999999999  0.5105099999999998  1.0000
  O   O50       1.0  0.97194  0.44745  0.54386  1.0000
  O   O51       1.0  0.47671  0.32392  0.69394  1.0000
  O   O52       1.0  0.62838  0.30552  0.71457  1.0000
  O   O53       1.0  0.70578  0.19629  0.77065  1.0000
  O   O54       1.0  0.68552  0.30649999999999994  0.8170399999999998  1.0000
  O   O55       1.0  0.31373999999999996  0.42815  0.75201  1.0000
  O   O56       1.0  0.30421  0.53473  0.80019  1.0000
  O   O57       1.0  0.38521  0.56035  0.70856  1.0000
  O   O58       1.0  0.53734  0.57486  0.68754  1.0000
  O   O59       1.0  0.0333  0.69868  0.53549  1.0000
  O   O60       1.0  0.8683  0.7526400000000001  0.50461  1.0000
  O   O61       1.0  0.03779999999999999  0.4470899999999999  0.8040099999999998  1.0000
  O   O62       1.0  0.8871499999999999  0.45459  0.77915  1.0000
  O   O63       1.0  0.80564  0.5601800000000001  0.72521  1.0000
  O   O64       1.0  0.83617  0.45372999999999986  0.6767699999999998  1.0000
  O   O65       1.0  0.36184  0.25482  0.98119  1.0000
  O   O66       1.0  0.52796  0.3052500000000001  0.94831  1.0000
  O   O67       1.0  0.68568  0.67348  0.75206  1.0000
  O   O68       1.0  0.6951099999999999  0.77498  0.80425  1.0000
  O   O69       1.0  0.61026  0.8040200000000002  0.71269  1.0000
  O   O70       1.0  0.45786  0.8111700000000001  0.68984  1.0000
  O   O71       1.0  0.63714  0.50573  0.99073  1.0000
  O   O72       1.0  0.47155  0.55258  0.95627  1.0000
  O   O73       1.0  0.63686  0.00309999999999999  0.98977  1.0000
  O   O74       1.0  0.47224  0.05141999999999998  0.95582  1.0000
  O   O75       1.0  0.9765999999999999  0.17420000000000002  0.8043  1.0000
  O   O76       1.0  0.12839  0.19609000000000004  0.78532  1.0000
  O   O77       1.0  0.20695  0.30203  0.729  1.0000
  O   O78       1.0  0.18522  0.1930399999999999  0.6814399999999998  1.0000
  O   O79       1.0  0.81394  0.07281  0.748  1.0000
  O   O80       1.0  0.80426  0.96622  0.69992  1.0000
  O   O81       1.0  0.88504  0.9404900000000002  0.7914199999999998  1.0000
  O   O82       1.0  0.03699  0.92391  0.8119699999999997  1.0000
  O   O83       1.0  0.53274  0.79988  0.96442  1.0000
  O   O84       1.0  0.36666  0.7488  0.9958  1.0000
  O   O85       1.0  0.53794  0.05147999999999995  0.6957999999999998  1.0000
  O   O86       1.0  0.38744  0.04679999999999998  0.7211  1.0000
  O   O87       1.0  0.30554  0.9406500000000001  0.77478  1.0000
  O   O88       1.0  0.33315  0.04754999999999999  0.82321  1.0000
  O   O89       1.0  0.85872  0.24383  0.51811  1.0000
  O   O90       1.0  0.02425  0.1928599999999999  0.5500199999999997  1.0000
  O   O91       1.0  0.18593  0.82545  0.7477299999999998  1.0000
  O   O92       1.0  0.19511  0.72385  0.69567  1.0000
  O   O93       1.0  0.11024  0.69704  0.78727  1.0000
  O   O94       1.0  0.95876  0.6935500000000001  0.81192  1.0000
  O   O95       1.0  0.1373  0.9928100000000001  0.50845  1.0000
  O   O96       1.0  0.9716699999999999  0.94682  0.5435499999999998  1.0000
