data_image0
_chemical_formula_structural       Zn20H256C372N72O48
_chemical_formula_sum              "Zn20 H256 C372 N72 O48"
_cell_length_a       23.46988
_cell_length_b       27.058060000000005
_cell_length_c       31.189769999999996
_cell_angle_alpha    113.67024999999998
_cell_angle_beta     112.28277
_cell_angle_gamma    89.79561000000001

_space_group_name_H-M_alt    "P 1"
_space_group_IT_number       1

loop_
  _space_group_symop_operation_xyz
  'x, y, z'

loop_
  _atom_site_type_symbol
  _atom_site_label
  _atom_site_symmetry_multiplicity
  _atom_site_fract_x
  _atom_site_fract_y
  _atom_site_fract_z
  _atom_site_occupancy
  Zn  Zn1       1.0  0.30023  0.06969000000000003  0.45232  1.0000
  Zn  Zn2       1.0  0.34002  0.9967200000000003  0.53086  1.0000
  Zn  Zn3       1.0  0.38358999999999993  0.028159999999999987  0.37065999999999993  1.0000
  Zn  Zn4       1.0  0.34639  0.21503  0.5279  1.0000
  Zn  Zn5       1.0  0.13502999999999998  0.03519000000000003  0.37453  1.0000
  Zn  Zn6       1.0  0.84847  0.4307100000000001  0.54765  1.0000
  Zn  Zn7       1.0  0.80799  0.50445  0.46939  1.0000
  Zn  Zn8       1.0  0.013190000000000023  0.4721200000000001  0.62918  1.0000
  Zn  Zn9       1.0  0.81908  0.2853000000000001  0.47192999999999996  1.0000
  Zn  Zn10      1.0  0.76055  0.4650500000000001  0.62532  1.0000
  Zn  Zn11      1.0  0.69977  0.9303  0.54768  1.0000
  Zn  Zn12      1.0  0.6599799999999999  0.0032799999999999973  0.46914  1.0000
  Zn  Zn13      1.0  0.61642  0.9718300000000002  0.62934  1.0000
  Zn  Zn14      1.0  0.65361  0.78497  0.4721  1.0000
  Zn  Zn15      1.0  0.86497  0.9648100000000002  0.62547  1.0000
  Zn  Zn16      1.0  0.15154  0.5692800000000002  0.45235  1.0000
  Zn  Zn17      1.0  0.19201  0.4955500000000001  0.53061  1.0000
  Zn  Zn18      1.0  0.98681  0.52788  0.37081  1.0000
  Zn  Zn19      1.0  0.18091999999999997  0.7147000000000001  0.52807  1.0000
  Zn  Zn20      1.0  0.23945999999999998  0.53494  0.37468  1.0000
  H   H1        1.0  0.05219999999999997  0.14074000000000003  0.38318  1.0000
  H   H2        1.0  0.03844999999999999  0.23913  0.40962  1.0000
  H   H3        1.0  0.12963  0.31479000000000007  0.46665  1.0000
  H   H4        1.0  0.2374  0.2958300000000001  0.50031  1.0000
  H   H5        1.0  0.47229  0.9298700000000002  0.37462  1.0000
  H   H6        1.0  0.51449  0.85647  0.40094  1.0000
  H   H7        1.0  0.4973  0.8427600000000001  0.46874  1.0000
  H   H8        1.0  0.43641  0.9009700000000002  0.51402  1.0000
  H   H9        1.0  0.23162  0.88974  0.4996399999999999  1.0000
  H   H10       1.0  0.12396  0.8379300000000001  0.46244  1.0000
  H   H11       1.0  0.03405000000000004  0.8600100000000002  0.40276  1.0000
  H   H12       1.0  0.04869  0.9353200000000002  0.37866  1.0000
  H   H13       1.0  0.49702  0.12064  0.38586  1.0000
  H   H14       1.0  0.4626  0.2856000000000001  0.52038  1.0000
  H   H15       1.0  0.54677  0.29283  0.49125  1.0000
  H   H16       1.0  0.5633399999999997  0.21227  0.42585  1.0000
  H   H17       1.0  0.42923  0.2585900000000001  0.65778  1.0000
  H   H18       1.0  0.48107  0.24831000000000011  0.73974  1.0000
  H   H19       1.0  0.46992999999999996  0.15832999999999997  0.7413  1.0000
  H   H20       1.0  0.40936999999999996  0.07341999999999994  0.66007  1.0000
  H   H21       1.0  0.08501999999999998  0.9694200000000001  0.24352  1.0000
  H   H22       1.0  0.09725  0.92348  0.16144  1.0000
  H   H23       1.0  0.20171  0.91706  0.16017  1.0000
  H   H24       1.0  0.29896  0.9568100000000002  0.24108  1.0000
  H   H25       1.0  0.97521  0.8947800000000002  0.24618999999999994  1.0000
  H   H26       1.0  0.8792500000000001  0.8538000000000002  0.16454999999999997  1.0000
  H   H27       1.0  0.85652  0.015189999999999983  0.17324  1.0000
  H   H28       1.0  0.95272  0.055270000000000014  0.25481  1.0000
  H   H29       1.0  0.82745  0.8311600000000002  0.07908999999999997  1.0000
  H   H30       1.0  0.7269799999999998  0.79334  0.00232  1.0000
  H   H31       1.0  0.65682  0.9403900000000002  0.06445  1.0000
  H   H32       1.0  0.7574  0.9782500000000001  0.14182  1.0000
  H   H33       1.0  0.61476  0.76747  0.975  1.0000
  H   H34       1.0  0.6290900000000001  0.7775800000000003  0.9267  1.0000
  H   H35       1.0  0.39133  0.04511  0.22459  1.0000
  H   H36       1.0  0.41344  0.004740000000000002  0.1459  1.0000
  H   H37       1.0  0.49791  0.88341  0.19276999999999997  1.0000
  H   H38       1.0  0.47257  0.92231  0.26988  1.0000
  H   H39       1.0  0.51651  0.99747  0.13226  1.0000
  H   H40       1.0  0.53896  0.9590600000000002  0.0544  1.0000
  H   H41       1.0  0.45055  0.7985300000000002  0.0155  1.0000
  H   H42       1.0  0.43061999999999995  0.83647  0.09365  1.0000
  H   H43       1.0  0.4497499999999999  0.7866100000000001  0.9348399999999999  1.0000
  H   H44       1.0  0.5166799999999999  0.7806400000000002  0.9834999999999999  1.0000
  H   H45       1.0  0.5388099999999998  0.86506  0.9211499999999999  1.0000
  H   H46       1.0  0.55559  0.81243  0.87229  1.0000
  H   H47       1.0  0.46514  0.35449  0.67514  1.0000
  H   H48       1.0  0.5071699999999998  0.4504599999999999  0.7431899999999998  1.0000
  H   H49       1.0  0.38841  0.5103  0.63783  1.0000
  H   H50       1.0  0.35079000000000005  0.4146400000000001  0.56881  1.0000
  H   H51       1.0  0.57071  0.54251  0.75188  1.0000
  H   H52       1.0  0.60642  0.63794  0.82099  1.0000
  H   H53       1.0  0.4162199999999999  0.6524599999999999  0.8000699999999997  1.0000
  H   H54       1.0  0.38063  0.55818  0.7308  1.0000
  H   H55       1.0  0.5079499999999999  0.7010400000000001  0.9067599999999999  1.0000
  H   H56       1.0  0.45711  0.72422  0.86222  1.0000
  H   H57       1.0  0.34227  0.8322600000000002  0.57078  1.0000
  H   H58       1.0  0.3622  0.8021500000000003  0.63987  1.0000
  H   H59       1.0  0.43534000000000006  0.96973  0.75322  1.0000
  H   H60       1.0  0.41467  0.9987600000000001  0.68382  1.0000
  H   H61       1.0  0.3339200000000001  0.8017800000000002  0.70372  1.0000
  H   H62       1.0  0.36397999999999997  0.7700500000000001  0.7724399999999998  1.0000
  H   H63       1.0  0.5298  0.8940600000000002  0.86183  1.0000
  H   H64       1.0  0.50057  0.92423  0.79273  1.0000
  H   H65       1.0  0.66909  0.3593  0.61598  1.0000
  H   H66       1.0  0.63003  0.26078  0.58938  1.0000
  H   H67       1.0  0.6647300000000002  0.18548000000000003  0.53234  1.0000
  H   H68       1.0  0.7385899999999999  0.20521  0.49898999999999993  1.0000
  H   H69       1.0  0.09738  0.56999  0.62502  1.0000
  H   H70       1.0  0.11288  0.64336  0.59874  1.0000
  H   H71       1.0  0.027429999999999993  0.6573800000000002  0.53103  1.0000
  H   H72       1.0  0.9211  0.59967  0.48591999999999996  1.0000
  H   H73       1.0  0.731  0.61239  0.50178  1.0000
  H   H74       1.0  0.66121  0.66434  0.53966  1.0000
  H   H75       1.0  0.6313  0.64164  0.59889  1.0000
  H   H76       1.0  0.6702799999999998  0.5656200000000001  0.62214  1.0000
  H   H77       1.0  0.11202  0.37933  0.61409  1.0000
  H   H78       1.0  0.9427500000000001  0.21479000000000004  0.47959999999999997  1.0000
  H   H79       1.0  0.056239999999999964  0.20706  0.50894  1.0000
  H   H80       1.0  0.13832  0.28741  0.57448  1.0000
  H   H81       1.0  0.77211  0.24251000000000003  0.34235  1.0000
  H   H82       1.0  0.74208  0.25288  0.26048  1.0000
  H   H83       1.0  0.72908  0.34293  0.259  1.0000
  H   H84       1.0  0.7492299999999998  0.4277900000000001  0.34014  1.0000
  H   H85       1.0  0.84185  0.52995  0.75604  1.0000
  H   H86       1.0  0.9363  0.57595  0.83829  1.0000
  H   H87       1.0  0.04205999999999993  0.5826400000000003  0.83978  1.0000
  H   H88       1.0  0.05837999999999994  0.54339  0.75905  1.0000
  H   H89       1.0  0.72642  0.60327  0.7519  1.0000
  H   H90       1.0  0.71182  0.64506  0.83322  1.0000
  H   H91       1.0  0.68484  0.48471  0.8274499999999998  1.0000
  H   H92       1.0  0.69995  0.4437700000000001  0.74625  1.0000
  H   H93       1.0  0.74878  0.66831  0.91995  1.0000
  H   H94       1.0  0.72638  0.7068900000000001  0.99724  1.0000
  H   H95       1.0  0.59438  0.5606  0.93648  1.0000
  H   H96       1.0  0.61623  0.52188  0.85856  1.0000
  H   H97       1.0  0.64051  0.73237  0.02436  1.0000
  H   H98       1.0  0.70377  0.72415  0.07386  1.0000
  H   H99       1.0  0.16693999999999995  0.45550999999999997  0.7747299999999999  1.0000
  H   H100      1.0  0.26808  0.49546000000000007  0.85354  1.0000
  H   H101      1.0  0.30593  0.61597  0.80621  1.0000
  H   H102      1.0  0.20322999999999997  0.5772200000000002  0.72896  1.0000
  H   H103      1.0  0.3854  0.50276  0.86759  1.0000
  H   H104      1.0  0.48619  0.54161  0.94537  1.0000
  H   H105      1.0  0.43558  0.7020200000000002  0.98357  1.0000
  H   H106      1.0  0.33703999999999995  0.6637799999999999  0.9055499999999997  1.0000
  H   H107      1.0  0.51562  0.71385  0.06385  1.0000
  H   H108      1.0  0.53424  0.7197100000000002  0.01548  1.0000
  H   H109      1.0  0.61901  0.6352800000000001  0.07814999999999998  1.0000
  H   H110      1.0  0.6839300000000001  0.68796  0.1278  1.0000
  H   H111      1.0  0.79195  0.14587999999999998  0.32531999999999994  1.0000
  H   H112      1.0  0.7662100000000001  0.05001999999999999  0.25717  1.0000
  H   H113      1.0  0.74825  0.9903200000000001  0.36095  1.0000
  H   H114      1.0  0.7797399999999999  0.08571000000000002  0.43011  1.0000
  H   H115      1.0  0.81917  0.95754  0.24763  1.0000
  H   H116      1.0  0.78596  0.8621000000000002  0.17877  1.0000
  H   H117      1.0  0.6169399999999999  0.84789  0.19970999999999997  1.0000
  H   H118      1.0  0.65039  0.94233  0.26882  1.0000
  H   H119      1.0  0.60249  0.79935  0.09236  1.0000
  H   H120      1.0  0.59468  0.7763100000000002  0.13639  1.0000
  H   H121      1.0  0.77001  0.6681000000000001  0.42866999999999994  1.0000
  H   H122      1.0  0.72233  0.69883  0.35966  1.0000
  H   H123      1.0  0.6800799999999999  0.5310200000000002  0.24619999999999997  1.0000
  H   H124      1.0  0.72711  0.5014600000000001  0.31548999999999994  1.0000
  H   H125      1.0  0.63132  0.70056  0.29564  1.0000
  H   H126      1.0  0.59244  0.73154  0.22645999999999997  1.0000
  H   H127      1.0  0.66772  0.6055400000000002  0.13747  1.0000
  H   H128      1.0  0.7077699999999999  0.57607  0.20708  1.0000
  H   H129      1.0  0.9478  0.85926  0.61682  1.0000
  H   H130      1.0  0.9615499999999999  0.7608700000000003  0.59038  1.0000
  H   H131      1.0  0.87037  0.68521  0.53334  1.0000
  H   H132      1.0  0.7626  0.7041600000000002  0.49968999999999997  1.0000
  H   H133      1.0  0.52771  0.07012000000000002  0.62538  1.0000
  H   H134      1.0  0.48551  0.14353  0.59906  1.0000
  H   H135      1.0  0.5027  0.15724  0.53126  1.0000
  H   H136      1.0  0.56359  0.09902000000000004  0.48598  1.0000
  H   H137      1.0  0.76839  0.11025  0.50036  1.0000
  H   H138      1.0  0.87604  0.16206  0.53755  1.0000
  H   H139      1.0  0.9659499999999999  0.13999000000000003  0.59723  1.0000
  H   H140      1.0  0.95132  0.06467999999999999  0.62134  1.0000
  H   H141      1.0  0.50298  0.87936  0.61414  1.0000
  H   H142      1.0  0.5374  0.7143900000000002  0.47962  1.0000
  H   H143      1.0  0.45322999999999997  0.70716  0.50875  1.0000
  H   H144      1.0  0.43666  0.78772  0.57415  1.0000
  H   H145      1.0  0.5707800000000002  0.7414100000000001  0.34221  1.0000
  H   H146      1.0  0.51893  0.75168  0.26026  1.0000
  H   H147      1.0  0.53008  0.8416600000000002  0.2587  1.0000
  H   H148      1.0  0.59063  0.9265799999999998  0.33992999999999995  1.0000
  H   H149      1.0  0.91498  0.030579999999999996  0.75648  1.0000
  H   H150      1.0  0.9027499999999999  0.07650999999999994  0.83856  1.0000
  H   H151      1.0  0.7983  0.08293999999999999  0.83983  1.0000
  H   H152      1.0  0.70104  0.04317999999999999  0.75892  1.0000
  H   H153      1.0  0.02479999999999999  0.10521999999999995  0.75382  1.0000
  H   H154      1.0  0.12075999999999996  0.14619999999999997  0.8354599999999999  1.0000
  H   H155      1.0  0.14347999999999994  0.98481  0.8267499999999998  1.0000
  H   H156      1.0  0.04726999999999992  0.9447400000000001  0.74518  1.0000
  H   H157      1.0  0.17256000000000007  0.16884  0.92091  1.0000
  H   H158      1.0  0.27302  0.20666  0.99768  1.0000
  H   H159      1.0  0.34319  0.05960999999999999  0.93555  1.0000
  H   H160      1.0  0.2426  0.021749999999999988  0.85818  1.0000
  H   H161      1.0  0.38525  0.23253  0.025  1.0000
  H   H162      1.0  0.37091  0.22242000000000006  0.0733  1.0000
  H   H163      1.0  0.60868  0.9548900000000001  0.7754  1.0000
  H   H164      1.0  0.5865599999999999  0.9952600000000001  0.8540999999999999  1.0000
  H   H165      1.0  0.50209  0.11658999999999999  0.80723  1.0000
  H   H166      1.0  0.52744  0.07767999999999999  0.73012  1.0000
  H   H167      1.0  0.48349000000000003  0.002519999999999999  0.86774  1.0000
  H   H168      1.0  0.46104999999999996  0.04092999999999987  0.9455999999999998  1.0000
  H   H169      1.0  0.54946  0.20147000000000007  0.9845  1.0000
  H   H170      1.0  0.5693899999999998  0.16353  0.9063499999999999  1.0000
  H   H171      1.0  0.55025  0.21338  0.06516  1.0000
  H   H172      1.0  0.48332  0.21935  0.0165  1.0000
  H   H173      1.0  0.4612  0.13493000000000002  0.07885  1.0000
  H   H174      1.0  0.44441  0.18757000000000001  0.12771  1.0000
  H   H175      1.0  0.53486  0.6455000000000002  0.3248599999999999  1.0000
  H   H176      1.0  0.49283  0.54953  0.25681  1.0000
  H   H177      1.0  0.61159  0.48969000000000007  0.36217  1.0000
  H   H178      1.0  0.64922  0.58536  0.43119  1.0000
  H   H179      1.0  0.42929000000000006  0.45749  0.24812  1.0000
  H   H180      1.0  0.39358  0.3620600000000001  0.17901  1.0000
  H   H181      1.0  0.5837799999999999  0.34753  0.19993  1.0000
  H   H182      1.0  0.61938  0.44181000000000004  0.2692  1.0000
  H   H183      1.0  0.49205  0.2989600000000001  0.09324  1.0000
  H   H184      1.0  0.54289  0.2757800000000001  0.13777  1.0000
  H   H185      1.0  0.6577299999999999  0.16773  0.42922  1.0000
  H   H186      1.0  0.6378  0.19784000000000004  0.36012999999999995  1.0000
  H   H187      1.0  0.56466  0.03025999999999998  0.24677999999999997  1.0000
  H   H188      1.0  0.58533  0.0012299999999999909  0.31618  1.0000
  H   H189      1.0  0.66609  0.19822  0.29628  1.0000
  H   H190      1.0  0.63603  0.22994000000000003  0.22756  1.0000
  H   H191      1.0  0.4702100000000001  0.10594  0.13817  1.0000
  H   H192      1.0  0.49944  0.07577  0.20727  1.0000
  H   H193      1.0  0.33092  0.6407000000000003  0.38402  1.0000
  H   H194      1.0  0.36998  0.7392200000000002  0.41062  1.0000
  H   H195      1.0  0.3352699999999999  0.8145199999999999  0.46765999999999996  1.0000
  H   H196      1.0  0.26142  0.7947900000000002  0.50101  1.0000
  H   H197      1.0  0.90262  0.43000000000000005  0.37498  1.0000
  H   H198      1.0  0.8871299999999999  0.3566300000000001  0.40125999999999995  1.0000
  H   H199      1.0  0.9725700000000002  0.34262  0.46897  1.0000
  H   H200      1.0  0.07889999999999997  0.40033  0.51407  1.0000
  H   H201      1.0  0.269  0.3876  0.49822  1.0000
  H   H202      1.0  0.3388  0.33566  0.46034  1.0000
  H   H203      1.0  0.36871  0.35836  0.40111  1.0000
  H   H204      1.0  0.3297300000000001  0.43438  0.37786  1.0000
  H   H205      1.0  0.8879799999999998  0.6206700000000003  0.38591  1.0000
  H   H206      1.0  0.057250000000000016  0.7852  0.5204  1.0000
  H   H207      1.0  0.94377  0.79293  0.49106  1.0000
  H   H208      1.0  0.8616799999999999  0.7125800000000002  0.42552  1.0000
  H   H209      1.0  0.22790000000000002  0.75749  0.65765  1.0000
  H   H210      1.0  0.25792  0.7471100000000002  0.73952  1.0000
  H   H211      1.0  0.27093  0.65707  0.74099  1.0000
  H   H212      1.0  0.25077000000000005  0.57221  0.65986  1.0000
  H   H213      1.0  0.15814999999999999  0.4700500000000001  0.24395  1.0000
  H   H214      1.0  0.06371  0.4240500000000001  0.16171  1.0000
  H   H215      1.0  0.9579400000000001  0.41736000000000006  0.16022  1.0000
  H   H216      1.0  0.94162  0.45660000000000006  0.24094999999999994  1.0000
  H   H217      1.0  0.27359  0.39675  0.24811  1.0000
  H   H218      1.0  0.28818  0.35494  0.16679  1.0000
  H   H219      1.0  0.31515  0.51528  0.17254  1.0000
  H   H220      1.0  0.30006  0.55624  0.25374  1.0000
  H   H221      1.0  0.25122  0.33168  0.08005  1.0000
  H   H222      1.0  0.27363  0.29311000000000004  0.00276  1.0000
  H   H223      1.0  0.40562  0.4393900000000001  0.06352  1.0000
  H   H224      1.0  0.38376999999999994  0.47811  0.14144  1.0000
  H   H225      1.0  0.35949999999999993  0.26763  0.97564  1.0000
  H   H226      1.0  0.2962300000000001  0.2758400000000001  0.92613  1.0000
  H   H227      1.0  0.83307  0.5444900000000001  0.22527  1.0000
  H   H228      1.0  0.73193  0.50454  0.14646  1.0000
  H   H229      1.0  0.69407  0.38403  0.19379  1.0000
  H   H230      1.0  0.7967700000000001  0.42278  0.27104  1.0000
  H   H231      1.0  0.61461  0.4972300000000001  0.13241  1.0000
  H   H232      1.0  0.51381  0.4583900000000001  0.05462999999999999  1.0000
  H   H233      1.0  0.56443  0.29797  0.01643  1.0000
  H   H234      1.0  0.66296  0.3362200000000001  0.09444  1.0000
  H   H235      1.0  0.48438000000000003  0.28614999999999996  0.93615  1.0000
  H   H236      1.0  0.46576000000000006  0.28029  0.98452  1.0000
  H   H237      1.0  0.38099  0.36472  0.92185  1.0000
  H   H238      1.0  0.31606999999999985  0.31202999999999986  0.8721999999999998  1.0000
  H   H239      1.0  0.20804999999999998  0.8541100000000001  0.6746799999999998  1.0000
  H   H240      1.0  0.23379000000000005  0.9499800000000003  0.74283  1.0000
  H   H241      1.0  0.25175  0.009679999999999935  0.6390499999999999  1.0000
  H   H242      1.0  0.22027  0.9142800000000002  0.56988  1.0000
  H   H243      1.0  0.1808299999999999  0.042459999999999984  0.7523699999999999  1.0000
  H   H244      1.0  0.21403999999999995  0.13789999999999988  0.8212299999999999  1.0000
  H   H245      1.0  0.38307  0.1521  0.80028  1.0000
  H   H246      1.0  0.34961  0.05767  0.73118  1.0000
  H   H247      1.0  0.39751  0.20065000000000005  0.90764  1.0000
  H   H248      1.0  0.40533  0.22369  0.86361  1.0000
  H   H249      1.0  0.22999  0.33189  0.57132  1.0000
  H   H250      1.0  0.27768  0.30117000000000005  0.64034  1.0000
  H   H251      1.0  0.31993  0.46898  0.75379  1.0000
  H   H252      1.0  0.2728799999999999  0.4985300000000001  0.68451  1.0000
  H   H253      1.0  0.36867999999999995  0.29944  0.70436  1.0000
  H   H254      1.0  0.40757  0.2684600000000001  0.77354  1.0000
  H   H255      1.0  0.3322800000000001  0.39446000000000003  0.86252  1.0000
  H   H256      1.0  0.2922300000000001  0.42393000000000003  0.79292  1.0000
  C   C1        1.0  0.20410999999999996  0.20772  0.46374  1.0000
  C   C2        1.0  0.15237  0.16427000000000005  0.43012  1.0000
  C   C3        1.0  0.09125999999999994  0.17445999999999998  0.4095799999999999  1.0000
  C   C4        1.0  0.08474  0.22902  0.42406  1.0000
  C   C5        1.0  0.13678000000000004  0.27256  0.4568  1.0000
  C   C6        1.0  0.19711  0.26289  0.47678  1.0000
  C   C7        1.0  0.42055999999999993  0.94812  0.46911  1.0000
  C   C8        1.0  0.43028999999999995  0.95581  0.42989  1.0000
  C   C9        1.0  0.4652899999999999  0.92366  0.40476  1.0000
  C   C10       1.0  0.48845  0.88341  0.41991  1.0000
  C   C11       1.0  0.47845999999999994  0.8754700000000001  0.45904  1.0000
  C   C12       1.0  0.44504  0.9075500000000001  0.48466  1.0000
  C   C13       1.0  0.19911  0.9439700000000002  0.46285  1.0000
  C   C14       1.0  0.19158  0.9004400000000004  0.47514  1.0000
  C   C15       1.0  0.13146999999999998  0.8714  0.45315999999999995  1.0000
  C   C16       1.0  0.08021000000000003  0.88439  0.41921  1.0000
  C   C17       1.0  0.08729000000000005  0.9263600000000002  0.40586  1.0000
  C   C18       1.0  0.1482  0.9564800000000001  0.42846  1.0000
  C   C19       1.0  0.49023  0.15589  0.41521  1.0000
  C   C20       1.0  0.44389  0.15179000000000006  0.43257  1.0000
  C   C21       1.0  0.43453  0.19793  0.47035  1.0000
  C   C22       1.0  0.4707  0.2502  0.49201  1.0000
  C   C23       1.0  0.51667  0.25366  0.47511  1.0000
  C   C24       1.0  0.52636  0.20727  0.43749  1.0000
  C   C25       1.0  0.38609  0.11976000000000006  0.61468  1.0000
  C   C26       1.0  0.39064999999999994  0.17169  0.61408  1.0000
  C   C27       1.0  0.42476  0.21939999999999998  0.65929  1.0000
  C   C28       1.0  0.45304  0.2127900000000001  0.70411  1.0000
  C   C29       1.0  0.44698  0.16093000000000005  0.70488  1.0000
  C   C30       1.0  0.41371  0.11370000000000004  0.66064  1.0000
  C   C31       1.0  0.24591  0.9857800000000002  0.28807  1.0000
  C   C32       1.0  0.18602  0.9892900000000002  0.28884  1.0000
  C   C33       1.0  0.13098000000000004  0.9669100000000003  0.24310999999999997  1.0000
  C   C34       1.0  0.1385  0.9413400000000002  0.19769  1.0000
  C   C35       1.0  0.19861000000000004  0.9376500000000001  0.19698  1.0000
  C   C36       1.0  0.25308  0.9595600000000002  0.24168  1.0000
  C   C37       1.0  0.028079999999999994  0.001180000000000004  0.3035  1.0000
  C   C38       1.0  0.96942  0.9775500000000003  0.25574  1.0000
  C   C39       1.0  0.9487  0.9205900000000002  0.22963  1.0000
  C   C40       1.0  0.8951599999999998  0.8979500000000002  0.18378999999999998  1.0000
  C   C41       1.0  0.86006  0.9314200000000001  0.16284999999999997  1.0000
  C   C42       1.0  0.8817800000000001  0.9885299999999999  0.18925  1.0000
  C   C43       1.0  0.9356000000000001  0.011310000000000002  0.23484  1.0000
  C   C44       1.0  0.79028  0.85541  0.07653  1.0000
  C   C45       1.0  0.73344  0.8336600000000002  0.03298  1.0000
  C   C46       1.0  0.6857799999999998  0.8650400000000003  0.028519999999999997  1.0000
  C   C47       1.0  0.6951399999999999  0.91748  0.06796  1.0000
  C   C48       1.0  0.75172  0.93838  0.11083  1.0000
  C   C49       1.0  0.8009399999999999  0.9081300000000001  0.11611999999999997  1.0000
  C   C50       1.0  0.60584  0.7921500000000002  0.95309  1.0000
  C   C51       1.0  0.41557000000000005  0.010140000000000014  0.2974  1.0000
  C   C52       1.0  0.43115  0.9863  0.25192  1.0000
  C   C53       1.0  0.41468  0.009760000000000013  0.21704999999999997  1.0000
  C   C54       1.0  0.42774  0.9876200000000003  0.17379  1.0000
  C   C55       1.0  0.45812  0.9420100000000002  0.16454999999999997  1.0000
  C   C56       1.0  0.47398999999999997  0.9184700000000003  0.19952  1.0000
  C   C57       1.0  0.46038999999999997  0.9401600000000002  0.24259  1.0000
  C   C58       1.0  0.47235999999999995  0.9194500000000002  0.11881999999999998  1.0000
  C   C59       1.0  0.50216  0.95384  0.1067  1.0000
  C   C60       1.0  0.515  0.9327400000000001  0.06335  1.0000
  C   C61       1.0  0.49721999999999994  0.87647  0.030339999999999992  1.0000
  C   C62       1.0  0.46686000000000005  0.84175  0.04148  1.0000
  C   C63       1.0  0.45535  0.86336  0.08572  1.0000
  C   C64       1.0  0.50037  0.8013300000000001  0.95808  1.0000
  C   C65       1.0  0.5350099999999998  0.78608  0.9226099999999998  1.0000
  C   C66       1.0  0.52566  0.82172  0.89346  1.0000
  C   C67       1.0  0.3786900000000001  0.3215000000000001  0.57693  1.0000
  C   C68       1.0  0.40503  0.37854  0.61767  1.0000
  C   C69       1.0  0.44943  0.38888  0.66701  1.0000
  C   C70       1.0  0.47277  0.44245999999999996  0.70498  1.0000
  C   C71       1.0  0.45042  0.48683  0.69519  1.0000
  C   C72       1.0  0.4057399999999999  0.47620999999999997  0.6458399999999999  1.0000
  C   C73       1.0  0.38425  0.4228300000000001  0.6073  1.0000
  C   C74       1.0  0.4727799999999999  0.54356  0.7362699999999999  1.0000
  C   C75       1.0  0.53673  0.5665  0.76224  1.0000
  C   C76       1.0  0.5571599999999999  0.6198999999999999  0.8008099999999999  1.0000
  C   C77       1.0  0.51433  0.65114  0.81502  1.0000
  C   C78       1.0  0.45041  0.6290100000000002  0.78973  1.0000
  C   C79       1.0  0.4302000000000001  0.5757500000000001  0.7503099999999999  1.0000
  C   C80       1.0  0.50629  0.7256400000000002  0.88552  1.0000
  C   C81       1.0  0.36087  0.9356500000000001  0.58102  1.0000
  C   C82       1.0  0.37654  0.91755  0.62271  1.0000
  C   C83       1.0  0.36227  0.8620200000000002  0.61084  1.0000
  C   C84       1.0  0.37353  0.84537  0.6497  1.0000
  C   C85       1.0  0.40045  0.8836100000000002  0.70177  1.0000
  C   C86       1.0  0.41519999999999996  0.9391900000000002  0.71338  1.0000
  C   C87       1.0  0.40331  0.9557900000000003  0.67448  1.0000
  C   C88       1.0  0.4150499999999999  0.86582  0.74318  1.0000
  C   C89       1.0  0.37684  0.82214  0.73826  1.0000
  C   C90       1.0  0.39300000000000007  0.80447  0.7768599999999999  1.0000
  C   C91       1.0  0.44815  0.83009  0.82165  1.0000
  C   C92       1.0  0.48666  0.8739  0.82759  1.0000
  C   C93       1.0  0.46969999999999995  0.89121  0.78857  1.0000
  C   C94       1.0  0.7406599999999999  0.29304  0.53552  1.0000
  C   C95       1.0  0.72223  0.33632  0.56907  1.0000
  C   C96       1.0  0.68193  0.32579  0.5895  1.0000
  C   C97       1.0  0.6616  0.27114  0.57499  1.0000
  C   C98       1.0  0.68123  0.22780000000000003  0.54228  1.0000
  C   C99       1.0  0.72129  0.23782  0.52242  1.0000
  C   C100      1.0  0.95057  0.55242  0.5308  1.0000
  C   C101      1.0  0.9998600000000001  0.5444900000000001  0.56988  1.0000
  C   C102      1.0  0.060059999999999995  0.5763800000000002  0.59493  1.0000
  C   C103      1.0  0.06783000000000003  0.61659  0.57979  1.0000
  C   C104      1.0  0.018419999999999985  0.62472  0.54074  1.0000
  C   C105      1.0  0.95928  0.59293  0.51523  1.0000
  C   C106      1.0  0.7358200000000001  0.55754  0.53799  1.0000
  C   C107      1.0  0.7158799999999998  0.60144  0.52622  1.0000
  C   C108      1.0  0.67799  0.6305600000000001  0.54854  1.0000
  C   C109      1.0  0.66097  0.61726  0.58228  1.0000
  C   C110      1.0  0.6815399999999999  0.5749400000000001  0.59516  1.0000
  C   C111      1.0  0.71971  0.54479  0.57228  1.0000
  C   C112      1.0  0.07576999999999999  0.34415  0.58484  1.0000
  C   C113      1.0  0.011959999999999995  0.34847  0.56739  1.0000
  C   C114      1.0  0.96481  0.30239  0.52963  1.0000
  C   C115      1.0  0.97934  0.25003  0.50802  1.0000
  C   C116      1.0  0.042289999999999994  0.24634000000000006  0.52505  1.0000
  C   C117      1.0  0.08964  0.29263000000000006  0.5627  1.0000
  C   C118      1.0  0.77157  0.38139  0.38553  1.0000
  C   C119      1.0  0.77704  0.3294100000000001  0.38606  1.0000
  C   C120      1.0  0.7660800000000001  0.28173  0.34086  1.0000
  C   C121      1.0  0.74954  0.28838000000000014  0.2961  1.0000
  C   C122      1.0  0.74251  0.34029  0.29538  1.0000
  C   C123      1.0  0.7531899999999999  0.3875  0.33959  1.0000
  C   C124      1.0  0.95823  0.51443  0.7118  1.0000
  C   C125      1.0  0.8975599999999999  0.5106899999999999  0.71094  1.0000
  C   C126      1.0  0.8882499999999999  0.53274  0.7565899999999998  1.0000
  C   C127      1.0  0.94126  0.55827  0.8020799999999999  1.0000
  C   C128      1.0  0.002089999999999997  0.56215  0.80292  1.0000
  C   C129      1.0  0.011839999999999979  0.54054  0.75828  1.0000
  C   C130      1.0  0.72403  0.4968099999999999  0.696  1.0000
  C   C131      1.0  0.71328  0.5209300000000001  0.74374  1.0000
  C   C132      1.0  0.7173300000000001  0.57785  0.76897  1.0000
  C   C133      1.0  0.70968  0.6009700000000002  0.81476  1.0000
  C   C134      1.0  0.6969000000000001  0.56804  0.83651  1.0000
  C   C135      1.0  0.69333  0.51094  0.81089  1.0000
  C   C136      1.0  0.70167  0.4876999999999999  0.7654299999999999  1.0000
  C   C137      1.0  0.7143199999999998  0.6444800000000002  0.92284  1.0000
  C   C138      1.0  0.7019100000000001  0.66658  0.96674  1.0000
  C   C139      1.0  0.6593600000000001  0.63548  0.97178  1.0000
  C   C140      1.0  0.6288300000000002  0.58313  0.93248  1.0000
  C   C141      1.0  0.6416699999999997  0.56184  0.8892599999999998  1.0000
  C   C142      1.0  0.68504  0.5917700000000002  0.88342  1.0000
  C   C143      1.0  0.65434  0.7084700000000002  0.04698  1.0000
  C   C144      1.0  0.11838000000000008  0.4904400000000001  0.70205  1.0000
  C   C145      1.0  0.17969000000000007  0.5138700000000002  0.74733  1.0000
  C   C146      1.0  0.1980500000000001  0.49061000000000016  0.78234  1.0000
  C   C147      1.0  0.25445  0.51263  0.82569  1.0000
  C   C148      1.0  0.29404999999999987  0.55805  0.8348799999999997  1.0000
  C   C149      1.0  0.27506  0.5812900000000002  0.79965  1.0000
  C   C150      1.0  0.21837  0.5596200000000001  0.75645  1.0000
  C   C151      1.0  0.35402  0.58076  0.88077  1.0000
  C   C152      1.0  0.39634  0.54643  0.8930399999999998  1.0000
  C   C153      1.0  0.45276999999999995  0.56769  0.93629  1.0000
  C   C154      1.0  0.46787000000000006  0.62401  0.96906  1.0000
  C   C155      1.0  0.42595  0.6587000000000002  0.95786  1.0000
  C   C156      1.0  0.36994  0.63691  0.9137  1.0000
  C   C157      1.0  0.54335  0.69913  0.04095  1.0000
  C   C158      1.0  0.6134  0.71433  0.07682  1.0000
  C   C159      1.0  0.63288  0.6785900000000001  0.10591  1.0000
  C   C160      1.0  0.8017  0.17896  0.42265  1.0000
  C   C161      1.0  0.78722  0.12186000000000004  0.382  1.0000
  C   C162      1.0  0.78349  0.11148000000000002  0.33305  1.0000
  C   C163      1.0  0.76905  0.05792  0.29505  1.0000
  C   C164      1.0  0.75538  0.013589999999999998  0.30435  1.0000
  C   C165      1.0  0.75865  0.02430000000000001  0.35328  1.0000
  C   C166      1.0  0.77568  0.07761999999999995  0.39193999999999996  1.0000
  C   C167      1.0  0.73688  0.9568400000000002  0.26327  1.0000
  C   C168      1.0  0.7748499999999999  0.9337200000000002  0.23734  1.0000
  C   C169      1.0  0.75681  0.88024  0.19885  1.0000
  C   C170      1.0  0.6999  0.8490900000000002  0.18474  1.0000
  C   C171      1.0  0.6613000000000001  0.8713800000000003  0.20997  1.0000
  C   C172      1.0  0.6803899999999998  0.92468  0.24927  1.0000
  C   C173      1.0  0.62144  0.7747600000000002  0.11381  1.0000
  C   C174      1.0  0.7782800000000001  0.56571  0.41893  1.0000
  C   C175      1.0  0.75161  0.58298  0.37669  1.0000
  C   C176      1.0  0.74987  0.6386000000000001  0.38853  1.0000
  C   C177      1.0  0.72302  0.65548  0.34974  1.0000
  C   C178      1.0  0.69788  0.61727  0.29767  1.0000
  C   C179      1.0  0.6999199999999999  0.5615  0.28606  1.0000
  C   C180      1.0  0.72619  0.54463  0.32493  1.0000
  C   C181      1.0  0.6718799999999999  0.6351600000000002  0.25624  1.0000
  C   C182      1.0  0.63915  0.6794  0.26099  1.0000
  C   C183      1.0  0.61665  0.69672  0.22213999999999995  1.0000
  C   C184      1.0  0.62642  0.67024  0.17725  1.0000
  C   C185      1.0  0.65896  0.62619  0.17167  1.0000
  C   C186      1.0  0.68104  0.60923  0.21094  1.0000
  C   C187      1.0  0.79589  0.79228  0.53626  1.0000
  C   C188      1.0  0.84763  0.83572  0.56988  1.0000
  C   C189      1.0  0.9087399999999999  0.8255400000000003  0.59042  1.0000
  C   C190      1.0  0.9152600000000001  0.77097  0.57594  1.0000
  C   C191      1.0  0.86323  0.72744  0.5432  1.0000
  C   C192      1.0  0.8029  0.7371100000000002  0.52322  1.0000
  C   C193      1.0  0.57944  0.051880000000000016  0.53089  1.0000
  C   C194      1.0  0.56972  0.04417999999999999  0.57011  1.0000
  C   C195      1.0  0.53471  0.07634  0.59524  1.0000
  C   C196      1.0  0.51155  0.11659000000000005  0.58009  1.0000
  C   C197      1.0  0.52154  0.12453000000000002  0.54096  1.0000
  C   C198      1.0  0.55496  0.09245  0.51534  1.0000
  C   C199      1.0  0.8009  0.05602000000000002  0.53715  1.0000
  C   C200      1.0  0.80842  0.09955999999999997  0.52486  1.0000
  C   C201      1.0  0.8685300000000001  0.12860000000000005  0.54684  1.0000
  C   C202      1.0  0.91979  0.11561000000000005  0.58079  1.0000
  C   C203      1.0  0.91272  0.07363999999999998  0.59414  1.0000
  C   C204      1.0  0.8518  0.043509999999999986  0.57154  1.0000
  C   C205      1.0  0.50977  0.8441  0.58479  1.0000
  C   C206      1.0  0.55611  0.84821  0.56743  1.0000
  C   C207      1.0  0.56547  0.80207  0.52965  1.0000
  C   C208      1.0  0.52931  0.7498  0.50799  1.0000
  C   C209      1.0  0.48333  0.74634  0.52489  1.0000
  C   C210      1.0  0.47363999999999995  0.79273  0.56251  1.0000
  C   C211      1.0  0.61391  0.88024  0.38531  1.0000
  C   C212      1.0  0.60936  0.8283  0.38591999999999993  1.0000
  C   C213      1.0  0.57525  0.78059  0.3407  1.0000
  C   C214      1.0  0.54696  0.7872100000000002  0.29589  1.0000
  C   C215      1.0  0.55302  0.8390600000000001  0.29512  1.0000
  C   C216      1.0  0.5863  0.8863000000000001  0.33936  1.0000
  C   C217      1.0  0.75409  0.014219999999999998  0.71193  1.0000
  C   C218      1.0  0.81399  0.010699999999999998  0.71116  1.0000
  C   C219      1.0  0.86903  0.03307999999999997  0.75689  1.0000
  C   C220      1.0  0.8614999999999999  0.058660000000000025  0.80231  1.0000
  C   C221      1.0  0.8013999999999999  0.06235000000000009  0.80302  1.0000
  C   C222      1.0  0.7469200000000001  0.040430000000000035  0.75832  1.0000
  C   C223      1.0  0.9719199999999999  0.99884  0.6964999999999998  1.0000
  C   C224      1.0  0.03057999999999998  0.022450000000000032  0.74426  1.0000
  C   C225      1.0  0.05131000000000009  0.07942000000000002  0.77037  1.0000
  C   C226      1.0  0.10484999999999994  0.10205  0.8162099999999999  1.0000
  C   C227      1.0  0.13993999999999993  0.06857999999999999  0.8371399999999999  1.0000
  C   C228      1.0  0.11821999999999994  0.011470000000000043  0.81075  1.0000
  C   C229      1.0  0.06440000000000005  0.9887  0.76516  1.0000
  C   C230      1.0  0.20972999999999997  0.14457999999999993  0.9234699999999999  1.0000
  C   C231      1.0  0.26657  0.16633  0.96702  1.0000
  C   C232      1.0  0.31422  0.13496000000000002  0.97148  1.0000
  C   C233      1.0  0.3048599999999999  0.08251999999999993  0.9320399999999999  1.0000
  C   C234      1.0  0.2482799999999999  0.06161999999999997  0.8891699999999999  1.0000
  C   C235      1.0  0.19906999999999994  0.09187000000000001  0.88388  1.0000
  C   C236      1.0  0.39416  0.20784000000000002  0.04689999999999999  1.0000
  C   C237      1.0  0.5844199999999999  0.9898499999999999  0.7025999999999999  1.0000
  C   C238      1.0  0.5688499999999997  0.013699999999999938  0.7480799999999999  1.0000
  C   C239      1.0  0.58533  0.9902400000000002  0.78295  1.0000
  C   C240      1.0  0.57226  0.012369999999999973  0.82621  1.0000
  C   C241      1.0  0.54188  0.057980000000000004  0.83545  1.0000
  C   C242      1.0  0.52601  0.08153  0.80048  1.0000
  C   C243      1.0  0.53961  0.05983999999999994  0.75741  1.0000
  C   C244      1.0  0.52765  0.08055000000000001  0.88118  1.0000
  C   C245      1.0  0.49784  0.046159999999999965  0.8933  1.0000
  C   C246      1.0  0.485  0.06724999999999996  0.9366499999999999  1.0000
  C   C247      1.0  0.50278  0.12352  0.96966  1.0000
  C   C248      1.0  0.53314  0.1582500000000001  0.95852  1.0000
  C   C249      1.0  0.54466  0.13662999999999995  0.91428  1.0000
  C   C250      1.0  0.49963  0.19867000000000007  0.04192  1.0000
  C   C251      1.0  0.46499  0.21391  0.07737999999999999  1.0000
  C   C252      1.0  0.47435  0.17828000000000002  0.10653999999999998  1.0000
  C   C253      1.0  0.62131  0.6785  0.42307  1.0000
  C   C254      1.0  0.59497  0.6214600000000002  0.3823299999999999  1.0000
  C   C255      1.0  0.55058  0.6111200000000002  0.33298999999999995  1.0000
  C   C256      1.0  0.52724  0.55754  0.29502  1.0000
  C   C257      1.0  0.54958  0.51317  0.30481  1.0000
  C   C258      1.0  0.5942600000000001  0.52378  0.35415  1.0000
  C   C259      1.0  0.61575  0.57716  0.39269999999999994  1.0000
  C   C260      1.0  0.52723  0.4564400000000001  0.26373  1.0000
  C   C261      1.0  0.46327  0.43349000000000004  0.23776  1.0000
  C   C262      1.0  0.44284  0.3801000000000001  0.19919  1.0000
  C   C263      1.0  0.48568  0.34886000000000006  0.18497999999999998  1.0000
  C   C264      1.0  0.54959  0.37099000000000004  0.21026999999999998  1.0000
  C   C265      1.0  0.56981  0.4242400000000001  0.24969  1.0000
  C   C266      1.0  0.49371  0.27435000000000004  0.11447999999999997  1.0000
  C   C267      1.0  0.63913  0.06434  0.41898  1.0000
  C   C268      1.0  0.62346  0.08245  0.37729  1.0000
  C   C269      1.0  0.63773  0.13797999999999996  0.38915999999999995  1.0000
  C   C270      1.0  0.6264699999999997  0.15462999999999996  0.35029999999999994  1.0000
  C   C271      1.0  0.59955  0.11639000000000001  0.29823  1.0000
  C   C272      1.0  0.5848000000000001  0.06081  0.28662  1.0000
  C   C273      1.0  0.59669  0.04421  0.32552  1.0000
  C   C274      1.0  0.58495  0.13417000000000004  0.25682  1.0000
  C   C275      1.0  0.62316  0.17786  0.26174  1.0000
  C   C276      1.0  0.607  0.19552000000000005  0.22313  1.0000
  C   C277      1.0  0.55185  0.16990999999999998  0.17834999999999998  1.0000
  C   C278      1.0  0.51335  0.12609  0.17240999999999995  1.0000
  C   C279      1.0  0.5303  0.10878999999999997  0.21141999999999994  1.0000
  C   C280      1.0  0.25933999999999996  0.7069499999999999  0.4644799999999999  1.0000
  C   C281      1.0  0.27778  0.6636800000000003  0.43092  1.0000
  C   C282      1.0  0.3180699999999999  0.6742100000000002  0.41049999999999986  1.0000
  C   C283      1.0  0.33841  0.72886  0.42501  1.0000
  C   C284      1.0  0.31878  0.7722000000000001  0.45772  1.0000
  C   C285      1.0  0.27871  0.76218  0.47758  1.0000
  C   C286      1.0  0.04943000000000003  0.4475800000000001  0.46919  1.0000
  C   C287      1.0  0.0001400000000000235  0.45551  0.43012  1.0000
  C   C288      1.0  0.9399399999999999  0.42361  0.4050699999999999  1.0000
  C   C289      1.0  0.93217  0.38341  0.42021  1.0000
  C   C290      1.0  0.9815800000000001  0.3752700000000001  0.45926  1.0000
  C   C291      1.0  0.04072999999999993  0.40706999999999993  0.4847599999999999  1.0000
  C   C292      1.0  0.26419  0.44246000000000013  0.46201  1.0000
  C   C293      1.0  0.28412  0.39855000000000007  0.47378  1.0000
  C   C294      1.0  0.32201  0.3694400000000001  0.45146  1.0000
  C   C295      1.0  0.33903  0.3827400000000001  0.41772  1.0000
  C   C296      1.0  0.31846  0.42506  0.40484  1.0000
  C   C297      1.0  0.28029  0.4552000000000001  0.42772  1.0000
  C   C298      1.0  0.9242400000000001  0.6558400000000001  0.41516  1.0000
  C   C299      1.0  0.9880400000000001  0.6515300000000003  0.43260999999999994  1.0000
  C   C300      1.0  0.03518999999999998  0.6976100000000001  0.47037  1.0000
  C   C301      1.0  0.020669999999999997  0.7499700000000002  0.49198  1.0000
  C   C302      1.0  0.95771  0.75365  0.47495  1.0000
  C   C303      1.0  0.91036  0.7073700000000003  0.43729  1.0000
  C   C304      1.0  0.22842999999999997  0.61861  0.61447  1.0000
  C   C305      1.0  0.22297000000000003  0.6705900000000002  0.61394  1.0000
  C   C306      1.0  0.23392  0.71827  0.65914  1.0000
  C   C307      1.0  0.25046999999999986  0.71162  0.7038999999999999  1.0000
  C   C308      1.0  0.25749000000000005  0.65971  0.70462  1.0000
  C   C309      1.0  0.24681  0.6125  0.6604  1.0000
  C   C310      1.0  0.041780000000000005  0.48555999999999994  0.2882  1.0000
  C   C311      1.0  0.10245  0.4893100000000001  0.28906  1.0000
  C   C312      1.0  0.11175  0.46726  0.24341  1.0000
  C   C313      1.0  0.05875  0.4417300000000001  0.19792  1.0000
  C   C314      1.0  0.99791  0.43785  0.19708  1.0000
  C   C315      1.0  0.98816  0.4594600000000001  0.24171999999999993  1.0000
  C   C316      1.0  0.27599  0.5032  0.30401  1.0000
  C   C317      1.0  0.28674  0.4790800000000001  0.25626  1.0000
  C   C318      1.0  0.28267  0.42216  0.23103  1.0000
  C   C319      1.0  0.29032  0.39903  0.18524999999999997  1.0000
  C   C320      1.0  0.3031  0.43196000000000007  0.16349  1.0000
  C   C321      1.0  0.30667  0.4890600000000001  0.18911  1.0000
  C   C322      1.0  0.29833999999999994  0.51231  0.23457  1.0000
  C   C323      1.0  0.28569  0.35551  0.07716  1.0000
  C   C324      1.0  0.29809  0.33342  0.03326  1.0000
  C   C325      1.0  0.34064000000000005  0.36451  0.02821999999999999  1.0000
  C   C326      1.0  0.37118  0.4168700000000001  0.06751  1.0000
  C   C327      1.0  0.35833  0.43815000000000004  0.11074  1.0000
  C   C328      1.0  0.31496  0.40823000000000004  0.11658  1.0000
  C   C329      1.0  0.3456600000000001  0.29153  0.95302  1.0000
  C   C330      1.0  0.88162  0.50955  0.29794  1.0000
  C   C331      1.0  0.8203200000000002  0.48613  0.25267  1.0000
  C   C332      1.0  0.8019600000000001  0.50939  0.21766  1.0000
  C   C333      1.0  0.74555  0.4873600000000002  0.17431  1.0000
  C   C334      1.0  0.70595  0.44195  0.16511999999999993  1.0000
  C   C335      1.0  0.72494  0.41871000000000014  0.20035  1.0000
  C   C336      1.0  0.78164  0.44037000000000004  0.24355  1.0000
  C   C337      1.0  0.64598  0.4192400000000001  0.11922  1.0000
  C   C338      1.0  0.60366  0.45357  0.10696  1.0000
  C   C339      1.0  0.54724  0.4323000000000001  0.06371  1.0000
  C   C340      1.0  0.53213  0.37598  0.03094  1.0000
  C   C341      1.0  0.57405  0.3413  0.04214  1.0000
  C   C342      1.0  0.63007  0.3630800000000001  0.0863  1.0000
  C   C343      1.0  0.45665  0.30087  0.95905  1.0000
  C   C344      1.0  0.3866099999999999  0.28567000000000004  0.9231799999999999  1.0000
  C   C345      1.0  0.36711999999999995  0.3214099999999999  0.8940899999999999  1.0000
  C   C346      1.0  0.19831  0.82104  0.57735  1.0000
  C   C347      1.0  0.21279  0.8781299999999999  0.618  1.0000
  C   C348      1.0  0.21651  0.8885200000000002  0.66695  1.0000
  C   C349      1.0  0.23095000000000002  0.94207  0.7049499999999999  1.0000
  C   C350      1.0  0.24461999999999998  0.98641  0.69565  1.0000
  C   C351      1.0  0.24135  0.9757000000000002  0.64671  1.0000
  C   C352      1.0  0.22432000000000002  0.92237  0.60806  1.0000
  C   C353      1.0  0.2631199999999999  0.04314999999999998  0.73672  1.0000
  C   C354      1.0  0.22514999999999993  0.06627999999999996  0.7626599999999999  1.0000
  C   C355      1.0  0.24319000000000005  0.11975000000000005  0.80115  1.0000
  C   C356      1.0  0.3001  0.15089999999999998  0.8152599999999999  1.0000
  C   C357      1.0  0.33870000000000006  0.12862000000000007  0.79002  1.0000
  C   C358      1.0  0.31962  0.07531999999999994  0.7507199999999999  1.0000
  C   C359      1.0  0.37856  0.2252400000000001  0.88619  1.0000
  C   C360      1.0  0.22171  0.4342800000000001  0.58107  1.0000
  C   C361      1.0  0.24837999999999996  0.41701  0.62331  1.0000
  C   C362      1.0  0.25013  0.3614000000000001  0.61146  1.0000
  C   C363      1.0  0.27699  0.34451  0.65026  1.0000
  C   C364      1.0  0.30213  0.38272999999999996  0.7023199999999999  1.0000
  C   C365      1.0  0.30008999999999997  0.4385000000000001  0.7139399999999999  1.0000
  C   C366      1.0  0.27380999999999994  0.4553599999999999  0.6750599999999998  1.0000
  C   C367      1.0  0.32813  0.36482999999999993  0.7437599999999999  1.0000
  C   C368      1.0  0.36085  0.32060000000000005  0.73901  1.0000
  C   C369      1.0  0.38335  0.30327  0.77786  1.0000
  C   C370      1.0  0.3735899999999999  0.32975000000000004  0.8227499999999999  1.0000
  C   C371      1.0  0.34105  0.37381  0.82833  1.0000
  C   C372      1.0  0.31895999999999997  0.39077  0.78906  1.0000
  N   N1        1.0  0.39837  0.99618  0.42272  1.0000
  N   N2        1.0  0.37054  0.012389999999999967  0.4551099999999999  1.0000
  N   N3        1.0  0.38353  0.98452  0.48380999999999996  1.0000
  N   N4        1.0  0.25088  0.9804  0.47795  1.0000
  N   N5        1.0  0.23333  0.012860000000000026  0.45388  1.0000
  N   N6        1.0  0.36130000000000007  0.16284  0.56371  1.0000
  N   N7        1.0  0.34113  0.10899000000000005  0.5355  1.0000
  N   N8        1.0  0.35476  0.08191999999999999  0.56467  1.0000
  N   N9        1.0  0.25573  0.1841  0.47716  1.0000
  N   N10       1.0  0.23702  0.12954000000000002  0.45258  1.0000
  N   N11       1.0  0.28868  0.01107  0.33808  1.0000
  N   N12       1.0  0.25727  0.028860000000000004  0.36773  1.0000
  N   N13       1.0  0.19557  0.01655000000000003  0.3393  1.0000
  N   N14       1.0  0.3703699999999999  0.12553  0.44989  1.0000
  N   N15       1.0  0.40271999999999997  0.10797000000000002  0.42104  1.0000
  N   N16       1.0  0.1753  0.11641  0.42415  1.0000
  N   N17       1.0  0.38834  0.17950999999999995  0.47976999999999986  1.0000
  N   N18       1.0  0.17192  0.99965  0.42412  1.0000
  N   N19       1.0  0.9753500000000003  0.50426  0.57712  1.0000
  N   N20       1.0  0.91494  0.4883600000000001  0.54492  1.0000
  N   N21       1.0  0.8988699999999998  0.51631  0.51629  1.0000
  N   N22       1.0  0.7722699999999999  0.52088  0.52243  1.0000
  N   N23       1.0  0.7791499999999999  0.48813  0.54624  1.0000
  N   N24       1.0  0.7980999999999999  0.33808  0.43636  1.0000
  N   N25       1.0  0.80578  0.3919100000000001  0.46463  1.0000
  N   N26       1.0  0.79  0.41912  0.43556  1.0000
  N   N27       1.0  0.77868  0.31678  0.5223  1.0000
  N   N28       1.0  0.78419  0.3713100000000001  0.54692  1.0000
  N   N29       1.0  0.95084  0.4894800000000001  0.66177  1.0000
  N   N30       1.0  0.88969  0.4716700000000001  0.63208  1.0000
  N   N31       1.0  0.8565  0.48365  0.6604799999999997  1.0000
  N   N32       1.0  0.9208599999999999  0.3748900000000001  0.54992  1.0000
  N   N33       1.0  0.98215  0.3923600000000001  0.57879  1.0000
  N   N34       1.0  0.75077  0.38427000000000006  0.57519  1.0000
  N   N35       1.0  0.90906  0.32089  0.5201  1.0000
  N   N36       1.0  0.7479  0.5013500000000001  0.5762  1.0000
  N   N37       1.0  0.60163  0.003820000000000021  0.57728  1.0000
  N   N38       1.0  0.6294600000000001  0.9876000000000001  0.54489  1.0000
  N   N39       1.0  0.61647  0.015479999999999997  0.51619  1.0000
  N   N40       1.0  0.7491200000000001  0.019589999999999993  0.52205  1.0000
  N   N41       1.0  0.7666700000000001  0.9871400000000002  0.54612  1.0000
  N   N42       1.0  0.6387  0.83715  0.43629  1.0000
  N   N43       1.0  0.65887  0.8910100000000003  0.46449999999999997  1.0000
  N   N44       1.0  0.6452399999999998  0.91807  0.43533  1.0000
  N   N45       1.0  0.74428  0.8159  0.52284  1.0000
  N   N46       1.0  0.7629899999999998  0.87046  0.54742  1.0000
  N   N47       1.0  0.71132  0.98893  0.66192  1.0000
  N   N48       1.0  0.74274  0.9711400000000002  0.63227  1.0000
  N   N49       1.0  0.80443  0.9834400000000003  0.6607  1.0000
  N   N50       1.0  0.62964  0.87446  0.55011  1.0000
  N   N51       1.0  0.59728  0.8920200000000003  0.57896  1.0000
  N   N52       1.0  0.82471  0.8835800000000001  0.57585  1.0000
  N   N53       1.0  0.6116700000000002  0.8204900000000003  0.52023  1.0000
  N   N54       1.0  0.82808  0.0003500000000000236  0.57588  1.0000
  N   N55       1.0  0.02465000000000002  0.4957400000000001  0.42288  1.0000
  N   N56       1.0  0.08506000000000001  0.51163  0.45507999999999993  1.0000
  N   N57       1.0  0.10112999999999994  0.48367999999999994  0.48370999999999986  1.0000
  N   N58       1.0  0.22773  0.4791200000000001  0.47757  1.0000
  N   N59       1.0  0.2208499999999999  0.5118599999999999  0.4537599999999999  1.0000
  N   N60       1.0  0.2019  0.6619100000000002  0.56363  1.0000
  N   N61       1.0  0.19422  0.6080800000000001  0.53537  1.0000
  N   N62       1.0  0.21  0.58088  0.56444  1.0000
  N   N63       1.0  0.22133  0.68321  0.4777  1.0000
  N   N64       1.0  0.21582  0.62869  0.45308  1.0000
  N   N65       1.0  0.049160000000000016  0.51051  0.33822  1.0000
  N   N66       1.0  0.11031000000000002  0.52833  0.36792  1.0000
  N   N67       1.0  0.14351  0.51635  0.33952  1.0000
  N   N68       1.0  0.07914  0.62511  0.45008  1.0000
  N   N69       1.0  0.017850000000000015  0.60764  0.42121  1.0000
  N   N70       1.0  0.24923000000000003  0.6157300000000002  0.42481  1.0000
  N   N71       1.0  0.09094999999999996  0.6791100000000002  0.47989999999999994  1.0000
  N   N72       1.0  0.2521  0.49864000000000014  0.4238  1.0000
  O   O1        1.0  0.42602  0.9846  0.32664  1.0000
  O   O2        1.0  0.39098000000000005  0.052460000000000014  0.306  1.0000
  O   O3        1.0  0.38865  0.28227  0.5919  1.0000
  O   O4        1.0  0.34798999999999997  0.31084  0.53038  1.0000
  O   O5        1.0  0.3402400000000001  0.9022  0.5344  1.0000
  O   O6        1.0  0.36841000000000007  0.9886100000000002  0.59518  1.0000
  O   O7        1.0  0.05744999999999995  0.96932  0.3219999999999999  1.0000
  O   O8        1.0  0.05120999999999997  0.05229999999999997  0.32469999999999993  1.0000
  O   O9        1.0  0.51146  0.8593200000000001  0.9884  1.0000
  O   O10       1.0  0.46119  0.80957  0.85762  1.0000
  O   O11       1.0  0.62886  0.8492800000000001  0.9874  1.0000
  O   O12       1.0  0.53957  0.7038600000000003  0.85384  1.0000
  O   O13       1.0  0.10029999999999997  0.5148100000000002  0.67175  1.0000
  O   O14       1.0  0.08401  0.44953  0.69461  1.0000
  O   O15       1.0  0.7949799999999999  0.21798000000000003  0.40735  1.0000
  O   O16       1.0  0.8192700000000002  0.18990000000000004  0.46941  1.0000
  O   O17       1.0  0.80265  0.59994  0.46536999999999995  1.0000
  O   O18       1.0  0.77428  0.5129300000000001  0.40537  1.0000
  O   O19       1.0  0.73139  0.5278600000000002  0.67562  1.0000
  O   O20       1.0  0.72923  0.4464  0.67672  1.0000
  O   O21       1.0  0.52453  0.64117  0.01071  1.0000
  O   O22       1.0  0.60308  0.6902400000000002  0.14083  1.0000
  O   O23       1.0  0.64509  0.65126  0.013579999999999997  1.0000
  O   O24       1.0  0.68635  0.7961600000000001  0.14626  1.0000
  O   O25       1.0  0.5739799999999999  0.015389999999999907  0.6733499999999999  1.0000
  O   O26       1.0  0.60901  0.94754  0.694  1.0000
  O   O27       1.0  0.61135  0.7177200000000001  0.4081  1.0000
  O   O28       1.0  0.6520100000000001  0.6891600000000001  0.46962  1.0000
  O   O29       1.0  0.65976  0.09778999999999999  0.4656  1.0000
  O   O30       1.0  0.6315899999999999  0.011389999999999999  0.40481999999999996  1.0000
  O   O31       1.0  0.94256  0.030699999999999932  0.67802  1.0000
  O   O32       1.0  0.94879  0.94772  0.6753  1.0000
  O   O33       1.0  0.48854999999999993  0.14068  0.0116  1.0000
  O   O34       1.0  0.53881  0.19043  0.14238  1.0000
  O   O35       1.0  0.37114  0.15071  0.012599999999999998  1.0000
  O   O36       1.0  0.46042999999999995  0.2961300000000001  0.14616  1.0000
  O   O37       1.0  0.8997  0.48518000000000006  0.32825  1.0000
  O   O38       1.0  0.91599  0.55046  0.30539  1.0000
  O   O39       1.0  0.20503000000000002  0.78202  0.59264  1.0000
  O   O40       1.0  0.18073  0.81009  0.53059  1.0000
  O   O41       1.0  0.19734  0.40005  0.53463  1.0000
  O   O42       1.0  0.22571999999999995  0.48707  0.59463  1.0000
  O   O43       1.0  0.26861  0.4721400000000001  0.32437  1.0000
  O   O44       1.0  0.27079999999999993  0.55361  0.32329999999999987  1.0000
  O   O45       1.0  0.47547  0.35883  0.98929  1.0000
  O   O46       1.0  0.39692  0.30975000000000014  0.85917  1.0000
  O   O47       1.0  0.3549099999999999  0.34873999999999994  0.9864199999999999  1.0000
  O   O48       1.0  0.31365  0.20384000000000008  0.85374  1.0000
