data_image0
_chemical_formula_structural       Cu48H192C384N120O128
_chemical_formula_sum              "Cu48 H192 C384 N120 O128"
_cell_length_a       41.99709
_cell_length_b       41.99942
_cell_length_c       42.04647
_cell_angle_alpha    119.97033
_cell_angle_beta     119.95250999999999
_cell_angle_gamma    89.98453999999998

_space_group_name_H-M_alt    "P 1"
_space_group_IT_number       1

loop_
  _space_group_symop_operation_xyz
  'x, y, z'

loop_
  _atom_site_type_symbol
  _atom_site_label
  _atom_site_symmetry_multiplicity
  _atom_site_fract_x
  _atom_site_fract_y
  _atom_site_fract_z
  _atom_site_occupancy
  Cu  Cu1       1.0  0.98348  0.17646  0.19124  1.0000
  Cu  Cu2       1.0  0.98011  0.22983000000000003  0.25002  1.0000
  Cu  Cu3       1.0  0.68237  0.90355  0.3036199999999999  1.0000
  Cu  Cu4       1.0  0.60441  0.3116900000000001  0.22643  1.0000
  Cu  Cu5       1.0  0.69107  0.37389  0.2963599999999999  1.0000
  Cu  Cu6       1.0  0.20775  0.014769999999999998  0.19126  1.0000
  Cu  Cu7       1.0  0.2699  0.02021999999999997  0.25005  1.0000
  Cu  Cu8       1.0  0.6212399999999999  0.40011  0.3035799999999999  1.0000
  Cu  Cu9       1.0  0.6220600000000001  0.9147600000000001  0.22649  1.0000
  Cu  Cu10      1.0  0.6053200000000001  0.92258  0.29649  1.0000
  Cu  Cu11      1.0  0.17650999999999997  0.20778  0.1913  1.0000
  Cu  Cu12      1.0  0.22983  0.26991  0.2501  1.0000
  Cu  Cu13      1.0  0.9035  0.6212499999999999  0.3035799999999999  1.0000
  Cu  Cu14      1.0  0.31123  0.62192  0.22605  1.0000
  Cu  Cu15      1.0  0.37358999999999987  0.60609  0.2963599999999999  1.0000
  Cu  Cu16      1.0  0.014769999999999995  0.9834800000000001  0.19123  1.0000
  Cu  Cu17      1.0  0.020180000000000007  0.98013  0.25004  1.0000
  Cu  Cu18      1.0  0.40054  0.6827899999999999  0.3039199999999999  1.0000
  Cu  Cu19      1.0  0.91479  0.60443  0.22646  1.0000
  Cu  Cu20      1.0  0.9225299999999999  0.6911  0.29643  1.0000
  Cu  Cu21      1.0  0.016499999999999963  0.8236  0.80883  1.0000
  Cu  Cu22      1.0  0.01984999999999989  0.77009  0.7498999999999998  1.0000
  Cu  Cu23      1.0  0.3176499999999999  0.09644999999999987  0.6963899999999997  1.0000
  Cu  Cu24      1.0  0.3958999999999998  0.68886  0.7739999999999998  1.0000
  Cu  Cu25      1.0  0.30973999999999985  0.6264299999999998  0.7036599999999997  1.0000
  Cu  Cu26      1.0  0.79221  0.98521  0.8087  1.0000
  Cu  Cu27      1.0  0.73006  0.97975  0.74991  1.0000
  Cu  Cu28      1.0  0.3788599999999998  0.5994599999999999  0.6960699999999997  1.0000
  Cu  Cu29      1.0  0.37796  0.08521999999999998  0.77351  1.0000
  Cu  Cu30      1.0  0.39469  0.07740999999999999  0.70351  1.0000
  Cu  Cu31      1.0  0.82352  0.79225  0.80874  1.0000
  Cu  Cu32      1.0  0.7701899999999998  0.7301099999999999  0.7499499999999999  1.0000
  Cu  Cu33      1.0  0.09650000000000002  0.37876  0.69642  1.0000
  Cu  Cu34      1.0  0.68824  0.37793  0.77351  1.0000
  Cu  Cu35      1.0  0.6261  0.39468  0.70359  1.0000
  Cu  Cu36      1.0  0.9852199999999998  0.01648999999999985  0.8087699999999998  1.0000
  Cu  Cu37      1.0  0.9797899999999999  0.019829999999999983  0.74993  1.0000
  Cu  Cu38      1.0  0.59987  0.3175999999999999  0.6963899999999997  1.0000
  Cu  Cu39      1.0  0.08519999999999987  0.39557999999999993  0.7735499999999997  1.0000
  Cu  Cu40      1.0  0.07748  0.30892  0.70359  1.0000
  Cu  Cu41      1.0  0.8071799999999999  0.9710900000000001  1.9999999999999998e-05  1.0000
  Cu  Cu42      1.0  0.7495799999999999  0.96139  0.9999599999999998  1.0000
  Cu  Cu43      1.0  0.1929  0.028920000000000022  0.99999  1.0000
  Cu  Cu44      1.0  0.25034  0.03857  1.9999999999999998e-05  1.0000
  Cu  Cu45      1.0  0.97106  0.19291  0.9999599999999998  1.0000
  Cu  Cu46      1.0  0.9614299999999999  0.25036  1.9999999999999998e-05  1.0000
  Cu  Cu47      1.0  0.02892  0.8071  0.0  1.0000
  Cu  Cu48      1.0  0.03856000000000001  0.74965  0.99995  1.0000
  H   H1        1.0  0.09744000000000003  0.30968  0.34406  1.0000
  H   H2        1.0  0.09834999999999999  0.22373999999999997  0.23105999999999993  1.0000
  H   H3        1.0  0.19869999999999996  0.32659  0.34376  1.0000
  H   H4        1.0  0.14590999999999996  0.4356999999999999  0.4712099999999999  1.0000
  H   H5        1.0  0.19401999999999997  0.49787  0.54658  1.0000
  H   H6        1.0  0.28789  0.45721000000000006  0.54579  1.0000
  H   H7        1.0  0.24052999999999997  0.39593  0.4717599999999999  1.0000
  H   H8        1.0  0.8725899999999999  0.08935999999999998  0.10899999999999997  1.0000
  H   H9        1.0  0.85789  0.19045  0.19554  1.0000
  H   H10       1.0  0.76253  0.08119  0.09343999999999997  1.0000
  H   H11       1.0  0.78742  0.2263  0.21522999999999995  1.0000
  H   H12       1.0  0.7593299999999998  0.27533  0.24244999999999994  1.0000
  H   H13       1.0  0.64485  0.18925  0.14359  1.0000
  H   H14       1.0  0.67339  0.13864  0.11478999999999998  1.0000
  H   H15       1.0  0.89401  0.96407  0.10750999999999997  1.0000
  H   H16       1.0  0.8985399999999999  0.9418099999999999  0.19926  1.0000
  H   H17       1.0  0.78971  0.9361400000000001  0.09769  1.0000
  H   H18       1.0  0.84039  0.90807  0.25372  1.0000
  H   H19       1.0  0.79242  0.89899  0.26991  1.0000
  H   H20       1.0  0.71115  0.92212  0.17621  1.0000
  H   H21       1.0  0.75804  0.93183  0.16097999999999996  1.0000
  H   H22       1.0  0.19893  0.37046  0.40503  1.0000
  H   H23       1.0  0.7997199999999999  0.18735  0.18348  1.0000
  H   H24       1.0  0.79164  0.92249  0.14348  1.0000
  H   H25       1.0  0.24652  0.03434000000000001  0.344  1.0000
  H   H26       1.0  0.13272999999999996  0.007279999999999979  0.23098999999999995  1.0000
  H   H27       1.0  0.14493  0.017130000000000003  0.34366  1.0000
  H   H28       1.0  0.32512  0.03574000000000001  0.4713  1.0000
  H   H29       1.0  0.3523399999999998  0.04886999999999986  0.5466699999999998  1.0000
  H   H30       1.0  0.2576  0.08859  0.54583  1.0000
  H   H31       1.0  0.231  0.07593  0.47183  1.0000
  H   H32       1.0  0.23647  0.01969999999999999  0.10908999999999998  1.0000
  H   H33       1.0  0.33761  0.00504999999999998  0.19554  1.0000
  H   H34       1.0  0.3309699999999999  0.01225999999999999  0.09349999999999997  1.0000
  H   H35       1.0  0.42781  0.98892  0.21528999999999995  1.0000
  H   H36       1.0  0.48311999999999994  0.9671  0.24250999999999995  1.0000
  H   H37       1.0  0.4988  0.95432  0.14361  1.0000
  H   H38       1.0  0.44148  0.97612  0.11482999999999997  1.0000
  H   H39       1.0  0.21355999999999997  0.14353  0.10759999999999997  1.0000
  H   H40       1.0  0.30073000000000005  0.25752  0.19935  1.0000
  H   H41       1.0  0.30798999999999993  0.16158999999999998  0.0977  1.0000
  H   H42       1.0  0.41347999999999996  0.34576  0.25384  1.0000
  H   H43       1.0  0.4775499999999999  0.37102999999999997  0.26995999999999987  1.0000
  H   H44       1.0  0.46509999999999996  0.25415999999999994  0.17624999999999993  1.0000
  H   H45       1.0  0.4030599999999999  0.22923  0.16108999999999996  1.0000
  H   H46       1.0  0.20586  0.034580000000000034  0.40493  1.0000
  H   H47       1.0  0.38377999999999995  0.9960600000000001  0.18349  1.0000
  H   H48       1.0  0.35189  0.22109  0.1435  1.0000
  H   H49       1.0  0.30965  0.24656  0.34402  1.0000
  H   H50       1.0  0.22369999999999998  0.13274999999999998  0.23100999999999994  1.0000
  H   H51       1.0  0.32652  0.14492999999999995  0.3436299999999999  1.0000
  H   H52       1.0  0.43564999999999987  0.32520999999999994  0.47142999999999996  1.0000
  H   H53       1.0  0.49784  0.35237  0.54672  1.0000
  H   H54       1.0  0.4572  0.25763  0.54581  1.0000
  H   H55       1.0  0.39592  0.23107000000000003  0.47185  1.0000
  H   H56       1.0  0.08941  0.23646000000000003  0.10908999999999998  1.0000
  H   H57       1.0  0.1905  0.3375899999999999  0.19563  1.0000
  H   H58       1.0  0.08132  0.33101  0.09356999999999999  1.0000
  H   H59       1.0  0.22647  0.4278599999999999  0.21553999999999995  1.0000
  H   H60       1.0  0.27562  0.48302  0.24272999999999995  1.0000
  H   H61       1.0  0.18961999999999998  0.49872  0.14384  1.0000
  H   H62       1.0  0.13894  0.4415299999999999  0.11506  1.0000
  H   H63       1.0  0.9640699999999999  0.21353  0.10752999999999997  1.0000
  H   H64       1.0  0.94181  0.30077  0.19931  1.0000
  H   H65       1.0  0.93613  0.30799  0.09769  1.0000
  H   H66       1.0  0.90806  0.41344000000000003  0.25375  1.0000
  H   H67       1.0  0.89893  0.47756000000000004  0.26993  1.0000
  H   H68       1.0  0.92212  0.4650500000000001  0.1762  1.0000
  H   H69       1.0  0.93187  0.40295000000000003  0.16098999999999994  1.0000
  H   H70       1.0  0.37039999999999995  0.20591999999999996  0.4049599999999999  1.0000
  H   H71       1.0  0.18746999999999997  0.38381000000000004  0.18373  1.0000
  H   H72       1.0  0.9224099999999998  0.35188  0.14348  1.0000
  H   H73       1.0  0.034359999999999995  0.09748000000000001  0.34402  1.0000
  H   H74       1.0  0.007279999999999959  0.09824999999999998  0.23095999999999994  1.0000
  H   H75       1.0  0.017139999999999954  0.19870999999999991  0.3436499999999999  1.0000
  H   H76       1.0  0.03573  0.14616  0.47126  1.0000
  H   H77       1.0  0.04885999999999988  0.19433999999999993  0.5466299999999997  1.0000
  H   H78       1.0  0.08857999999999996  0.2882  0.54581  1.0000
  H   H79       1.0  0.07590999999999996  0.24077999999999994  0.4717999999999999  1.0000
  H   H80       1.0  0.019679999999999975  0.8726199999999998  0.10906999999999997  1.0000
  H   H81       1.0  0.005039999999999993  0.85794  0.19555  1.0000
  H   H82       1.0  0.012249999999999987  0.76254  0.09342999999999997  1.0000
  H   H83       1.0  0.9888999999999996  0.7874400000000001  0.21524999999999994  1.0000
  H   H84       1.0  0.96714  0.75938  0.24250999999999995  1.0000
  H   H85       1.0  0.9543399999999999  0.64483  0.14361  1.0000
  H   H86       1.0  0.9760899999999998  0.67333  0.11476999999999997  1.0000
  H   H87       1.0  0.14344  0.89403  0.10753999999999997  1.0000
  H   H88       1.0  0.25746  0.89855  0.19922  1.0000
  H   H89       1.0  0.16158  0.7897099999999999  0.0977  1.0000
  H   H90       1.0  0.34559999999999996  0.84047  0.25378  1.0000
  H   H91       1.0  0.37098  0.79247  0.26985  1.0000
  H   H92       1.0  0.25421  0.71123  0.17624  1.0000
  H   H93       1.0  0.22915999999999997  0.75814  0.16112999999999994  1.0000
  H   H94       1.0  0.03458999999999993  0.19903999999999997  0.4049399999999999  1.0000
  H   H95       1.0  0.99614  0.7997799999999999  0.18354  1.0000
  H   H96       1.0  0.22104  0.79164  0.14346  1.0000
  H   H97       1.0  0.90253  0.69035  0.65597  1.0000
  H   H98       1.0  0.9017  0.7763400000000001  0.76902  1.0000
  H   H99       1.0  0.80133  0.67353  0.6563799999999997  1.0000
  H   H100      1.0  0.8538  0.56437  0.52861  1.0000
  H   H101      1.0  0.8056299999999998  0.5021799999999998  0.4533199999999999  1.0000
  H   H102      1.0  0.7118399999999998  0.54288  0.45429  1.0000
  H   H103      1.0  0.7592599999999999  0.60417  0.52826  1.0000
  H   H104      1.0  0.12738000000000008  0.9106000000000001  0.89096  1.0000
  H   H105      1.0  0.14198999999999987  0.80947  0.8043699999999999  1.0000
  H   H106      1.0  0.23741999999999985  0.9186699999999998  0.9064499999999998  1.0000
  H   H107      1.0  0.21228999999999998  0.7734799999999998  0.78441  1.0000
  H   H108      1.0  0.24035999999999988  0.7243699999999998  0.7572799999999997  1.0000
  H   H109      1.0  0.3548699999999999  0.8104000000000001  0.85618  1.0000
  H   H110      1.0  0.32635  0.8610699999999999  0.88491  1.0000
  H   H111      1.0  0.10596999999999993  0.03588999999999989  0.8924299999999997  1.0000
  H   H112      1.0  0.10143999999999988  0.05818999999999994  0.8006999999999997  1.0000
  H   H113      1.0  0.2102700000000001  0.06384000000000006  0.90227  1.0000
  H   H114      1.0  0.15961  0.09192999999999997  0.74624  1.0000
  H   H115      1.0  0.20759000000000002  0.10101000000000002  0.73007  1.0000
  H   H116      1.0  0.2888399999999999  0.07788000000000009  0.82378  1.0000
  H   H117      1.0  0.24195000000000005  0.06816000000000008  0.839  1.0000
  H   H118      1.0  0.80101  0.62965  0.59508  1.0000
  H   H119      1.0  0.20006999999999983  0.8124999999999999  0.8163099999999998  1.0000
  H   H120      1.0  0.20833999999999986  0.07749999999999986  0.8564799999999998  1.0000
  H   H121      1.0  0.75346  0.96566  0.656  1.0000
  H   H122      1.0  0.86725  0.9927100000000001  0.76901  1.0000
  H   H123      1.0  0.85505  0.9828500000000001  0.6563399999999998  1.0000
  H   H124      1.0  0.67486  0.9642400000000001  0.52868  1.0000
  H   H125      1.0  0.64766  0.9511100000000001  0.4533199999999999  1.0000
  H   H126      1.0  0.74241  0.9114100000000002  0.45419  1.0000
  H   H127      1.0  0.7690099999999999  0.9240700000000001  0.52818  1.0000
  H   H128      1.0  0.7635599999999999  0.98031  0.89096  1.0000
  H   H129      1.0  0.66241  0.9949500000000001  0.8044899999999999  1.0000
  H   H130      1.0  0.6690499999999998  0.9877299999999999  0.9065299999999997  1.0000
  H   H131      1.0  0.57222  0.011060000000000033  0.78473  1.0000
  H   H132      1.0  0.5168999999999999  0.03286999999999997  0.7574899999999999  1.0000
  H   H133      1.0  0.5012199999999998  0.0456799999999999  0.8563999999999998  1.0000
  H   H134      1.0  0.5585399999999998  0.023890000000000085  0.88519  1.0000
  H   H135      1.0  0.7865399999999998  0.85655  0.8924799999999998  1.0000
  H   H136      1.0  0.6993699999999999  0.74256  0.8007399999999998  1.0000
  H   H137      1.0  0.6921099999999999  0.8384799999999999  0.90239  1.0000
  H   H138      1.0  0.58664  0.6543199999999999  0.7461399999999999  1.0000
  H   H139      1.0  0.5226299999999998  0.6289899999999999  0.7301399999999998  1.0000
  H   H140      1.0  0.5350199999999999  0.7458299999999999  0.8238099999999998  1.0000
  H   H141      1.0  0.59698  0.77082  0.83883  1.0000
  H   H142      1.0  0.79413  0.96539  0.5950599999999998  1.0000
  H   H143      1.0  0.6162399999999998  0.003919999999999919  0.8165099999999997  1.0000
  H   H144      1.0  0.6482199999999999  0.7789499999999999  0.8565899999999997  1.0000
  H   H145      1.0  0.69035  0.75339  0.65596  1.0000
  H   H146      1.0  0.77624  0.86723  0.7689199999999998  1.0000
  H   H147      1.0  0.67338  0.85496  0.65624  1.0000
  H   H148      1.0  0.56431  0.67471  0.5288  1.0000
  H   H149      1.0  0.50214  0.6474  0.45343  1.0000
  H   H150      1.0  0.54273  0.7420299999999999  0.4541399999999999  1.0000
  H   H151      1.0  0.60399  0.76872  0.52817  1.0000
  H   H152      1.0  0.91057  0.76354  0.89087  1.0000
  H   H153      1.0  0.80951  0.6623899999999999  0.80443  1.0000
  H   H154      1.0  0.91876  0.6690400000000001  0.90647  1.0000
  H   H155      1.0  0.7736899999999999  0.5721799999999999  0.7847599999999999  1.0000
  H   H156      1.0  0.7246399999999997  0.5169  0.7575299999999998  1.0000
  H   H157      1.0  0.8107599999999999  0.50126  0.85641  1.0000
  H   H158      1.0  0.86134  0.5585499999999999  0.8852099999999998  1.0000
  H   H159      1.0  0.035969999999999946  0.78651  0.8924799999999998  1.0000
  H   H160      1.0  0.05819999999999984  0.6992399999999999  0.8006699999999998  1.0000
  H   H161      1.0  0.06384999999999982  0.6920299999999999  0.9022799999999997  1.0000
  H   H162      1.0  0.09193  0.58656  0.74623  1.0000
  H   H163      1.0  0.10104999999999988  0.5224399999999999  0.7300599999999998  1.0000
  H   H164      1.0  0.07788999999999997  0.53498  0.8238199999999999  1.0000
  H   H165      1.0  0.06815000000000006  0.59708  0.83903  1.0000
  H   H166      1.0  0.62951  0.79392  0.59496  1.0000
  H   H167      1.0  0.8126  0.6162100000000001  0.81648  1.0000
  H   H168      1.0  0.07752999999999986  0.6481099999999999  0.8564699999999997  1.0000
  H   H169      1.0  0.9656499999999998  0.90251  0.65602  1.0000
  H   H170      1.0  0.99267  0.9016900000000001  0.7690299999999998  1.0000
  H   H171      1.0  0.98284  0.8012599999999999  0.6563499999999999  1.0000
  H   H172      1.0  0.9642799999999999  0.8538400000000002  0.52877  1.0000
  H   H173      1.0  0.95115  0.80566  0.4533999999999999  1.0000
  H   H174      1.0  0.91142  0.7117900000000001  0.45419  1.0000
  H   H175      1.0  0.9240999999999998  0.7592  0.5282099999999998  1.0000
  H   H176      1.0  0.98031  0.1273599999999999  0.8908999999999998  1.0000
  H   H177      1.0  0.99495  0.14204000000000008  0.80442  1.0000
  H   H178      1.0  0.98775  0.23743999999999993  0.90655  1.0000
  H   H179      1.0  0.011110000000000017  0.21256  0.78474  1.0000
  H   H180      1.0  0.032859999999999875  0.2406199999999999  0.7574799999999998  1.0000
  H   H181      1.0  0.04565999999999991  0.3551599999999999  0.8563899999999998  1.0000
  H   H182      1.0  0.02391000000000004  0.3266600000000001  0.88523  1.0000
  H   H183      1.0  0.8564899999999999  0.10598999999999993  0.8924299999999997  1.0000
  H   H184      1.0  0.74248  0.10145000000000008  0.80072  1.0000
  H   H185      1.0  0.8383599999999999  0.21029999999999996  0.90222  1.0000
  H   H186      1.0  0.6543399999999999  0.15965  0.74626  1.0000
  H   H187      1.0  0.6290299999999999  0.2076  0.73008  1.0000
  H   H188      1.0  0.7458299999999999  0.2888199999999999  0.8237299999999997  1.0000
  H   H189      1.0  0.7708099999999999  0.24195000000000003  0.83895  1.0000
  H   H190      1.0  0.9654  0.8009400000000001  0.59507  1.0000
  H   H191      1.0  0.0038499999999998856  0.20019999999999985  0.8164299999999998  1.0000
  H   H192      1.0  0.77892  0.20836999999999992  0.85649  1.0000
  C   C1        1.0  0.17085  0.26099  0.26251  1.0000
  C   C2        1.0  0.05289  0.24107  0.26198  1.0000
  C   C3        1.0  0.11243  0.29958  0.32794  1.0000
  C   C4        1.0  0.0939  0.26437  0.2853  1.0000
  C   C5        1.0  0.11285  0.25115  0.26401  1.0000
  C   C6        1.0  0.15064999999999995  0.27401999999999993  0.2854199999999999  1.0000
  C   C7        1.0  0.16936999999999997  0.30929  0.32792  1.0000
  C   C8        1.0  0.15060999999999997  0.3219699999999999  0.34962999999999994  1.0000
  C   C9        1.0  0.15894999999999995  0.37664  0.42015  1.0000
  C   C10       1.0  0.18973999999999994  0.41241999999999995  0.4656499999999999  1.0000
  C   C11       1.0  0.17709999999999995  0.44107  0.4878599999999999  1.0000
  C   C12       1.0  0.2038699999999999  0.4754399999999999  0.5297999999999999  1.0000
  C   C13       1.0  0.24406999999999998  0.48168  0.55074  1.0000
  C   C14       1.0  0.25683  0.4526200000000001  0.52923  1.0000
  C   C15       1.0  0.22987  0.41838  0.48711  1.0000
  C   C16       1.0  0.27253  0.51816  0.59412  1.0000
  C   C17       1.0  0.91056  0.16551  0.17909999999999995  1.0000
  C   C18       1.0  0.80135  0.038669999999999996  0.06100999999999999  1.0000
  C   C19       1.0  0.8544599999999999  0.10291  0.11938999999999997  1.0000
  C   C20       1.0  0.8693699999999999  0.1423  0.15493  1.0000
  C   C21       1.0  0.8458299999999999  0.15971  0.16793  1.0000
  C   C22       1.0  0.8071  0.138  0.14532999999999993  1.0000
  C   C23       1.0  0.79225  0.09819000000000001  0.11052  1.0000
  C   C24       1.0  0.81624  0.08107999999999999  0.09783999999999997  1.0000
  C   C25       1.0  0.7460399999999998  0.14629  0.14175999999999997  1.0000
  C   C26       1.0  0.73192  0.1784  0.16217999999999994  1.0000
  C   C27       1.0  0.756  0.21714  0.19839999999999994  1.0000
  C   C28       1.0  0.74049  0.24544  0.21453  1.0000
  C   C29       1.0  0.70024  0.23560999999999999  0.19480999999999996  1.0000
  C   C30       1.0  0.67599  0.19688000000000003  0.1588  1.0000
  C   C31       1.0  0.6917299999999998  0.16871999999999995  0.14277999999999993  1.0000
  C   C32       1.0  0.6845799999999999  0.26572999999999997  0.21240999999999993  1.0000
  C   C33       1.0  0.94347  0.9621899999999999  0.17862  1.0000
  C   C34       1.0  0.81662  0.95508  0.061349999999999995  1.0000
  C   C35       1.0  0.87936  0.95648  0.11917999999999997  1.0000
  C   C36       1.0  0.90039  0.95351  0.15539  1.0000
  C   C37       1.0  0.882  0.94377  0.17098  1.0000
  C   C38       1.0  0.84179  0.9369600000000001  0.14975  1.0000
  C   C39       1.0  0.8207499999999999  0.94048  0.11386  1.0000
  C   C40       1.0  0.83938  0.9502099999999999  0.09861999999999997  1.0000
  C   C41       1.0  0.83354  0.9256299999999998  0.19922  1.0000
  C   C42       1.0  0.8026199999999999  0.91951  0.20574  1.0000
  C   C43       1.0  0.8117399999999998  0.91053  0.23669  1.0000
  C   C44       1.0  0.78506  0.9055600000000001  0.24561  1.0000
  C   C45       1.0  0.7485099999999998  0.90961  0.22373  1.0000
  C   C46       1.0  0.7392  0.9185  0.19267  1.0000
  C   C47       1.0  0.76604  0.92352  0.18401999999999993  1.0000
  C   C48       1.0  0.72061  0.9065599999999999  0.23394  1.0000
  C   C49       1.0  0.09157999999999997  0.0015100000000000018  0.26241  1.0000
  C   C50       1.0  0.20908999999999994  0.02084000000000001  0.262  1.0000
  C   C51       1.0  0.21541999999999997  0.028320000000000015  0.32792  1.0000
  C   C52       1.0  0.19134999999999996  0.02087999999999999  0.28528  1.0000
  C   C53       1.0  0.15110999999999997  0.012809999999999997  0.26394  1.0000
  C   C54       1.0  0.13467999999999997  0.01137  0.28533  1.0000
  C   C55       1.0  0.15843  0.01859000000000001  0.32783  1.0000
  C   C56       1.0  0.1988999999999999  0.027639999999999942  0.3495899999999999  1.0000
  C   C57       1.0  0.2610299999999999  0.04361999999999997  0.42021999999999987  1.0000
  C   C58       1.0  0.2756699999999999  0.05333999999999996  0.4657099999999999  1.0000
  C   C59       1.0  0.31053999999999987  0.04692999999999997  0.4879199999999999  1.0000
  C   C60       1.0  0.32567999999999997  0.05444999999999998  0.52982  1.0000
  C   C61       1.0  0.30633  0.06901000000000002  0.55069  1.0000
  C   C62       1.0  0.27209  0.07661  0.52924  1.0000
  C   C63       1.0  0.2569799999999999  0.06880999999999995  0.48715999999999987  1.0000
  C   C64       1.0  0.3213599999999998  0.0757799999999999  0.5940199999999998  1.0000
  C   C65       1.0  0.26853  0.013629999999999963  0.17911999999999995  1.0000
  C   C66       1.0  0.25971  0.022319999999999993  0.06108  1.0000
  C   C67       1.0  0.26497  0.016499999999999987  0.11943999999999998  1.0000
  C   C68       1.0  0.2855799999999999  0.01264  0.15496  1.0000
  C   C69       1.0  0.32211  0.008220000000000002  0.16796  1.0000
  C   C70       1.0  0.3382799999999999  0.007319999999999969  0.14537999999999995  1.0000
  C   C71       1.0  0.31833  0.012350000000000002  0.11059  1.0000
  C   C72       1.0  0.28166  0.016779999999999986  0.09789999999999997  1.0000
  C   C73       1.0  0.39576  0.99547  0.14180999999999996  1.0000
  C   C74       1.0  0.4303  0.98376  0.16221999999999995  1.0000
  C   C75       1.0  0.44240999999999997  0.9812499999999998  0.19844999999999993  1.0000
  C   C76       1.0  0.47404999999999997  0.96908  0.21459  1.0000
  C   C77       1.0  0.4945899999999999  0.9592000000000002  0.19485999999999995  1.0000
  C   C78       1.0  0.4828799999999999  0.96191  0.15885  1.0000
  C   C79       1.0  0.45110999999999996  0.97404  0.14281999999999995  1.0000
  C   C80       1.0  0.52787  0.9467  0.21249999999999994  1.0000
  C   C81       1.0  0.23521999999999998  0.21647  0.17872  1.0000
  C   C82       1.0  0.24476999999999996  0.10633  0.06141  1.0000
  C   C83       1.0  0.23987  0.16277  0.11924999999999997  1.0000
  C   C84       1.0  0.25506  0.20194  0.15547  1.0000
  C   C85       1.0  0.28902999999999995  0.22728000000000004  0.17105  1.0000
  C   C86       1.0  0.30802  0.21286  0.14981  1.0000
  C   C87       1.0  0.29313999999999996  0.17345  0.1139  1.0000
  C   C88       1.0  0.25927999999999995  0.14848  0.09867999999999998  1.0000
  C   C89       1.0  0.36578  0.27365  0.19934  1.0000
  C   C90       1.0  0.4032299999999999  0.28632  0.20586  1.0000
  C   C91       1.0  0.42505  0.32624  0.23677  1.0000
  C   C92       1.0  0.46063  0.34015  0.24567  1.0000
  C   C93       1.0  0.47528  0.3142  0.22376  1.0000
  C   C94       1.0  0.45354  0.27426  0.19273  1.0000
  C   C95       1.0  0.41808  0.2605799999999999  0.18411999999999995  1.0000
  C   C96       1.0  0.51337  0.32744  0.23394  1.0000
  C   C97       1.0  0.26089  0.09160000000000001  0.26243  1.0000
  C   C98       1.0  0.24112  0.2091  0.26202  1.0000
  C   C99       1.0  0.29959  0.21545  0.32793  1.0000
  C   C100      1.0  0.26439  0.19138  0.2853  1.0000
  C   C101      1.0  0.25112  0.15113  0.26396  1.0000
  C   C102      1.0  0.27395999999999987  0.13470999999999994  0.28533999999999987  1.0000
  C   C103      1.0  0.30924  0.15845  0.32783  1.0000
  C   C104      1.0  0.32195999999999997  0.19893999999999998  0.3496099999999999  1.0000
  C   C105      1.0  0.37660999999999994  0.2610900000000001  0.42027  1.0000
  C   C106      1.0  0.41239  0.27575000000000005  0.46576  1.0000
  C   C107      1.0  0.44103  0.31059999999999993  0.4879999999999999  1.0000
  C   C108      1.0  0.47541  0.32573  0.52989  1.0000
  C   C109      1.0  0.48169  0.30638  0.55075  1.0000
  C   C110      1.0  0.45264  0.27214  0.52927  1.0000
  C   C111      1.0  0.41837  0.25705  0.48719  1.0000
  C   C112      1.0  0.5182199999999999  0.3213699999999999  0.5940699999999998  1.0000
  C   C113      1.0  0.16549999999999995  0.26850999999999997  0.17913999999999994  1.0000
  C   C114      1.0  0.03876  0.25973  0.06108  1.0000
  C   C115      1.0  0.10294999999999999  0.26496  0.11944999999999997  1.0000
  C   C116      1.0  0.14233  0.28555  0.15499  1.0000
  C   C117      1.0  0.15976  0.32209  0.16803  1.0000
  C   C118      1.0  0.13809999999999995  0.33828  0.14545999999999995  1.0000
  C   C119      1.0  0.09829  0.31833  0.11063  1.0000
  C   C120      1.0  0.08113999999999998  0.28166  0.09790999999999997  1.0000
  C   C121      1.0  0.14649  0.3958  0.14199  1.0000
  C   C122      1.0  0.17863999999999997  0.43033  0.16244999999999996  1.0000
  C   C123      1.0  0.21736999999999995  0.44243  0.19868999999999995  1.0000
  C   C124      1.0  0.24575  0.474  0.21481  1.0000
  C   C125      1.0  0.23594999999999997  0.49449  0.19504  1.0000
  C   C126      1.0  0.19722  0.4828  0.15905  1.0000
  C   C127      1.0  0.16900999999999994  0.45111  0.14303999999999994  1.0000
  C   C128      1.0  0.26594  0.52776  0.21247999999999995  1.0000
  C   C129      1.0  0.96221  0.23518  0.17864  1.0000
  C   C130      1.0  0.95508  0.24475  0.0614  1.0000
  C   C131      1.0  0.95649  0.23984  0.11921999999999998  1.0000
  C   C132      1.0  0.95352  0.25504  0.15543  1.0000
  C   C133      1.0  0.9437699999999999  0.28903  0.17102  1.0000
  C   C134      1.0  0.9369399999999999  0.30801  0.14978  1.0000
  C   C135      1.0  0.94047  0.29314  0.11389  1.0000
  C   C136      1.0  0.95022  0.25927  0.09866999999999997  1.0000
  C   C137      1.0  0.92569  0.36575000000000013  0.19931  1.0000
  C   C138      1.0  0.9195399999999999  0.40319  0.2058  1.0000
  C   C139      1.0  0.9105299999999998  0.42503  0.23671  1.0000
  C   C140      1.0  0.90552  0.46062  0.24563  1.0000
  C   C141      1.0  0.90959  0.47525  0.22372  1.0000
  C   C142      1.0  0.91849  0.45348000000000005  0.19267  1.0000
  C   C143      1.0  0.92354  0.41800000000000004  0.18402999999999994  1.0000
  C   C144      1.0  0.9065599999999999  0.51337  0.23394  1.0000
  C   C145      1.0  0.001480000000000003  0.1708  0.2624  1.0000
  C   C146      1.0  0.020839999999999994  0.05287000000000002  0.26194  1.0000
  C   C147      1.0  0.028339999999999997  0.11247000000000001  0.3279  1.0000
  C   C148      1.0  0.020899999999999988  0.09388999999999999  0.28525  1.0000
  C   C149      1.0  0.012829999999999992  0.11281000000000001  0.26392  1.0000
  C   C150      1.0  0.01137  0.15062  0.28532  1.0000
  C   C151      1.0  0.01860999999999999  0.16939  0.32783  1.0000
  C   C152      1.0  0.027650000000000008  0.15066000000000002  0.34958  1.0000
  C   C153      1.0  0.04363000000000001  0.15915  0.42019  1.0000
  C   C154      1.0  0.053329999999999926  0.18999999999999995  0.46566999999999986  1.0000
  C   C155      1.0  0.04692000000000002  0.17735  0.48789  1.0000
  C   C156      1.0  0.05445999999999992  0.20413999999999985  0.5297999999999999  1.0000
  C   C157      1.0  0.06901999999999989  0.24435999999999988  0.5506799999999997  1.0000
  C   C158      1.0  0.07662000000000004  0.25714  0.52923  1.0000
  C   C159      1.0  0.06879  0.23013999999999998  0.48713  1.0000
  C   C160      1.0  0.0757999999999999  0.27267  0.5940199999999998  1.0000
  C   C161      1.0  0.013589999999999974  0.9106000000000001  0.17912999999999996  1.0000
  C   C162      1.0  0.022319999999999993  0.80136  0.06107  1.0000
  C   C163      1.0  0.016479999999999984  0.85449  0.11943999999999998  1.0000
  C   C164      1.0  0.012609999999999996  0.8693999999999998  0.15496  1.0000
  C   C165      1.0  0.008199999999999989  0.8458600000000001  0.16795  1.0000
  C   C166      1.0  0.007319999999999971  0.8071099999999999  0.14535999999999993  1.0000
  C   C167      1.0  0.012320000000000006  0.79226  0.11055  1.0000
  C   C168      1.0  0.016749999999999984  0.8162500000000001  0.09787999999999997  1.0000
  C   C169      1.0  0.99543  0.74604  0.14175999999999997  1.0000
  C   C170      1.0  0.9837399999999998  0.73191  0.16216999999999995  1.0000
  C   C171      1.0  0.9812399999999999  0.75601  0.19841999999999996  1.0000
  C   C172      1.0  0.9691  0.74052  0.21457  1.0000
  C   C173      1.0  0.95921  0.70027  0.19484999999999997  1.0000
  C   C174      1.0  0.9619199999999999  0.67598  0.15882  1.0000
  C   C175      1.0  0.9740299999999998  0.6917  0.14277999999999993  1.0000
  C   C176      1.0  0.94671  0.68462  0.21247999999999995  1.0000
  C   C177      1.0  0.21640999999999996  0.94348  0.17862  1.0000
  C   C178      1.0  0.10629  0.8166299999999999  0.06138  1.0000
  C   C179      1.0  0.16269  0.87937  0.11919999999999997  1.0000
  C   C180      1.0  0.20187  0.9003999999999999  0.15539  1.0000
  C   C181      1.0  0.22722  0.8819900000000002  0.17094  1.0000
  C   C182      1.0  0.2128  0.84178  0.14973  1.0000
  C   C183      1.0  0.1734  0.82075  0.11385  1.0000
  C   C184      1.0  0.14842  0.83939  0.09863999999999998  1.0000
  C   C185      1.0  0.27357999999999993  0.8335700000000001  0.19924  1.0000
  C   C186      1.0  0.28623  0.8027  0.20582  1.0000
  C   C187      1.0  0.32615000000000005  0.81182  0.23673  1.0000
  C   C188      1.0  0.34011  0.78514  0.24559  1.0000
  C   C189      1.0  0.3141999999999999  0.74857  0.22364  1.0000
  C   C190      1.0  0.27425  0.7392900000000001  0.19269  1.0000
  C   C191      1.0  0.26050999999999996  0.76613  0.18409999999999996  1.0000
  C   C192      1.0  0.32747999999999994  0.7206  0.23367999999999994  1.0000
  C   C193      1.0  0.82922  0.7391099999999999  0.7375999999999998  1.0000
  C   C194      1.0  0.9471599999999998  0.7589699999999999  0.7381  1.0000
  C   C195      1.0  0.88756  0.7004599999999999  0.6721099999999999  1.0000
  C   C196      1.0  0.90612  0.73569  0.71476  1.0000
  C   C197      1.0  0.8871899999999999  0.7489299999999999  0.7360799999999997  1.0000
  C   C198      1.0  0.8493999999999999  0.72607  0.7146899999999998  1.0000
  C   C199      1.0  0.83065  0.6908  0.67219  1.0000
  C   C200      1.0  0.8493699999999997  0.6780999999999999  0.6504299999999997  1.0000
  C   C201      1.0  0.8408599999999997  0.6234299999999999  0.5797799999999997  1.0000
  C   C202      1.0  0.81002  0.58767  0.5343  1.0000
  C   C203      1.0  0.82262  0.559  0.51205  1.0000
  C   C204      1.0  0.79583  0.5246299999999999  0.47015999999999997  1.0000
  C   C205      1.0  0.75563  0.5183599999999999  0.4492999999999999  1.0000
  C   C206      1.0  0.7428899999999998  0.54743  0.4708099999999999  1.0000
  C   C207      1.0  0.76989  0.58171  0.51289  1.0000
  C   C208      1.0  0.7273099999999999  0.48180999999999996  0.40594999999999987  1.0000
  C   C209      1.0  0.08933999999999989  0.83443  0.8208299999999997  1.0000
  C   C210      1.0  0.19860999999999998  0.96122  0.93891  1.0000
  C   C211      1.0  0.14548999999999998  0.8970200000000002  0.88055  1.0000
  C   C212      1.0  0.13054999999999992  0.8576299999999999  0.8450099999999998  1.0000
  C   C213      1.0  0.15405999999999984  0.84021  0.8319799999999998  1.0000
  C   C214      1.0  0.19279999999999992  0.86189  0.85455  1.0000
  C   C215      1.0  0.20768999999999993  0.9016900000000001  0.8893899999999998  1.0000
  C   C216      1.0  0.18372999999999992  0.91883  0.9021  1.0000
  C   C217      1.0  0.2537699999999999  0.8534999999999999  0.8579799999999997  1.0000
  C   C218      1.0  0.26781999999999984  0.82133  0.8375099999999998  1.0000
  C   C219      1.0  0.24372000000000005  0.7825999999999999  0.80128  1.0000
  C   C220      1.0  0.25922000000000006  0.75425  0.7852  1.0000
  C   C221      1.0  0.29946999999999985  0.7640799999999999  0.8049899999999998  1.0000
  C   C222      1.0  0.3237399999999999  0.8028100000000001  0.84097  1.0000
  C   C223      1.0  0.30802  0.831  0.85694  1.0000
  C   C224      1.0  0.31530999999999987  0.7340899999999999  0.7875699999999998  1.0000
  C   C225      1.0  0.056499999999999995  0.037779999999999925  0.82133  1.0000
  C   C226      1.0  0.18334  0.04491000000000004  0.93859  1.0000
  C   C227      1.0  0.12060999999999984  0.04348999999999993  0.8807599999999998  1.0000
  C   C228      1.0  0.09957999999999988  0.04646999999999987  0.8445599999999998  1.0000
  C   C229      1.0  0.11798999999999997  0.05621000000000004  0.8289799999999999  1.0000
  C   C230      1.0  0.15818999999999986  0.06302999999999985  0.8502099999999998  1.0000
  C   C231      1.0  0.17922999999999983  0.05949999999999986  0.8860899999999998  1.0000
  C   C232      1.0  0.16059  0.04975999999999999  0.90132  1.0000
  C   C233      1.0  0.16643999999999984  0.07436999999999995  0.8007499999999997  1.0000
  C   C234      1.0  0.19736999999999988  0.08048999999999988  0.7942299999999998  1.0000
  C   C235      1.0  0.18825999999999993  0.08946999999999992  0.76329  1.0000
  C   C236      1.0  0.21495  0.09443999999999998  0.75437  1.0000
  C   C237      1.0  0.2514899999999999  0.09038999999999987  0.7762599999999997  1.0000
  C   C238      1.0  0.26079  0.0814999999999999  0.80731  1.0000
  C   C239      1.0  0.23395  0.07648000000000005  0.8159599999999999  1.0000
  C   C240      1.0  0.27939999999999987  0.09343999999999991  0.7660499999999998  1.0000
  C   C241      1.0  0.9084  0.9984699999999997  0.7375899999999997  1.0000
  C   C242      1.0  0.79089  0.97915  0.7379899999999998  1.0000
  C   C243      1.0  0.78456  0.9716799999999999  0.67209  1.0000
  C   C244      1.0  0.8086299999999998  0.97912  0.71472  1.0000
  C   C245      1.0  0.84888  0.98717  0.73606  1.0000
  C   C246      1.0  0.8652999999999998  0.98861  0.71467  1.0000
  C   C247      1.0  0.84156  0.98139  0.67217  1.0000
  C   C248      1.0  0.80108  0.97235  0.65041  1.0000
  C   C249      1.0  0.73895  0.95638  0.57979  1.0000
  C   C250      1.0  0.72432  0.94665  0.53429  1.0000
  C   C251      1.0  0.68945  0.9530600000000001  0.51207  1.0000
  C   C252      1.0  0.67432  0.94554  0.47016999999999987  1.0000
  C   C253      1.0  0.69368  0.93098  0.44931  1.0000
  C   C254      1.0  0.7279199999999999  0.92339  0.4707699999999999  1.0000
  C   C255      1.0  0.74302  0.9311899999999997  0.5128499999999999  1.0000
  C   C256      1.0  0.6786599999999999  0.92421  0.4059899999999999  1.0000
  C   C257      1.0  0.73147  0.9863599999999999  0.8209  1.0000
  C   C258      1.0  0.74031  0.97767  0.93898  1.0000
  C   C259      1.0  0.73506  0.9835  0.8806  1.0000
  C   C260      1.0  0.71445  0.98735  0.84507  1.0000
  C   C261      1.0  0.6779199999999999  0.9917699999999998  0.8320699999999998  1.0000
  C   C262      1.0  0.66175  0.9926800000000001  0.8546599999999999  1.0000
  C   C263      1.0  0.6817  0.9876499999999999  0.88945  1.0000
  C   C264      1.0  0.7183699999999998  0.98323  0.90215  1.0000
  C   C265      1.0  0.6042599999999998  0.004539999999999852  0.8582199999999998  1.0000
  C   C266      1.0  0.5697199999999999  0.016240000000000063  0.8378  1.0000
  C   C267      1.0  0.55761  0.018740000000000038  0.80157  1.0000
  C   C268      1.0  0.5259699999999999  0.030899999999999886  0.7854199999999998  1.0000
  C   C269      1.0  0.50543  0.04078999999999993  0.80514  1.0000
  C   C270      1.0  0.5171399999999999  0.03808999999999993  0.8411599999999998  1.0000
  C   C271      1.0  0.5489099999999999  0.025959999999999945  0.8571999999999999  1.0000
  C   C272      1.0  0.47215  0.05328999999999998  0.7875  1.0000
  C   C273      1.0  0.7648699999999999  0.78361  0.82136  1.0000
  C   C274      1.0  0.7553  0.8937500000000002  0.93866  1.0000
  C   C275      1.0  0.76023  0.8373200000000001  0.88083  1.0000
  C   C276      1.0  0.7450299999999999  0.79814  0.8446199999999999  1.0000
  C   C277      1.0  0.71107  0.7728  0.82904  1.0000
  C   C278      1.0  0.6920799999999998  0.7872100000000001  0.8502799999999998  1.0000
  C   C279      1.0  0.70696  0.82662  0.88619  1.0000
  C   C280      1.0  0.7408099999999999  0.8515999999999999  0.9014099999999998  1.0000
  C   C281      1.0  0.63431  0.7264199999999998  0.80069  1.0000
  C   C282      1.0  0.59687  0.71374  0.79413  1.0000
  C   C283      1.0  0.5750699999999997  0.67382  0.7632299999999997  1.0000
  C   C284      1.0  0.53954  0.65987  0.75441  1.0000
  C   C285      1.0  0.52493  0.6857999999999999  0.77639  1.0000
  C   C286      1.0  0.5465999999999998  0.7257499999999999  0.8073299999999998  1.0000
  C   C287      1.0  0.5819999999999999  0.7394699999999998  0.8158699999999998  1.0000
  C   C288      1.0  0.48692  0.67253  0.76635  1.0000
  C   C289      1.0  0.7390199999999999  0.90834  0.7374699999999997  1.0000
  C   C290      1.0  0.75886  0.7908799999999998  0.7379599999999998  1.0000
  C   C291      1.0  0.70039  0.7845  0.6720299999999999  1.0000
  C   C292      1.0  0.7355899999999999  0.80859  0.7146599999999999  1.0000
  C   C293      1.0  0.74883  0.84883  0.7359699999999998  1.0000
  C   C294      1.0  0.7259699999999998  0.86524  0.7145699999999998  1.0000
  C   C295      1.0  0.69069  0.84147  0.67208  1.0000
  C   C296      1.0  0.678  0.80099  0.65034  1.0000
  C   C297      1.0  0.6233499999999998  0.7388  0.5798199999999998  1.0000
  C   C298      1.0  0.58755  0.7240800000000001  0.53432  1.0000
  C   C299      1.0  0.55892  0.68923  0.51214  1.0000
  C   C300      1.0  0.5245399999999999  0.67403  0.4701899999999999  1.0000
  C   C301      1.0  0.51827  0.69329  0.44923  1.0000
  C   C302      1.0  0.54731  0.72755  0.47072  1.0000
  C   C303      1.0  0.5815699999999999  0.74272  0.5128299999999999  1.0000
  C   C304      1.0  0.48179999999999995  0.6783899999999999  0.40586  1.0000
  C   C305      1.0  0.83449  0.73146  0.82086  1.0000
  C   C306      1.0  0.96125  0.7402799999999999  0.9388899999999999  1.0000
  C   C307      1.0  0.89704  0.7350399999999999  0.8805299999999998  1.0000
  C   C308      1.0  0.8576699999999997  0.7144199999999998  0.8450099999999998  1.0000
  C   C309      1.0  0.84026  0.6779  0.83201  1.0000
  C   C310      1.0  0.86195  0.66173  0.8546  1.0000
  C   C311      1.0  0.9017599999999999  0.68169  0.8894  1.0000
  C   C312      1.0  0.91888  0.7183499999999999  0.9020799999999998  1.0000
  C   C313      1.0  0.85368  0.60426  0.85821  1.0000
  C   C314      1.0  0.82159  0.5697199999999999  0.8378199999999998  1.0000
  C   C315      1.0  0.7828499999999999  0.55758  0.8015899999999999  1.0000
  C   C316      1.0  0.75453  0.52595  0.78544  1.0000
  C   C317      1.0  0.76436  0.5054099999999999  0.8051599999999998  1.0000
  C   C318      1.0  0.8031  0.51716  0.84117  1.0000
  C   C319      1.0  0.83127  0.54892  0.85721  1.0000
  C   C320      1.0  0.7342299999999999  0.47215  0.78755  1.0000
  C   C321      1.0  0.03777999999999987  0.7648399999999997  0.8213099999999998  1.0000
  C   C322      1.0  0.04492000000000002  0.75528  0.93858  1.0000
  C   C323      1.0  0.04354999999999995  0.76019  0.8807799999999999  1.0000
  C   C324      1.0  0.046509999999999864  0.7449899999999999  0.8445699999999998  1.0000
  C   C325      1.0  0.056249999999999876  0.71099  0.8289699999999998  1.0000
  C   C326      1.0  0.06305999999999985  0.6920099999999999  0.8502099999999998  1.0000
  C   C327      1.0  0.05952999999999992  0.70688  0.8860899999999998  1.0000
  C   C328      1.0  0.0498  0.74075  0.90132  1.0000
  C   C329      1.0  0.07432999999999987  0.63427  0.8006999999999997  1.0000
  C   C330      1.0  0.08045999999999985  0.5968199999999999  0.7941999999999998  1.0000
  C   C331      1.0  0.08945999999999987  0.5749799999999999  0.7632799999999997  1.0000
  C   C332      1.0  0.09446  0.53938  0.75436  1.0000
  C   C333      1.0  0.09039999999999991  0.5247600000000002  0.77628  1.0000
  C   C334      1.0  0.08150999999999987  0.5465399999999998  0.8073399999999997  1.0000
  C   C335      1.0  0.07646000000000006  0.5820200000000001  0.81598  1.0000
  C   C336      1.0  0.09343000000000007  0.48665  0.76607  1.0000
  C   C337      1.0  0.99849  0.82914  0.7375999999999998  1.0000
  C   C338      1.0  0.97914  0.9471000000000002  0.73809  1.0000
  C   C339      1.0  0.9716599999999999  0.88751  0.67213  1.0000
  C   C340      1.0  0.9790899999999998  0.90608  0.7147699999999998  1.0000
  C   C341      1.0  0.9871399999999998  0.8871399999999998  0.7360799999999997  1.0000
  C   C342      1.0  0.9885899999999997  0.84933  0.71468  1.0000
  C   C343      1.0  0.9813699999999999  0.83058  0.6721799999999998  1.0000
  C   C344      1.0  0.9723399999999999  0.84932  0.65044  1.0000
  C   C345      1.0  0.9563799999999999  0.84084  0.57983  1.0000
  C   C346      1.0  0.9466699999999999  0.80999  0.53435  1.0000
  C   C347      1.0  0.95309  0.82264  0.51214  1.0000
  C   C348      1.0  0.94555  0.79586  0.47022999999999987  1.0000
  C   C349      1.0  0.93098  0.75564  0.44933  1.0000
  C   C350      1.0  0.92339  0.74286  0.47078  1.0000
  C   C351      1.0  0.93121  0.76985  0.51288  1.0000
  C   C352      1.0  0.9241999999999999  0.7273399999999999  0.4059899999999999  1.0000
  C   C353      1.0  0.9863899999999999  0.08938000000000001  0.82085  1.0000
  C   C354      1.0  0.97767  0.19860999999999993  0.9389  1.0000
  C   C355      1.0  0.9835099999999999  0.14549000000000004  0.8805399999999999  1.0000
  C   C356      1.0  0.98738  0.13057999999999986  0.8450099999999998  1.0000
  C   C357      1.0  0.99179  0.15410999999999989  0.8320199999999998  1.0000
  C   C358      1.0  0.9926799999999998  0.1928699999999999  0.8546199999999998  1.0000
  C   C359      1.0  0.9876799999999999  0.2077199999999999  0.8894299999999998  1.0000
  C   C360      1.0  0.9832399999999999  0.18372999999999992  0.9020899999999997  1.0000
  C   C361      1.0  0.004579999999999998  0.25395  0.85824  1.0000
  C   C362      1.0  0.016269999999999857  0.2680899999999999  0.8378199999999998  1.0000
  C   C363      1.0  0.018759999999999884  0.2439899999999999  0.8015799999999997  1.0000
  C   C364      1.0  0.030909999999999854  0.25947999999999993  0.7854199999999998  1.0000
  C   C365      1.0  0.04078999999999992  0.2997399999999999  0.8051499999999998  1.0000
  C   C366      1.0  0.03808  0.32402  0.84118  1.0000
  C   C367      1.0  0.025969999999999986  0.30829000000000006  0.85722  1.0000
  C   C368      1.0  0.05328  0.3153800000000001  0.78752  1.0000
  C   C369      1.0  0.7835199999999999  0.05650999999999993  0.82133  1.0000
  C   C370      1.0  0.89366  0.18338999999999997  0.93858  1.0000
  C   C371      1.0  0.8372399999999998  0.12063999999999993  0.8807599999999998  1.0000
  C   C372      1.0  0.7980599999999998  0.09959999999999986  0.8445599999999998  1.0000
  C   C373      1.0  0.7727199999999999  0.11800999999999998  0.82899  1.0000
  C   C374      1.0  0.7871399999999997  0.15821999999999986  0.8502099999999998  1.0000
  C   C375      1.0  0.8265399999999999  0.17925999999999986  0.8860799999999998  1.0000
  C   C376      1.0  0.85153  0.16063000000000002  0.90131  1.0000
  C   C377      1.0  0.7263700000000001  0.16647000000000003  0.80072  1.0000
  C   C378      1.0  0.7137299999999998  0.19737999999999983  0.7941999999999998  1.0000
  C   C379      1.0  0.6738199999999999  0.18827999999999995  0.7632799999999997  1.0000
  C   C380      1.0  0.6599  0.21495000000000003  0.75436  1.0000
  C   C381      1.0  0.6858199999999998  0.25148999999999994  0.7762499999999998  1.0000
  C   C382      1.0  0.72576  0.26078  0.80727  1.0000
  C   C383      1.0  0.7394700000000001  0.23396  0.8159199999999999  1.0000
  C   C384      1.0  0.6725499999999999  0.27938  0.76604  1.0000
  N   N1        1.0  0.26342999999999994  0.5470099999999999  0.6189599999999998  1.0000
  N   N2        1.0  0.2974  0.57466  0.65437  1.0000
  N   N3        1.0  0.32656  0.56305  0.65128  1.0000
  N   N4        1.0  0.31155  0.52779  0.6139  1.0000
  N   N5        1.0  0.7068599999999999  0.30355  0.24662999999999993  1.0000
  N   N6        1.0  0.68222  0.32089999999999996  0.25271  1.0000
  N   N7        1.0  0.64573  0.29443  0.22294999999999995  1.0000
  N   N8        1.0  0.6466399999999999  0.25972999999999996  0.19744999999999996  1.0000
  N   N9        1.0  0.17152999999999993  0.35704999999999987  0.3929899999999999  1.0000
  N   N10       1.0  0.78515  0.15844  0.15941  1.0000
  N   N11       1.0  0.82057  0.92732  0.16286  1.0000
  N   N12       1.0  0.6951399999999999  0.90249  0.26503  1.0000
  N   N13       1.0  0.72707  0.90152  0.26585  1.0000
  N   N14       1.0  0.6851699999999997  0.9104  0.21348  1.0000
  N   N15       1.0  0.6698299999999999  0.9078800000000001  0.23328999999999994  1.0000
  N   N16       1.0  0.3554899999999999  0.07189000000000001  0.61862  1.0000
  N   N17       1.0  0.35734  0.07950000000000002  0.65419  1.0000
  N   N18       1.0  0.32515  0.08784999999999997  0.65141  1.0000
  N   N19       1.0  0.30236  0.08574  0.61406  1.0000
  N   N20       1.0  0.5398  0.9431499999999999  0.24674999999999997  1.0000
  N   N21       1.0  0.57051  0.9318700000000001  0.25285  1.0000
  N   N22       1.0  0.5772499999999998  0.9285299999999999  0.22306999999999994  1.0000
  N   N23       1.0  0.5508599999999998  0.93771  0.19755  1.0000
  N   N24       1.0  0.22128999999999996  0.03595999999999996  0.3929699999999999  1.0000
  N   N25       1.0  0.37429  0.0009499999999999952  0.15947  1.0000
  N   N26       1.0  0.34233  0.23562999999999998  0.16289  1.0000
  N   N27       1.0  0.56992  0.36255  0.265  1.0000
  N   N28       1.0  0.5388199999999999  0.36438  0.26584  1.0000
  N   N29       1.0  0.5283399999999998  0.30310999999999994  0.21348  1.0000
  N   N30       1.0  0.56348  0.3254099999999999  0.23326999999999995  1.0000
  N   N31       1.0  0.54674  0.35548  0.6187  1.0000
  N   N32       1.0  0.57467  0.35731  0.65425  1.0000
  N   N33       1.0  0.56351  0.32512  0.65144  1.0000
  N   N34       1.0  0.52827  0.30235  0.61409  1.0000
  N   N35       1.0  0.30378  0.54017  0.24688  1.0000
  N   N36       1.0  0.32066  0.5708700000000001  0.25253  1.0000
  N   N37       1.0  0.29395  0.5771400000000002  0.22241  1.0000
  N   N38       1.0  0.25955  0.55041  0.19705999999999996  1.0000
  N   N39       1.0  0.35702999999999996  0.22133999999999993  0.3929899999999999  1.0000
  N   N40       1.0  0.15857999999999997  0.37431999999999993  0.15961999999999996  1.0000
  N   N41       1.0  0.92726  0.34232  0.16286  1.0000
  N   N42       1.0  0.9024999999999999  0.56993  0.265  1.0000
  N   N43       1.0  0.9015099999999999  0.53884  0.26584  1.0000
  N   N44       1.0  0.9104299999999999  0.52832  0.21348  1.0000
  N   N45       1.0  0.9079199999999998  0.56348  0.23326999999999995  1.0000
  N   N46       1.0  0.07192999999999998  0.26317  0.61866  1.0000
  N   N47       1.0  0.07956999999999989  0.29688  0.6542399999999998  1.0000
  N   N48       1.0  0.08789999999999998  0.32628  0.65143  1.0000
  N   N49       1.0  0.08576000000000002  0.31171  0.61406  1.0000
  N   N50       1.0  0.94314  0.70693  0.24672999999999998  1.0000
  N   N51       1.0  0.93187  0.68229  0.25281  1.0000
  N   N52       1.0  0.92856  0.64579  0.22301999999999994  1.0000
  N   N53       1.0  0.93775  0.64668  0.19750999999999996  1.0000
  N   N54       1.0  0.035959999999999985  0.17164000000000004  0.39294  1.0000
  N   N55       1.0  0.000949999999999999  0.7851799999999999  0.15944  1.0000
  N   N56       1.0  0.23557  0.82057  0.1628  1.0000
  N   N57       1.0  0.3626599999999999  0.69508  0.26468  1.0000
  N   N58       1.0  0.3644299999999999  0.72701  0.26551  1.0000
  N   N59       1.0  0.30319  0.6851699999999998  0.21319  1.0000
  N   N60       1.0  0.32547  0.66976  0.23292  1.0000
  N   N61       1.0  0.73681  0.45329  0.38131  1.0000
  N   N62       1.0  0.7030899999999999  0.42535  0.34573999999999994  1.0000
  N   N63       1.0  0.6736999999999999  0.43651  0.34857  1.0000
  N   N64       1.0  0.68828  0.47174999999999995  0.38594  1.0000
  N   N65       1.0  0.2933299999999999  0.69626  0.75318  1.0000
  N   N66       1.0  0.31837  0.67937  0.74751  1.0000
  N   N67       1.0  0.35476  0.70607  0.77762  1.0000
  N   N68       1.0  0.3533799999999999  0.7404799999999999  0.8029699999999997  1.0000
  N   N69       1.0  0.82839  0.64303  0.60706  1.0000
  N   N70       1.0  0.21466999999999997  0.8414000000000001  0.84038  1.0000
  N   N71       1.0  0.17940999999999988  0.07267999999999994  0.8370999999999997  1.0000
  N   N72       1.0  0.3048799999999999  0.09750999999999992  0.7349799999999997  1.0000
  N   N73       1.0  0.2729599999999999  0.09848999999999997  0.7341499999999999  1.0000
  N   N74       1.0  0.31484  0.08959000000000003  0.78651  1.0000
  N   N75       1.0  0.33019  0.09210999999999991  0.76671  1.0000
  N   N76       1.0  0.6445299999999999  0.9280999999999999  0.3813799999999999  1.0000
  N   N77       1.0  0.64268  0.92049  0.34581  1.0000
  N   N78       1.0  0.67487  0.9121500000000001  0.3486  1.0000
  N   N79       1.0  0.69766  0.91426  0.38594999999999996  1.0000
  N   N80       1.0  0.46021999999999996  0.056839999999999884  0.7532399999999998  1.0000
  N   N81       1.0  0.4295  0.06810999999999998  0.74715  1.0000
  N   N82       1.0  0.42275999999999997  0.07144999999999994  0.77692  1.0000
  N   N83       1.0  0.4491499999999999  0.06226999999999987  0.8024499999999998  1.0000
  N   N84       1.0  0.7787  0.9640299999999999  0.60703  1.0000
  N   N85       1.0  0.6257299999999998  0.9990499999999998  0.8405599999999998  1.0000
  N   N86       1.0  0.6577799999999999  0.7644299999999999  0.8371899999999998  1.0000
  N   N87       1.0  0.4304  0.63738  0.73536  1.0000
  N   N88       1.0  0.46149999999999997  0.63558  0.73452  1.0000
  N   N89       1.0  0.47198  0.6968400000000002  0.78684  1.0000
  N   N90       1.0  0.4368499999999999  0.67458  0.7671299999999998  1.0000
  N   N91       1.0  0.45294  0.6444699999999999  0.38103  1.0000
  N   N92       1.0  0.42530999999999997  0.6430699999999999  0.3456399999999999  1.0000
  N   N93       1.0  0.43694  0.67529  0.34872  1.0000
  N   N94       1.0  0.47218999999999994  0.69763  0.38609  1.0000
  N   N95       1.0  0.6964199999999998  0.46021999999999985  0.7533199999999998  1.0000
  N   N96       1.0  0.6790599999999999  0.4295199999999999  0.7472499999999999  1.0000
  N   N97       1.0  0.7055199999999999  0.42278  0.7770199999999999  1.0000
  N   N98       1.0  0.7402099999999999  0.44916999999999996  0.80251  1.0000
  N   N99       1.0  0.64292  0.77854  0.60698  1.0000
  N   N100      1.0  0.8415099999999999  0.6257200000000002  0.84054  1.0000
  N   N101      1.0  0.07270999999999986  0.6576899999999998  0.8371099999999998  1.0000
  N   N102      1.0  0.09748999999999998  0.43008  0.735  1.0000
  N   N103      1.0  0.09847999999999998  0.4611799999999999  0.73417  1.0000
  N   N104      1.0  0.08954999999999987  0.47168999999999983  0.7865299999999997  1.0000
  N   N105      1.0  0.09206999999999989  0.4365299999999998  0.7667299999999998  1.0000
  N   N106      1.0  0.9280699999999998  0.73684  0.38137  1.0000
  N   N107      1.0  0.92044  0.70313  0.34578  1.0000
  N   N108      1.0  0.9120999999999998  0.67373  0.34858  1.0000
  N   N109      1.0  0.9142399999999999  0.6883  0.38594999999999996  1.0000
  N   N110      1.0  0.05685999999999986  0.29307999999999984  0.7532799999999997  1.0000
  N   N111      1.0  0.06812999999999987  0.3177299999999999  0.7471999999999998  1.0000
  N   N112      1.0  0.07142999999999994  0.35422  0.77699  1.0000
  N   N113      1.0  0.06223999999999987  0.3533299999999999  0.8024899999999998  1.0000
  N   N114      1.0  0.96404  0.8283500000000001  0.6070799999999997  1.0000
  N   N115      1.0  0.99905  0.21481000000000008  0.84054  1.0000
  N   N116      1.0  0.76437  0.17944  0.83713  1.0000
  N   N117      1.0  0.6374  0.30484  0.73496  1.0000
  N   N118      1.0  0.6355999999999999  0.2729199999999999  0.7341399999999998  1.0000
  N   N119      1.0  0.69684  0.31480999999999987  0.78649  1.0000
  N   N120      1.0  0.6745199999999998  0.3301499999999999  0.7666899999999998  1.0000
  O   O1        1.0  0.038129999999999956  0.20772999999999994  0.22469999999999998  1.0000
  O   O2        1.0  0.03558999999999997  0.25644999999999996  0.28091999999999995  1.0000
  O   O3        1.0  0.15422  0.22649000000000002  0.22639  1.0000
  O   O4        1.0  0.20297  0.28536  0.28059  1.0000
  O   O5        1.0  0.12525  0.36634  0.4084  1.0000
  O   O6        1.0  0.9245399999999999  0.19966999999999996  0.21523999999999993  1.0000
  O   O7        1.0  0.92871  0.14911  0.16182  1.0000
  O   O8        1.0  0.8227  0.026610000000000005  0.04695  1.0000
  O   O9        1.0  0.7689999999999999  0.01786  0.0469  1.0000
  O   O10       1.0  0.72414  0.11228999999999997  0.11144999999999997  1.0000
  O   O11       1.0  0.9627  0.96504  0.21555999999999995  1.0000
  O   O12       1.0  0.9578099999999999  0.96668  0.15988999999999995  1.0000
  O   O13       1.0  0.8346399999999999  0.96185  0.04710999999999999  1.0000
  O   O14       1.0  0.7810099999999999  0.9524099999999999  0.04700999999999999  1.0000
  O   O15       1.0  0.8675  0.92896  0.22450999999999993  1.0000
  O   O16       1.0  0.63129  0.9031899999999999  0.26801  1.0000
  O   O17       1.0  0.1866  0.016960000000000006  0.22476  1.0000
  O   O18       1.0  0.2453  0.024329999999999984  0.28091  1.0000
  O   O19       1.0  0.07210999999999997  0.9999  0.22628  1.0000
  O   O20       1.0  0.07751000000000002  0.9952400000000001  0.28049  1.0000
  O   O21       1.0  0.2830099999999999  0.042209999999999956  0.4085299999999999  1.0000
  O   O22       1.0  0.2907199999999999  0.01569999999999997  0.21531999999999996  1.0000
  O   O23       1.0  0.2331  0.012690000000000005  0.16181  1.0000
  O   O24       1.0  0.22428  0.02029  0.04693  1.0000
  O   O25       1.0  0.27791  0.02904  0.04693  1.0000
  O   O26       1.0  0.38736  0.9991900000000001  0.11152999999999998  1.0000
  O   O27       1.0  0.25291  0.25054  0.21567999999999998  1.0000
  O   O28       1.0  0.20214  0.19326  0.15996  1.0000
  O   O29       1.0  0.21247  0.08527999999999997  0.047039999999999985  1.0000
  O   O30       1.0  0.26605999999999996  0.09460999999999999  0.04707999999999998  1.0000
  O   O31       1.0  0.35714  0.29559  0.22469999999999998  1.0000
  O   O32       1.0  0.63667  0.36481  0.26792  1.0000
  O   O33       1.0  0.20778999999999997  0.18659  0.22472999999999999  1.0000
  O   O34       1.0  0.25649  0.24533  0.28097  1.0000
  O   O35       1.0  0.22639999999999996  0.07212  0.22631  1.0000
  O   O36       1.0  0.28524  0.07754  0.28053  1.0000
  O   O37       1.0  0.3662799999999999  0.28309  0.40860999999999986  1.0000
  O   O38       1.0  0.19962999999999997  0.29067999999999994  0.21532999999999994  1.0000
  O   O39       1.0  0.14912  0.23307999999999998  0.16183  1.0000
  O   O40       1.0  0.026629999999999997  0.2243  0.04693  1.0000
  O   O41       1.0  0.0179  0.27794  0.04694  1.0000
  O   O42       1.0  0.11252  0.38742  0.11163999999999998  1.0000
  O   O43       1.0  0.96508  0.25288999999999995  0.21559999999999996  1.0000
  O   O44       1.0  0.96667  0.20210000000000003  0.15987999999999997  1.0000
  O   O45       1.0  0.9617799999999999  0.21245  0.04702999999999999  1.0000
  O   O46       1.0  0.9524799999999998  0.26605  0.047089999999999986  1.0000
  O   O47       1.0  0.92911  0.35712  0.22464999999999996  1.0000
  O   O48       1.0  0.90314  0.6366900000000002  0.26795  1.0000
  O   O49       1.0  0.01698999999999997  0.038119999999999966  0.22469999999999998  1.0000
  O   O50       1.0  0.024289999999999985  0.03555  0.28083  1.0000
  O   O51       1.0  0.99988  0.15416  0.22629  1.0000
  O   O52       1.0  0.9951599999999998  0.20292999999999994  0.2804599999999999  1.0000
  O   O53       1.0  0.04222999999999999  0.12546999999999997  0.4085  1.0000
  O   O54       1.0  0.015589999999999968  0.9245999999999999  0.21528999999999995  1.0000
  O   O55       1.0  0.012720000000000004  0.92872  0.16184  1.0000
  O   O56       1.0  0.020329999999999994  0.82268  0.046969999999999984  1.0000
  O   O57       1.0  0.029  0.76899  0.04687  1.0000
  O   O58       1.0  0.9991099999999999  0.72413  0.11143999999999997  1.0000
  O   O59       1.0  0.25050999999999995  0.96273  0.21553999999999995  1.0000
  O   O60       1.0  0.19317999999999994  0.95781  0.15988999999999995  1.0000
  O   O61       1.0  0.08522999999999999  0.8345799999999999  0.047039999999999985  1.0000
  O   O62       1.0  0.09457999999999998  0.781  0.04700999999999999  1.0000
  O   O63       1.0  0.29552  0.86756  0.22454999999999994  1.0000
  O   O64       1.0  0.36445999999999995  0.6320199999999999  0.26866999999999996  1.0000
  O   O65       1.0  0.96186  0.7923099999999997  0.7753399999999998  1.0000
  O   O66       1.0  0.9644199999999999  0.7434999999999999  0.71916  1.0000
  O   O67       1.0  0.8458199999999999  0.77362  0.7737099999999998  1.0000
  O   O68       1.0  0.79711  0.71472  0.7195399999999997  1.0000
  O   O69       1.0  0.87453  0.63372  0.5914399999999997  1.0000
  O   O70       1.0  0.07538999999999993  0.8003  0.7846799999999998  1.0000
  O   O71       1.0  0.07126  0.85088  0.83819  1.0000
  O   O72       1.0  0.17731999999999992  0.9733499999999999  0.9530499999999997  1.0000
  O   O73       1.0  0.23095999999999997  0.9820899999999999  0.95307  1.0000
  O   O74       1.0  0.2757200000000001  0.88747  0.8883  1.0000
  O   O75       1.0  0.03726999999999987  0.03491999999999992  0.7843899999999998  1.0000
  O   O76       1.0  0.04217999999999987  0.03329999999999987  0.8400799999999998  1.0000
  O   O77       1.0  0.16536999999999985  0.0381499999999999  0.9528899999999998  1.0000
  O   O78       1.0  0.21896999999999986  0.047589999999999924  0.9529799999999998  1.0000
  O   O79       1.0  0.13247999999999993  0.07104000000000002  0.77545  1.0000
  O   O80       1.0  0.36874999999999986  0.09680999999999985  0.7319999999999998  1.0000
  O   O81       1.0  0.81338  0.9830099999999999  0.7752199999999998  1.0000
  O   O82       1.0  0.7546899999999999  0.9756800000000001  0.7190999999999997  1.0000
  O   O83       1.0  0.9278699999999998  7.999999999987405e-05  0.7737099999999998  1.0000
  O   O84       1.0  0.92247  0.004739999999999918  0.7194999999999998  1.0000
  O   O85       1.0  0.7169799999999997  0.95781  0.5914799999999998  1.0000
  O   O86       1.0  0.7092699999999998  0.98426  0.7846799999999998  1.0000
  O   O87       1.0  0.76691  0.9873099999999998  0.8382099999999998  1.0000
  O   O88       1.0  0.77574  0.97971  0.9530899999999998  1.0000
  O   O89       1.0  0.7220599999999999  0.9709399999999998  0.9530499999999997  1.0000
  O   O90       1.0  0.6126699999999998  0.0008399999999999041  0.8885199999999999  1.0000
  O   O91       1.0  0.7471599999999998  0.7495399999999999  0.7843999999999998  1.0000
  O   O92       1.0  0.7979399999999999  0.80681  0.8401199999999998  1.0000
  O   O93       1.0  0.7875899999999998  0.9147699999999997  0.9529799999999998  1.0000
  O   O94       1.0  0.7339699999999998  0.9054099999999998  0.9529299999999998  1.0000
  O   O95       1.0  0.6429699999999998  0.70451  0.7753399999999998  1.0000
  O   O96       1.0  0.36333999999999983  0.63565  0.7312499999999997  1.0000
  O   O97       1.0  0.7921799999999998  0.8134100000000001  0.7752599999999997  1.0000
  O   O98       1.0  0.74352  0.75465  0.71901  1.0000
  O   O99       1.0  0.7735099999999999  0.9278300000000002  0.7735999999999997  1.0000
  O   O100      1.0  0.7146699999999999  0.9224100000000001  0.7193699999999997  1.0000
  O   O101      1.0  0.6336899999999999  0.7168599999999998  0.5915599999999998  1.0000
  O   O102      1.0  0.80034  0.7093  0.78469  1.0000
  O   O103      1.0  0.8508799999999999  0.7668800000000001  0.83816  1.0000
  O   O104      1.0  0.97337  0.7757199999999999  0.9530499999999997  1.0000
  O   O105      1.0  0.98212  0.72208  0.9530199999999999  1.0000
  O   O106      1.0  0.8876899999999999  0.6126699999999999  0.8885099999999998  1.0000
  O   O107      1.0  0.0349200000000001  0.74707  0.78437  1.0000
  O   O108      1.0  0.033279999999999865  0.79789  0.8400799999999998  1.0000
  O   O109      1.0  0.038209999999999855  0.7875699999999999  0.9529299999999998  1.0000
  O   O110      1.0  0.0475299999999999  0.73398  0.9528899999999998  1.0000
  O   O111      1.0  0.07095999999999998  0.64291  0.77537  1.0000
  O   O112      1.0  0.09689000000000002  0.36334  0.73209  1.0000
  O   O113      1.0  0.9830299999999996  0.9618499999999998  0.7753499999999998  1.0000
  O   O114      1.0  0.9756399999999997  0.9643999999999999  0.7191799999999998  1.0000
  O   O115      1.0  0.0001299999999999957  0.84585  0.77374  1.0000
  O   O116      1.0  0.0047700000000000025  0.7970100000000001  0.71948  1.0000
  O   O117      1.0  0.9577799999999996  0.87452  0.5915299999999998  1.0000
  O   O118      1.0  0.98438  0.07536999999999985  0.7846699999999998  1.0000
  O   O119      1.0  0.98728  0.07126000000000009  0.83815  1.0000
  O   O120      1.0  0.9796499999999997  0.17729999999999987  0.9529999999999997  1.0000
  O   O121      1.0  0.97099  0.23099000000000006  0.9530999999999998  1.0000
  O   O122      1.0  0.0009099999999999537  0.27586  0.88857  1.0000
  O   O123      1.0  0.7494199999999999  0.037259999999999856  0.7844299999999997  1.0000
  O   O124      1.0  0.8067699999999999  0.04218999999999993  0.8400499999999997  1.0000
  O   O125      1.0  0.9147199999999999  0.16543999999999995  0.95291  1.0000
  O   O126      1.0  0.9053799999999999  0.2190199999999999  0.95295  1.0000
  O   O127      1.0  0.70441  0.13248  0.77537  1.0000
  O   O128      1.0  0.6351499999999999  0.36868  0.73199  1.0000
