data_image0
_chemical_formula_structural       Cu24H288C480N48O144
_chemical_formula_sum              "Cu24 H288 C480 N48 O144"
_cell_length_a       33.46921
_cell_length_b       33.46921
_cell_length_c       33.469210000000004
_cell_angle_alpha    90.01345000000002
_cell_angle_beta     90.01345000000002
_cell_angle_gamma    90.01345000000002

_space_group_name_H-M_alt    "P 1"
_space_group_IT_number       1

loop_
  _space_group_symop_operation_xyz
  'x, y, z'

loop_
  _atom_site_type_symbol
  _atom_site_label
  _atom_site_symmetry_multiplicity
  _atom_site_fract_x
  _atom_site_fract_y
  _atom_site_fract_z
  _atom_site_occupancy
  Cu  Cu1       1.0  0.46359999999999996  0.24977999999999997  0.75015  1.0000
  Cu  Cu2       1.0  0.03657  0.24968  0.75038  1.0000
  Cu  Cu3       1.0  0.7501499999999998  0.4636  0.24978  1.0000
  Cu  Cu4       1.0  0.75037  0.03657  0.24968000000000004  1.0000
  Cu  Cu5       1.0  0.24977999999999997  0.7501499999999998  0.4636  1.0000
  Cu  Cu6       1.0  0.24968  0.75038  0.03657  1.0000
  Cu  Cu7       1.0  0.7502699999999998  0.5365799999999997  0.24978  1.0000
  Cu  Cu8       1.0  0.7502  0.9637099999999998  0.24976999999999996  1.0000
  Cu  Cu9       1.0  0.5365799999999997  0.24977999999999997  0.75027  1.0000
  Cu  Cu10      1.0  0.9637099999999998  0.24977  0.7502099999999998  1.0000
  Cu  Cu11      1.0  0.24976  0.7502099999999998  0.9637100000000001  1.0000
  Cu  Cu12      1.0  0.24977999999999997  0.75027  0.53658  1.0000
  Cu  Cu13      1.0  0.24971999999999997  0.46341999999999994  0.75022  1.0000
  Cu  Cu14      1.0  0.24978999999999998  0.036289999999999996  0.75023  1.0000
  Cu  Cu15      1.0  0.4634199999999999  0.75022  0.24973000000000004  1.0000
  Cu  Cu16      1.0  0.03629  0.7502299999999997  0.24979  1.0000
  Cu  Cu17      1.0  0.75023  0.24979  0.03629  1.0000
  Cu  Cu18      1.0  0.7502099999999998  0.24973  0.46342  1.0000
  Cu  Cu19      1.0  0.5363999999999998  0.75022  0.24985  1.0000
  Cu  Cu20      1.0  0.96342  0.75032  0.24962  1.0000
  Cu  Cu21      1.0  0.24985  0.5364  0.75022  1.0000
  Cu  Cu22      1.0  0.24962  0.96342  0.75032  1.0000
  Cu  Cu23      1.0  0.75022  0.24985  0.5364  1.0000
  Cu  Cu24      1.0  0.75031  0.24961999999999998  0.9634299999999999  1.0000
  H   H1        1.0  0.51608  0.39481  0.53408  1.0000
  H   H2        1.0  0.43161  0.31902  0.65007  1.0000
  H   H3        1.0  0.42669999999999997  0.36243  0.58989  1.0000
  H   H4        1.0  0.5553599999999997  0.36494  0.58226  1.0000
  H   H5        1.0  0.55959  0.32097  0.64223  1.0000
  H   H6        1.0  0.51929  0.4150899999999999  0.47805  1.0000
  H   H7        1.0  0.9837  0.1052  0.5335999999999999  1.0000
  H   H8        1.0  0.06859  0.18078  0.64956  1.0000
  H   H9        1.0  0.07276  0.13774  0.58903  1.0000
  H   H10       1.0  0.9440899999999998  0.13540999999999997  0.58233  1.0000
  H   H11       1.0  0.9405099999999997  0.17926999999999996  0.6425799999999998  1.0000
  H   H12       1.0  0.9805399999999999  0.08476999999999997  0.47796  1.0000
  H   H13       1.0  0.98369  0.39497  0.96653  1.0000
  H   H14       1.0  0.06786999999999997  0.3191599999999999  0.85024  1.0000
  H   H15       1.0  0.07282999999999999  0.36245  0.91053  1.0000
  H   H16       1.0  0.94419  0.36494  0.91829  1.0000
  H   H17       1.0  0.93987  0.3211499999999999  0.8581499999999997  1.0000
  H   H18       1.0  0.98087  0.4150499999999999  0.02259  1.0000
  H   H19       1.0  0.5166799999999998  0.10442  0.96602  1.0000
  H   H20       1.0  0.4318299999999999  0.18082  0.85058  1.0000
  H   H21       1.0  0.4270799999999999  0.13755  0.91087  1.0000
  H   H22       1.0  0.55573  0.135  0.9183  1.0000
  H   H23       1.0  0.5598999999999997  0.17897  0.8583  1.0000
  H   H24       1.0  0.5195199999999998  0.08498999999999998  0.022439999999999995  1.0000
  H   H25       1.0  0.53408  0.5160799999999998  0.39481  1.0000
  H   H26       1.0  0.65007  0.43161  0.31902  1.0000
  H   H27       1.0  0.58989  0.4267  0.36243  1.0000
  H   H28       1.0  0.58226  0.55536  0.36494  1.0000
  H   H29       1.0  0.6422299999999997  0.55959  0.32097  1.0000
  H   H30       1.0  0.47804  0.51929  0.41509  1.0000
  H   H31       1.0  0.53359  0.9836999999999999  0.1052  1.0000
  H   H32       1.0  0.64956  0.06859  0.18079  1.0000
  H   H33       1.0  0.58903  0.07276  0.13774  1.0000
  H   H34       1.0  0.58233  0.9440899999999998  0.13541  1.0000
  H   H35       1.0  0.64257  0.9405199999999998  0.17927  1.0000
  H   H36       1.0  0.47795  0.98054  0.08477  1.0000
  H   H37       1.0  0.96652  0.98369  0.39497  1.0000
  H   H38       1.0  0.85024  0.06788  0.31916  1.0000
  H   H39       1.0  0.91053  0.07282999999999998  0.36245  1.0000
  H   H40       1.0  0.91829  0.94419  0.36495  1.0000
  H   H41       1.0  0.8581499999999999  0.9398699999999998  0.32115  1.0000
  H   H42       1.0  0.02259  0.9808699999999999  0.41504999999999986  1.0000
  H   H43       1.0  0.96602  0.51668  0.10441999999999999  1.0000
  H   H44       1.0  0.85058  0.4318299999999999  0.18082  1.0000
  H   H45       1.0  0.91086  0.42708  0.13756  1.0000
  H   H46       1.0  0.9183  0.5557299999999998  0.13499999999999998  1.0000
  H   H47       1.0  0.85829  0.5599  0.17897  1.0000
  H   H48       1.0  0.02243  0.51952  0.08499  1.0000
  H   H49       1.0  0.3948099999999999  0.53408  0.51609  1.0000
  H   H50       1.0  0.31902  0.65007  0.43161  1.0000
  H   H51       1.0  0.36242999999999986  0.58989  0.4267  1.0000
  H   H52       1.0  0.36493  0.5822599999999998  0.55536  1.0000
  H   H53       1.0  0.32096  0.64223  0.55959  1.0000
  H   H54       1.0  0.4150899999999999  0.47804  0.51929  1.0000
  H   H55       1.0  0.10518999999999998  0.5336  0.9837099999999999  1.0000
  H   H56       1.0  0.18078  0.64956  0.06859  1.0000
  H   H57       1.0  0.13774  0.58903  0.07276  1.0000
  H   H58       1.0  0.13541  0.58233  0.94409  1.0000
  H   H59       1.0  0.17926  0.64258  0.94052  1.0000
  H   H60       1.0  0.08476  0.47795  0.9805399999999999  1.0000
  H   H61       1.0  0.39497  0.9665299999999999  0.9836899999999998  1.0000
  H   H62       1.0  0.31916  0.85024  0.06788  1.0000
  H   H63       1.0  0.36245  0.9105299999999997  0.07283  1.0000
  H   H64       1.0  0.3649399999999999  0.9182899999999998  0.94419  1.0000
  H   H65       1.0  0.32115  0.85815  0.93987  1.0000
  H   H66       1.0  0.41505  0.02259  0.9808799999999999  1.0000
  H   H67       1.0  0.10442  0.96602  0.51668  1.0000
  H   H68       1.0  0.18082  0.85058  0.43183  1.0000
  H   H69       1.0  0.13755  0.91086  0.42709  1.0000
  H   H70       1.0  0.13499999999999995  0.9183  0.55573  1.0000
  H   H71       1.0  0.17896999999999993  0.85829  0.5599  1.0000
  H   H72       1.0  0.08499  0.022439999999999995  0.51952  1.0000
  H   H73       1.0  0.6046299999999998  0.48382  0.03396  1.0000
  H   H74       1.0  0.68083  0.5684099999999997  0.14975  1.0000
  H   H75       1.0  0.6373299999999997  0.5732799999999998  0.08964  1.0000
  H   H76       1.0  0.63493  0.44457999999999986  0.08188  1.0000
  H   H77       1.0  0.6788899999999998  0.44037  0.14185  1.0000
  H   H78       1.0  0.5850299999999998  0.48098  0.9774199999999998  1.0000
  H   H79       1.0  0.89464  0.01594  0.03326  1.0000
  H   H80       1.0  0.81946  0.93153  0.14943  1.0000
  H   H81       1.0  0.8629299999999998  0.9269199999999997  0.08931  1.0000
  H   H82       1.0  0.8650799999999997  0.05549999999999999  0.08166  1.0000
  H   H83       1.0  0.8209199999999998  0.05961  0.14161  1.0000
  H   H84       1.0  0.9153499999999998  0.019519999999999992  0.97834  1.0000
  H   H85       1.0  0.6055999999999998  0.0162  0.46643  1.0000
  H   H86       1.0  0.6809999999999998  0.93182  0.35004  1.0000
  H   H87       1.0  0.6377799999999998  0.9271599999999998  0.41032  1.0000
  H   H88       1.0  0.63523  0.05581  0.41769  1.0000
  H   H89       1.0  0.67915  0.05985  0.3576  1.0000
  H   H90       1.0  0.58477  0.019339999999999996  0.522  1.0000
  H   H91       1.0  0.89525  0.48338  0.46575  1.0000
  H   H92       1.0  0.81915  0.56812  0.35006  1.0000
  H   H93       1.0  0.86229  0.57291  0.4105199999999999  1.0000
  H   H94       1.0  0.8647799999999998  0.44424  0.41785  1.0000
  H   H95       1.0  0.82096  0.44011  0.35766  1.0000
  H   H96       1.0  0.9149499999999999  0.4804399999999999  0.52209  1.0000
  H   H97       1.0  0.48338  0.46575  0.89525  1.0000
  H   H98       1.0  0.56812  0.35005  0.81916  1.0000
  H   H99       1.0  0.57291  0.4105199999999999  0.86229  1.0000
  H   H100      1.0  0.44424  0.41785  0.86478  1.0000
  H   H101      1.0  0.44011  0.35765999999999987  0.8209699999999998  1.0000
  H   H102      1.0  0.4804399999999999  0.52208  0.91495  1.0000
  H   H103      1.0  0.016199999999999992  0.46643  0.6056  1.0000
  H   H104      1.0  0.93181  0.35004  0.68101  1.0000
  H   H105      1.0  0.92716  0.41032  0.63778  1.0000
  H   H106      1.0  0.05581  0.41769  0.63523  1.0000
  H   H107      1.0  0.059849999999999993  0.3576  0.67915  1.0000
  H   H108      1.0  0.01933  0.522  0.58477  1.0000
  H   H109      1.0  0.01594  0.03326  0.8946399999999999  1.0000
  H   H110      1.0  0.9315299999999997  0.14943  0.81946  1.0000
  H   H111      1.0  0.92692  0.08930999999999997  0.86294  1.0000
  H   H112      1.0  0.05549  0.08165999999999997  0.86508  1.0000
  H   H113      1.0  0.05960999999999999  0.14160999999999996  0.82092  1.0000
  H   H114      1.0  0.01952  0.9783399999999999  0.91535  1.0000
  H   H115      1.0  0.48382  0.03396  0.60463  1.0000
  H   H116      1.0  0.56841  0.14974  0.68083  1.0000
  H   H117      1.0  0.57328  0.08964  0.63733  1.0000
  H   H118      1.0  0.44457999999999986  0.08188  0.63493  1.0000
  H   H119      1.0  0.44037  0.14185  0.67889  1.0000
  H   H120      1.0  0.48098  0.9774199999999998  0.5850299999999999  1.0000
  H   H121      1.0  0.4664299999999999  0.6055999999999998  0.0162  1.0000
  H   H122      1.0  0.3500299999999999  0.6809999999999998  0.93182  1.0000
  H   H123      1.0  0.41032  0.6377799999999998  0.92716  1.0000
  H   H124      1.0  0.4176899999999999  0.63523  0.05581  1.0000
  H   H125      1.0  0.3576  0.67915  0.05985  1.0000
  H   H126      1.0  0.5219999999999998  0.58477  0.01934  1.0000
  H   H127      1.0  0.4657499999999999  0.8952499999999998  0.48338  1.0000
  H   H128      1.0  0.35005  0.81915  0.56813  1.0000
  H   H129      1.0  0.4105199999999999  0.86229  0.57291  1.0000
  H   H130      1.0  0.4178399999999999  0.86478  0.44424  1.0000
  H   H131      1.0  0.35766  0.82097  0.44011  1.0000
  H   H132      1.0  0.52208  0.91495  0.48044000000000003  1.0000
  H   H133      1.0  0.03396  0.60463  0.4838199999999999  1.0000
  H   H134      1.0  0.14974  0.68083  0.56841  1.0000
  H   H135      1.0  0.08963999999999997  0.63733  0.57328  1.0000
  H   H136      1.0  0.08188  0.63493  0.44458  1.0000
  H   H137      1.0  0.14184999999999995  0.6788899999999998  0.44037  1.0000
  H   H138      1.0  0.97742  0.58503  0.48097999999999996  1.0000
  H   H139      1.0  0.03326  0.89464  0.01594  1.0000
  H   H140      1.0  0.14941999999999994  0.81946  0.93153  1.0000
  H   H141      1.0  0.0893  0.86294  0.92692  1.0000
  H   H142      1.0  0.08165  0.86508  0.055499999999999994  1.0000
  H   H143      1.0  0.14161  0.82092  0.05961  1.0000
  H   H144      1.0  0.97834  0.91535  0.01952  1.0000
  H   H145      1.0  0.39536  0.51617  0.96604  1.0000
  H   H146      1.0  0.31917  0.43159  0.85025  1.0000
  H   H147      1.0  0.36266  0.42671999999999993  0.91036  1.0000
  H   H148      1.0  0.3650599999999999  0.55541  0.9181199999999998  1.0000
  H   H149      1.0  0.3210999999999999  0.55963  0.8581499999999997  1.0000
  H   H150      1.0  0.4149699999999999  0.51902  0.02258  1.0000
  H   H151      1.0  0.10535999999999997  0.9840599999999999  0.9667399999999999  1.0000
  H   H152      1.0  0.18053  0.06847  0.85057  1.0000
  H   H153      1.0  0.13706  0.07307999999999998  0.91069  1.0000
  H   H154      1.0  0.13492  0.9444999999999998  0.91834  1.0000
  H   H155      1.0  0.17908  0.9403899999999998  0.85839  1.0000
  H   H156      1.0  0.08464  0.98048  0.02166  1.0000
  H   H157      1.0  0.39439999999999986  0.9838000000000001  0.53356  1.0000
  H   H158      1.0  0.31899  0.06818  0.64996  1.0000
  H   H159      1.0  0.3622199999999999  0.07283999999999997  0.58968  1.0000
  H   H160      1.0  0.36475999999999986  0.94418  0.58231  1.0000
  H   H161      1.0  0.32083999999999996  0.94015  0.6424  1.0000
  H   H162      1.0  0.41523  0.9806599999999999  0.478  1.0000
  H   H163      1.0  0.10473999999999997  0.5166199999999997  0.53425  1.0000
  H   H164      1.0  0.18084  0.43186999999999987  0.64994  1.0000
  H   H165      1.0  0.13771  0.42708  0.58948  1.0000
  H   H166      1.0  0.13521  0.55576  0.58215  1.0000
  H   H167      1.0  0.17902999999999994  0.55988  0.64234  1.0000
  H   H168      1.0  0.08504  0.51956  0.4779099999999999  1.0000
  H   H169      1.0  0.5166199999999997  0.53425  0.10475  1.0000
  H   H170      1.0  0.43187  0.64994  0.18084  1.0000
  H   H171      1.0  0.4270799999999999  0.5894799999999998  0.13771  1.0000
  H   H172      1.0  0.55576  0.5821499999999997  0.13522  1.0000
  H   H173      1.0  0.55988  0.64234  0.17903  1.0000
  H   H174      1.0  0.51956  0.47791  0.08505  1.0000
  H   H175      1.0  0.9837899999999999  0.53356  0.3944  1.0000
  H   H176      1.0  0.06817999999999998  0.64996  0.31898999999999994  1.0000
  H   H177      1.0  0.07282999999999999  0.58968  0.36222  1.0000
  H   H178      1.0  0.9441799999999998  0.58231  0.36477  1.0000
  H   H179      1.0  0.9401499999999998  0.6424  0.32085  1.0000
  H   H180      1.0  0.98066  0.478  0.41523  1.0000
  H   H181      1.0  0.98406  0.9667399999999999  0.10536  1.0000
  H   H182      1.0  0.06845999999999997  0.8505699999999998  0.18053999999999995  1.0000
  H   H183      1.0  0.07307999999999998  0.9106899999999998  0.13706  1.0000
  H   H184      1.0  0.9444999999999999  0.9183399999999998  0.13492  1.0000
  H   H185      1.0  0.9403899999999997  0.85838  0.17908  1.0000
  H   H186      1.0  0.9804799999999999  0.02166  0.08464999999999999  1.0000
  H   H187      1.0  0.51617  0.96604  0.39537  1.0000
  H   H188      1.0  0.43158999999999986  0.85025  0.31917  1.0000
  H   H189      1.0  0.4267199999999999  0.91036  0.36267  1.0000
  H   H190      1.0  0.55541  0.91812  0.36507  1.0000
  H   H191      1.0  0.55962  0.85815  0.32111  1.0000
  H   H192      1.0  0.51902  0.02258  0.41497  1.0000
  H   H193      1.0  0.53356  0.39439999999999986  0.9837999999999999  1.0000
  H   H194      1.0  0.64996  0.31899  0.06818  1.0000
  H   H195      1.0  0.58968  0.36222  0.07284  1.0000
  H   H196      1.0  0.5823  0.3647599999999999  0.94418  1.0000
  H   H197      1.0  0.64239  0.32085  0.94015  1.0000
  H   H198      1.0  0.47799999999999987  0.41523  0.98066  1.0000
  H   H199      1.0  0.53424  0.10475  0.5166199999999999  1.0000
  H   H200      1.0  0.6499399999999997  0.18084  0.43187  1.0000
  H   H201      1.0  0.5894799999999998  0.13771  0.42709  1.0000
  H   H202      1.0  0.58215  0.13521999999999995  0.55576  1.0000
  H   H203      1.0  0.64234  0.17903  0.55989  1.0000
  H   H204      1.0  0.4779099999999999  0.08505  0.5195599999999999  1.0000
  H   H205      1.0  0.96604  0.3953599999999999  0.51618  1.0000
  H   H206      1.0  0.85025  0.31917  0.43159  1.0000
  H   H207      1.0  0.9103599999999997  0.36266  0.42672  1.0000
  H   H208      1.0  0.91812  0.36506  0.55542  1.0000
  H   H209      1.0  0.8581499999999999  0.32110999999999995  0.55963  1.0000
  H   H210      1.0  0.022579999999999992  0.41497  0.51902  1.0000
  H   H211      1.0  0.96673  0.10536  0.98406  1.0000
  H   H212      1.0  0.85057  0.18053  0.06847  1.0000
  H   H213      1.0  0.9106899999999998  0.13706  0.07308  1.0000
  H   H214      1.0  0.9183399999999998  0.13492  0.9445  1.0000
  H   H215      1.0  0.85838  0.17907999999999993  0.94039  1.0000
  H   H216      1.0  0.021649999999999992  0.08464  0.9804799999999999  1.0000
  H   H217      1.0  0.48391  0.60518  0.46592  1.0000
  H   H218      1.0  0.56839  0.68098  0.34993  1.0000
  H   H219      1.0  0.57329  0.63757  0.41011  1.0000
  H   H220      1.0  0.44463  0.63506  0.41774  1.0000
  H   H221      1.0  0.4404  0.67903  0.35777  1.0000
  H   H222      1.0  0.4807  0.5849099999999998  0.52195  1.0000
  H   H223      1.0  0.01629  0.8948  0.4664  1.0000
  H   H224      1.0  0.9314099999999997  0.81921  0.35044  1.0000
  H   H225      1.0  0.9272299999999999  0.86226  0.4109699999999999  1.0000
  H   H226      1.0  0.05591  0.8645799999999998  0.41767  1.0000
  H   H227      1.0  0.059479999999999984  0.82073  0.35742  1.0000
  H   H228      1.0  0.01945  0.9152299999999998  0.52204  1.0000
  H   H229      1.0  0.01631  0.6050299999999997  0.03347  1.0000
  H   H230      1.0  0.93212  0.6808399999999999  0.14976  1.0000
  H   H231      1.0  0.92716  0.63755  0.08946999999999997  1.0000
  H   H232      1.0  0.05581  0.6350499999999998  0.08171  1.0000
  H   H233      1.0  0.060129999999999996  0.67885  0.14185  1.0000
  H   H234      1.0  0.01912  0.58495  0.9774100000000001  1.0000
  H   H235      1.0  0.48331999999999997  0.89558  0.03398  1.0000
  H   H236      1.0  0.56816  0.81918  0.14942  1.0000
  H   H237      1.0  0.57291  0.8624399999999998  0.08913  1.0000
  H   H238      1.0  0.4442599999999999  0.865  0.0817  1.0000
  H   H239      1.0  0.4400999999999999  0.82102  0.1417  1.0000
  H   H240      1.0  0.48047  0.91501  0.9775599999999999  1.0000
  H   H241      1.0  0.4659199999999999  0.48390999999999995  0.60519  1.0000
  H   H242      1.0  0.34992  0.56839  0.68098  1.0000
  H   H243      1.0  0.4100999999999999  0.5733  0.63757  1.0000
  H   H244      1.0  0.41774  0.44463  0.63506  1.0000
  H   H245      1.0  0.35776  0.4404  0.67903  1.0000
  H   H246      1.0  0.52195  0.48071  0.58491  1.0000
  H   H247      1.0  0.46639999999999987  0.01629  0.8948  1.0000
  H   H248      1.0  0.35043  0.9314099999999997  0.81921  1.0000
  H   H249      1.0  0.41097  0.9272399999999997  0.86226  1.0000
  H   H250      1.0  0.41767  0.05591  0.86459  1.0000
  H   H251      1.0  0.35742  0.05948  0.8207299999999998  1.0000
  H   H252      1.0  0.52204  0.01945  0.91523  1.0000
  H   H253      1.0  0.033469999999999986  0.01631  0.60503  1.0000
  H   H254      1.0  0.14975  0.93212  0.68084  1.0000
  H   H255      1.0  0.08946999999999997  0.92717  0.63755  1.0000
  H   H256      1.0  0.08171  0.05581  0.63505  1.0000
  H   H257      1.0  0.14184  0.060129999999999996  0.67885  1.0000
  H   H258      1.0  0.97741  0.01912  0.58495  1.0000
  H   H259      1.0  0.03397  0.48331999999999997  0.89558  1.0000
  H   H260      1.0  0.14941999999999994  0.5681699999999997  0.81918  1.0000
  H   H261      1.0  0.08913  0.57291  0.8624399999999999  1.0000
  H   H262      1.0  0.08169  0.4442699999999999  0.8649999999999999  1.0000
  H   H263      1.0  0.1417  0.4401  0.82102  1.0000
  H   H264      1.0  0.9775599999999999  0.48048  0.9150099999999999  1.0000
  H   H265      1.0  0.6051799999999998  0.4659199999999999  0.48391  1.0000
  H   H266      1.0  0.68098  0.34993  0.56839  1.0000
  H   H267      1.0  0.6375699999999997  0.41011  0.5733  1.0000
  H   H268      1.0  0.6350599999999997  0.4177399999999999  0.44464  1.0000
  H   H269      1.0  0.67903  0.35777  0.4404  1.0000
  H   H270      1.0  0.5849099999999998  0.5219499999999998  0.48070999999999997  1.0000
  H   H271      1.0  0.8948  0.4664  0.01629  1.0000
  H   H272      1.0  0.81921  0.3504399999999999  0.93141  1.0000
  H   H273      1.0  0.86225  0.41097  0.92724  1.0000
  H   H274      1.0  0.86458  0.4176699999999999  0.05591  1.0000
  H   H275      1.0  0.82073  0.35742  0.05948  1.0000
  H   H276      1.0  0.9152299999999998  0.52204  0.01946  1.0000
  H   H277      1.0  0.6050299999999997  0.03347  0.01631  1.0000
  H   H278      1.0  0.68084  0.14976  0.93212  1.0000
  H   H279      1.0  0.63755  0.08947  0.92717  1.0000
  H   H280      1.0  0.63505  0.08171  0.05581  1.0000
  H   H281      1.0  0.67885  0.14183999999999997  0.060129999999999996  1.0000
  H   H282      1.0  0.58495  0.9774099999999999  0.01912  1.0000
  H   H283      1.0  0.89558  0.03398  0.48332  1.0000
  H   H284      1.0  0.81918  0.14942  0.56817  1.0000
  H   H285      1.0  0.86244  0.08913  0.57291  1.0000
  H   H286      1.0  0.865  0.08169999999999997  0.44427  1.0000
  H   H287      1.0  0.82102  0.1417  0.4401  1.0000
  H   H288      1.0  0.91501  0.97756  0.48047999999999996  1.0000
  C   C1        1.0  0.49758  0.29308  0.68719  1.0000
  C   C2        1.0  0.49578999999999995  0.31786  0.65031  1.0000
  C   C3        1.0  0.45845999999999987  0.32936  0.63505  1.0000
  C   C4        1.0  0.45561  0.3536  0.60146  1.0000
  C   C5        1.0  0.49073999999999995  0.3668799999999999  0.58264  1.0000
  C   C6        1.0  0.52827  0.35452  0.59695  1.0000
  C   C7        1.0  0.5307  0.33022  0.63061  1.0000
  C   C8        1.0  0.46001  0.41919  0.53981  1.0000
  C   C9        1.0  0.46614  0.4441  0.50293  1.0000
  C   C10       1.0  0.49751  0.43918  0.47581  1.0000
  C   C11       1.0  0.002339999999999999  0.20662  0.68728  1.0000
  C   C12       1.0  0.004239999999999998  0.18211  0.65023  1.0000
  C   C13       1.0  0.041509999999999984  0.17065  0.63475  1.0000
  C   C14       1.0  0.04401  0.14658  0.601  1.0000
  C   C15       1.0  0.00877  0.13325999999999996  0.58241  1.0000
  C   C16       1.0  0.97133  0.14567999999999995  0.59688  1.0000
  C   C17       1.0  0.96923  0.16989  0.63064  1.0000
  C   C18       1.0  0.03948  0.08061  0.53995  1.0000
  C   C19       1.0  0.03373  0.055989999999999984  0.50295  1.0000
  C   C20       1.0  0.002479999999999999  0.06081  0.47574  1.0000
  C   C21       1.0  0.00197  0.29331  0.8130499999999998  1.0000
  C   C22       1.0  0.0036799999999999997  0.31799  0.8499899999999999  1.0000
  C   C23       1.0  0.04101  0.32946  0.86529  1.0000
  C   C24       1.0  0.04391  0.3536299999999999  0.89894  1.0000
  C   C25       1.0  0.0088  0.3669  0.9178099999999998  1.0000
  C   C26       1.0  0.9712499999999998  0.35454999999999987  0.9035  1.0000
  C   C27       1.0  0.96879  0.3303299999999999  0.86976  1.0000
  C   C28       1.0  0.0398  0.41904999999999987  0.9606400000000002  1.0000
  C   C29       1.0  0.03382  0.44402  0.9973799999999999  1.0000
  C   C30       1.0  0.00263  0.43917  0.02463  1.0000
  C   C31       1.0  0.49776  0.20665999999999998  0.81338  1.0000
  C   C32       1.0  0.49602999999999997  0.18206  0.85032  1.0000
  C   C33       1.0  0.4587199999999999  0.17058  0.8656199999999997  1.0000
  C   C34       1.0  0.45596  0.14646  0.89927  1.0000
  C   C35       1.0  0.4911499999999999  0.13318  0.91798  1.0000
  C   C36       1.0  0.52866  0.14550999999999994  0.90362  1.0000
  C   C37       1.0  0.53101  0.16976  0.86995  1.0000
  C   C38       1.0  0.46009  0.0813  0.9608100000000002  1.0000
  C   C39       1.0  0.46623  0.05626  0.9974400000000001  1.0000
  C   C40       1.0  0.49763999999999997  0.06095  0.024499999999999994  1.0000
  C   C41       1.0  0.68719  0.4975899999999999  0.29308  1.0000
  C   C42       1.0  0.65031  0.49578999999999995  0.31786  1.0000
  C   C43       1.0  0.63505  0.45846  0.32937  1.0000
  C   C44       1.0  0.6014599999999998  0.45562  0.3536  1.0000
  C   C45       1.0  0.5826399999999999  0.49074  0.36688  1.0000
  C   C46       1.0  0.5969499999999998  0.5282799999999999  0.35452  1.0000
  C   C47       1.0  0.6306099999999999  0.5307  0.33022  1.0000
  C   C48       1.0  0.53981  0.46000999999999986  0.4192  1.0000
  C   C49       1.0  0.50292  0.4661499999999999  0.4441  1.0000
  C   C50       1.0  0.4758  0.49750999999999995  0.43918  1.0000
  C   C51       1.0  0.68728  0.00234  0.20662  1.0000
  C   C52       1.0  0.65023  0.004239999999999998  0.18211  1.0000
  C   C53       1.0  0.63475  0.04151  0.17065  1.0000
  C   C54       1.0  0.6009999999999999  0.04402  0.14658  1.0000
  C   C55       1.0  0.58241  0.00877  0.13326  1.0000
  C   C56       1.0  0.59688  0.9713299999999999  0.14568  1.0000
  C   C57       1.0  0.63063  0.96923  0.16989  1.0000
  C   C58       1.0  0.53995  0.03948  0.08061  1.0000
  C   C59       1.0  0.50295  0.03373  0.05599  1.0000
  C   C60       1.0  0.47574  0.00248  0.06081  1.0000
  C   C61       1.0  0.81305  0.00197  0.2933099999999999  1.0000
  C   C62       1.0  0.8499899999999998  0.00369  0.31799  1.0000
  C   C63       1.0  0.8652899999999998  0.04102  0.32946  1.0000
  C   C64       1.0  0.8989299999999998  0.04391  0.35363  1.0000
  C   C65       1.0  0.91781  0.0088  0.36691  1.0000
  C   C66       1.0  0.9035  0.9712500000000001  0.35455  1.0000
  C   C67       1.0  0.86976  0.96879  0.33033  1.0000
  C   C68       1.0  0.96064  0.0398  0.41905  1.0000
  C   C69       1.0  0.9973799999999999  0.03383  0.44402  1.0000
  C   C70       1.0  0.02463  0.00263  0.43917  1.0000
  C   C71       1.0  0.81338  0.49776  0.20666  1.0000
  C   C72       1.0  0.8503199999999997  0.49602999999999997  0.18206  1.0000
  C   C73       1.0  0.8656199999999998  0.45872  0.17057999999999998  1.0000
  C   C74       1.0  0.89927  0.45596  0.14646  1.0000
  C   C75       1.0  0.91797  0.4911499999999999  0.13318  1.0000
  C   C76       1.0  0.9036199999999998  0.52867  0.14551  1.0000
  C   C77       1.0  0.8699499999999998  0.5310099999999998  0.16976  1.0000
  C   C78       1.0  0.9607999999999999  0.4600899999999999  0.0813  1.0000
  C   C79       1.0  0.9974399999999999  0.46624  0.05626  1.0000
  C   C80       1.0  0.0245  0.49764  0.06095  1.0000
  C   C81       1.0  0.29308  0.6871899999999997  0.49759  1.0000
  C   C82       1.0  0.31786  0.65031  0.49578999999999995  1.0000
  C   C83       1.0  0.32936  0.6350499999999998  0.45846  1.0000
  C   C84       1.0  0.35359  0.6014599999999998  0.4556199999999999  1.0000
  C   C85       1.0  0.36688  0.5826399999999998  0.49073999999999995  1.0000
  C   C86       1.0  0.35451  0.59695  0.52828  1.0000
  C   C87       1.0  0.3302199999999999  0.63061  0.5307  1.0000
  C   C88       1.0  0.41919  0.53981  0.46001  1.0000
  C   C89       1.0  0.4441  0.50293  0.4661499999999999  1.0000
  C   C90       1.0  0.43917  0.47581  0.49751  1.0000
  C   C91       1.0  0.20662  0.68728  0.00234  1.0000
  C   C92       1.0  0.18211  0.65023  0.00424  1.0000
  C   C93       1.0  0.17065  0.6347499999999998  0.041509999999999984  1.0000
  C   C94       1.0  0.14658  0.6009999999999998  0.04402  1.0000
  C   C95       1.0  0.13325  0.58241  0.00877  1.0000
  C   C96       1.0  0.14567  0.59688  0.97133  1.0000
  C   C97       1.0  0.16989  0.63063  0.9692299999999999  1.0000
  C   C98       1.0  0.08061  0.53995  0.03948  1.0000
  C   C99       1.0  0.055989999999999984  0.50295  0.03373  1.0000
  C   C100      1.0  0.06081  0.47574  0.00248  1.0000
  C   C101      1.0  0.29331  0.81305  0.00197  1.0000
  C   C102      1.0  0.31799  0.84999  0.00369  1.0000
  C   C103      1.0  0.32945  0.86529  0.04102  1.0000
  C   C104      1.0  0.3536299999999999  0.8989299999999999  0.04391  1.0000
  C   C105      1.0  0.3669  0.91781  0.0088  1.0000
  C   C106      1.0  0.35454999999999987  0.9034999999999999  0.97125  1.0000
  C   C107      1.0  0.33032  0.86976  0.96879  1.0000
  C   C108      1.0  0.41904999999999987  0.9606399999999999  0.0398  1.0000
  C   C109      1.0  0.44401  0.99738  0.03383  1.0000
  C   C110      1.0  0.43917  0.02463  0.00264  1.0000
  C   C111      1.0  0.20665  0.8133799999999998  0.49776  1.0000
  C   C112      1.0  0.18206  0.85032  0.49602999999999997  1.0000
  C   C113      1.0  0.17058  0.86562  0.45872  1.0000
  C   C114      1.0  0.14645  0.89927  0.45596  1.0000
  C   C115      1.0  0.13318  0.91798  0.49115  1.0000
  C   C116      1.0  0.1455  0.90362  0.52867  1.0000
  C   C117      1.0  0.16975  0.86995  0.53101  1.0000
  C   C118      1.0  0.08129  0.9607999999999999  0.46009  1.0000
  C   C119      1.0  0.05626  0.99744  0.46624  1.0000
  C   C120      1.0  0.06095  0.0245  0.49764  1.0000
  C   C121      1.0  0.70667  0.50259  0.18701  1.0000
  C   C122      1.0  0.6819999999999998  0.50423  0.15003  1.0000
  C   C123      1.0  0.6705099999999998  0.5415299999999997  0.13473  1.0000
  C   C124      1.0  0.64623  0.54436  0.10115999999999997  1.0000
  C   C125      1.0  0.6329399999999998  0.5092099999999998  0.08234999999999998  1.0000
  C   C126      1.0  0.64536  0.4716799999999999  0.09661  1.0000
  C   C127      1.0  0.66967  0.46929  0.13029  1.0000
  C   C128      1.0  0.58087  0.54008  0.03932  1.0000
  C   C129      1.0  0.5559399999999998  0.53389  0.00256  1.0000
  C   C130      1.0  0.56081  0.50262  0.9753599999999999  1.0000
  C   C131      1.0  0.79338  0.99782  0.18657  1.0000
  C   C132      1.0  0.8180199999999997  0.9958399999999998  0.14966  1.0000
  C   C133      1.0  0.82965  0.95849  0.13449  1.0000
  C   C134      1.0  0.85388  0.9557499999999998  0.10091  1.0000
  C   C135      1.0  0.86701  0.99092  0.08212  1.0000
  C   C136      1.0  0.8545799999999999  0.02844  0.09632  1.0000
  C   C137      1.0  0.83028  0.03077  0.12996  1.0000
  C   C138      1.0  0.91987  0.9604600000000001  0.04013  1.0000
  C   C139      1.0  0.9443199999999998  0.96621  0.00303  1.0000
  C   C140      1.0  0.9392699999999998  0.9975699999999998  0.97597  1.0000
  C   C141      1.0  0.70694  0.99789  0.31272  1.0000
  C   C142      1.0  0.68223  0.99608  0.34963  1.0000
  C   C143      1.0  0.67076  0.95877  0.36498  1.0000
  C   C144      1.0  0.6466099999999999  0.95603  0.39865  1.0000
  C   C145      1.0  0.63331  0.9911599999999999  0.41746  1.0000
  C   C146      1.0  0.6456499999999997  0.02868  0.40306  1.0000
  C   C147      1.0  0.6698999999999998  0.031  0.36934  1.0000
  C   C148      1.0  0.5809199999999998  0.9603199999999998  0.4601499999999999  1.0000
  C   C149      1.0  0.55598  0.96612  0.49699000000000004  1.0000
  C   C150      1.0  0.5608  0.9974  0.52418  1.0000
  C   C151      1.0  0.79338  0.50239  0.31276  1.0000
  C   C152      1.0  0.81794  0.50398  0.34976  1.0000
  C   C153      1.0  0.8294  0.54127  0.36513  1.0000
  C   C154      1.0  0.8534699999999997  0.54404  0.39884  1.0000
  C   C155      1.0  0.8667399999999998  0.50884  0.41755  1.0000
  C   C156      1.0  0.85439  0.47133999999999987  0.40314  1.0000
  C   C157      1.0  0.83019  0.4689899999999999  0.36939  1.0000
  C   C158      1.0  0.91887  0.53976  0.46037  1.0000
  C   C159      1.0  0.9438  0.53368  0.49721  1.0000
  C   C160      1.0  0.93902  0.50227  0.52432  1.0000
  C   C161      1.0  0.50239  0.31276  0.79338  1.0000
  C   C162      1.0  0.50398  0.34976  0.81794  1.0000
  C   C163      1.0  0.54126  0.36513  0.8294  1.0000
  C   C164      1.0  0.54404  0.39884  0.8534799999999998  1.0000
  C   C165      1.0  0.50884  0.41754999999999987  0.86674  1.0000
  C   C166      1.0  0.4713299999999999  0.40314  0.85439  1.0000
  C   C167      1.0  0.46898  0.36939  0.83019  1.0000
  C   C168      1.0  0.53976  0.46037  0.91887  1.0000
  C   C169      1.0  0.53367  0.49721  0.9438  1.0000
  C   C170      1.0  0.50227  0.52432  0.93902  1.0000
  C   C171      1.0  0.9978799999999999  0.31272  0.70695  1.0000
  C   C172      1.0  0.99608  0.34963  0.68223  1.0000
  C   C173      1.0  0.9587699999999999  0.36498  0.67076  1.0000
  C   C174      1.0  0.9560299999999998  0.39865  0.64662  1.0000
  C   C175      1.0  0.99116  0.41746  0.6333099999999998  1.0000
  C   C176      1.0  0.02868  0.40306  0.64565  1.0000
  C   C177      1.0  0.031  0.36934  0.6699  1.0000
  C   C178      1.0  0.96032  0.46015  0.58093  1.0000
  C   C179      1.0  0.9661099999999999  0.49699  0.55598  1.0000
  C   C180      1.0  0.9974  0.52418  0.5608  1.0000
  C   C181      1.0  0.9978199999999999  0.18657  0.79339  1.0000
  C   C182      1.0  0.99584  0.14965  0.8180299999999998  1.0000
  C   C183      1.0  0.95849  0.13448999999999994  0.82966  1.0000
  C   C184      1.0  0.95575  0.10091  0.85389  1.0000
  C   C185      1.0  0.99092  0.08211999999999998  0.86701  1.0000
  C   C186      1.0  0.028429999999999993  0.09632  0.85458  1.0000
  C   C187      1.0  0.030769999999999995  0.12995999999999994  0.83028  1.0000
  C   C188      1.0  0.96046  0.040129999999999985  0.91988  1.0000
  C   C189      1.0  0.96621  0.0030299999999999993  0.94432  1.0000
  C   C190      1.0  0.99757  0.9759699999999999  0.93927  1.0000
  C   C191      1.0  0.50259  0.187  0.70667  1.0000
  C   C192      1.0  0.50423  0.15003  0.682  1.0000
  C   C193      1.0  0.54153  0.13473  0.67051  1.0000
  C   C194      1.0  0.54436  0.10116  0.64623  1.0000
  C   C195      1.0  0.50921  0.08235  0.63294  1.0000
  C   C196      1.0  0.4716799999999999  0.09661  0.64536  1.0000
  C   C197      1.0  0.4692899999999999  0.13028  0.66967  1.0000
  C   C198      1.0  0.54008  0.03932  0.58087  1.0000
  C   C199      1.0  0.5338899999999998  0.0025599999999999993  0.55594  1.0000
  C   C200      1.0  0.50262  0.97536  0.56081  1.0000
  C   C201      1.0  0.31271  0.70694  0.9978900000000002  1.0000
  C   C202      1.0  0.34963  0.68223  0.99608  1.0000
  C   C203      1.0  0.36498  0.67076  0.95877  1.0000
  C   C204      1.0  0.3986499999999999  0.64662  0.9560299999999999  1.0000
  C   C205      1.0  0.41745999999999994  0.63331  0.99116  1.0000
  C   C206      1.0  0.40306  0.6456499999999997  0.02868  1.0000
  C   C207      1.0  0.3693399999999999  0.6699  0.031  1.0000
  C   C208      1.0  0.4601399999999999  0.58093  0.96032  1.0000
  C   C209      1.0  0.49699  0.55598  0.9661199999999999  1.0000
  C   C210      1.0  0.52417  0.5608  0.9974  1.0000
  C   C211      1.0  0.31276  0.79338  0.50239  1.0000
  C   C212      1.0  0.34976  0.81794  0.50398  1.0000
  C   C213      1.0  0.36513  0.8294  0.54127  1.0000
  C   C214      1.0  0.39884  0.85347  0.54404  1.0000
  C   C215      1.0  0.41755  0.8667399999999997  0.50884  1.0000
  C   C216      1.0  0.4031399999999999  0.85439  0.47134  1.0000
  C   C217      1.0  0.36939  0.83019  0.46899  1.0000
  C   C218      1.0  0.46037  0.91887  0.53977  1.0000
  C   C219      1.0  0.49720999999999993  0.9438  0.53368  1.0000
  C   C220      1.0  0.52431  0.93902  0.50227  1.0000
  C   C221      1.0  0.18699999999999994  0.70667  0.50259  1.0000
  C   C222      1.0  0.15003  0.6819999999999998  0.50423  1.0000
  C   C223      1.0  0.13473  0.6705099999999999  0.54153  1.0000
  C   C224      1.0  0.10115999999999997  0.64623  0.54436  1.0000
  C   C225      1.0  0.08234999999999998  0.6329399999999997  0.50921  1.0000
  C   C226      1.0  0.09661  0.64536  0.47168  1.0000
  C   C227      1.0  0.13029  0.6696699999999998  0.46929  1.0000
  C   C228      1.0  0.03932  0.58087  0.54008  1.0000
  C   C229      1.0  0.00256  0.55594  0.53389  1.0000
  C   C230      1.0  0.97536  0.56081  0.50262  1.0000
  C   C231      1.0  0.18655999999999998  0.79338  0.99782  1.0000
  C   C232      1.0  0.14965  0.81802  0.9958400000000001  1.0000
  C   C233      1.0  0.13449  0.8296599999999997  0.95849  1.0000
  C   C234      1.0  0.10090999999999997  0.85388  0.95576  1.0000
  C   C235      1.0  0.08211999999999997  0.8670099999999997  0.9909199999999999  1.0000
  C   C236      1.0  0.09631999999999998  0.85458  0.02843  1.0000
  C   C237      1.0  0.12996  0.83028  0.03077  1.0000
  C   C238      1.0  0.040129999999999985  0.91987  0.96046  1.0000
  C   C239      1.0  0.00302  0.94432  0.96621  1.0000
  C   C240      1.0  0.9759599999999999  0.93927  0.99757  1.0000
  C   C241      1.0  0.29333  0.49741  0.81299  1.0000
  C   C242      1.0  0.31799  0.49577  0.84997  1.0000
  C   C243      1.0  0.32948999999999995  0.4584699999999999  0.86527  1.0000
  C   C244      1.0  0.35376  0.45564  0.89884  1.0000
  C   C245      1.0  0.3670599999999999  0.49078  0.91765  1.0000
  C   C246      1.0  0.3546399999999999  0.52832  0.9033899999999999  1.0000
  C   C247      1.0  0.33033  0.5307099999999998  0.86971  1.0000
  C   C248      1.0  0.41913  0.45991  0.9606799999999999  1.0000
  C   C249      1.0  0.44406  0.4661099999999999  0.9974400000000001  1.0000
  C   C250      1.0  0.43919  0.49737999999999993  0.02464  1.0000
  C   C251      1.0  0.20661  0.002179999999999999  0.8134299999999998  1.0000
  C   C252      1.0  0.18197  0.00416  0.85034  1.0000
  C   C253      1.0  0.17034  0.04151  0.86551  1.0000
  C   C254      1.0  0.14611  0.04424  0.89909  1.0000
  C   C255      1.0  0.13297999999999993  0.009079999999999996  0.9178799999999998  1.0000
  C   C256      1.0  0.14541999999999994  0.97156  0.90368  1.0000
  C   C257      1.0  0.16972  0.96923  0.87004  1.0000
  C   C258      1.0  0.08011999999999997  0.039539999999999985  0.95987  1.0000
  C   C259      1.0  0.055679999999999986  0.033789999999999994  0.99697  1.0000
  C   C260      1.0  0.06072999999999999  0.00243  0.02403  1.0000
  C   C261      1.0  0.29305  0.00211  0.68728  1.0000
  C   C262      1.0  0.31776999999999994  0.00392  0.65037  1.0000
  C   C263      1.0  0.32923  0.04123  0.63502  1.0000
  C   C264      1.0  0.35338  0.04396  0.60135  1.0000
  C   C265      1.0  0.36669  0.00883  0.58254  1.0000
  C   C266      1.0  0.35435  0.9713199999999999  0.59693  1.0000
  C   C267      1.0  0.33009  0.969  0.63066  1.0000
  C   C268      1.0  0.41907  0.03968  0.53985  1.0000
  C   C269      1.0  0.4440199999999999  0.03388  0.50301  1.0000
  C   C270      1.0  0.4392  0.0026  0.47582  1.0000
  C   C271      1.0  0.20662  0.49760999999999994  0.68724  1.0000
  C   C272      1.0  0.18206  0.49601999999999996  0.65024  1.0000
  C   C273      1.0  0.17059  0.45873  0.63487  1.0000
  C   C274      1.0  0.14652  0.45596  0.60116  1.0000
  C   C275      1.0  0.13325  0.4911499999999999  0.58245  1.0000
  C   C276      1.0  0.14561  0.52866  0.59686  1.0000
  C   C277      1.0  0.1698  0.5310099999999998  0.63061  1.0000
  C   C278      1.0  0.08112  0.46023  0.53962  1.0000
  C   C279      1.0  0.056199999999999986  0.46632  0.50279  1.0000
  C   C280      1.0  0.06097  0.49773  0.47567999999999994  1.0000
  C   C281      1.0  0.49759999999999993  0.68724  0.20662  1.0000
  C   C282      1.0  0.49601  0.65024  0.18206  1.0000
  C   C283      1.0  0.45872999999999997  0.63487  0.1706  1.0000
  C   C284      1.0  0.45596  0.60116  0.14652  1.0000
  C   C285      1.0  0.4911499999999999  0.5824499999999998  0.13326  1.0000
  C   C286      1.0  0.52866  0.5968599999999997  0.14561  1.0000
  C   C287      1.0  0.53101  0.63061  0.16980999999999996  1.0000
  C   C288      1.0  0.46022999999999986  0.53962  0.08113  1.0000
  C   C289      1.0  0.46632  0.50279  0.0562  1.0000
  C   C290      1.0  0.49773  0.47568  0.06098  1.0000
  C   C291      1.0  0.00211  0.68728  0.29304999999999987  1.0000
  C   C292      1.0  0.00392  0.65037  0.31777  1.0000
  C   C293      1.0  0.04122999999999999  0.63502  0.32924  1.0000
  C   C294      1.0  0.043959999999999985  0.60135  0.35338  1.0000
  C   C295      1.0  0.00883  0.58254  0.36669  1.0000
  C   C296      1.0  0.97132  0.59693  0.35435  1.0000
  C   C297      1.0  0.9689999999999999  0.63066  0.3301  1.0000
  C   C298      1.0  0.039679999999999986  0.53985  0.41907  1.0000
  C   C299      1.0  0.03388  0.50301  0.44402  1.0000
  C   C300      1.0  0.0026  0.4758199999999999  0.4392  1.0000
  C   C301      1.0  0.0021799999999999996  0.81343  0.20661  1.0000
  C   C302      1.0  0.00415  0.85034  0.18197  1.0000
  C   C303      1.0  0.041509999999999984  0.86551  0.17034  1.0000
  C   C304      1.0  0.04424  0.8990899999999997  0.14610999999999993  1.0000
  C   C305      1.0  0.00908  0.9178799999999998  0.13299  1.0000
  C   C306      1.0  0.97156  0.90368  0.14542  1.0000
  C   C307      1.0  0.96923  0.8700399999999998  0.16972  1.0000
  C   C308      1.0  0.03953  0.95987  0.08012  1.0000
  C   C309      1.0  0.033779999999999984  0.99697  0.05568  1.0000
  C   C310      1.0  0.00243  0.02403  0.06073  1.0000
  C   C311      1.0  0.4974  0.81299  0.29333  1.0000
  C   C312      1.0  0.49577  0.84997  0.318  1.0000
  C   C313      1.0  0.45845999999999987  0.86527  0.32949  1.0000
  C   C314      1.0  0.45563  0.8988399999999998  0.35377  1.0000
  C   C315      1.0  0.49077999999999994  0.91765  0.36706  1.0000
  C   C316      1.0  0.5283199999999998  0.9033899999999998  0.35464  1.0000
  C   C317      1.0  0.5307  0.86971  0.33033  1.0000
  C   C318      1.0  0.45990999999999993  0.96068  0.41913  1.0000
  C   C319      1.0  0.4660999999999999  0.99744  0.44406  1.0000
  C   C320      1.0  0.49738  0.02464  0.43919  1.0000
  C   C321      1.0  0.68728  0.29304999999999987  0.00211  1.0000
  C   C322      1.0  0.65037  0.31776999999999994  0.00392  1.0000
  C   C323      1.0  0.63502  0.32924  0.04123  1.0000
  C   C324      1.0  0.60135  0.35338  0.043969999999999995  1.0000
  C   C325      1.0  0.58254  0.36669  0.00884  1.0000
  C   C326      1.0  0.59693  0.35435  0.9713200000000001  1.0000
  C   C327      1.0  0.63066  0.3300999999999999  0.969  1.0000
  C   C328      1.0  0.53985  0.41907  0.03968  1.0000
  C   C329      1.0  0.503  0.44402  0.03388  1.0000
  C   C330      1.0  0.4758199999999999  0.43919999999999987  0.0026  1.0000
  C   C331      1.0  0.68724  0.20662  0.49761  1.0000
  C   C332      1.0  0.6502399999999998  0.18206  0.49602  1.0000
  C   C333      1.0  0.63487  0.17059  0.45873  1.0000
  C   C334      1.0  0.60116  0.14652  0.45596  1.0000
  C   C335      1.0  0.58245  0.13325999999999996  0.49115  1.0000
  C   C336      1.0  0.5968599999999997  0.14561  0.52866  1.0000
  C   C337      1.0  0.6306099999999999  0.16980999999999993  0.53101  1.0000
  C   C338      1.0  0.53962  0.08113  0.46023  1.0000
  C   C339      1.0  0.50279  0.056199999999999986  0.46632  1.0000
  C   C340      1.0  0.47568  0.06097999999999999  0.49773000000000006  1.0000
  C   C341      1.0  0.81299  0.29333  0.49741  1.0000
  C   C342      1.0  0.84997  0.31799999999999995  0.49577  1.0000
  C   C343      1.0  0.86527  0.32949  0.45847  1.0000
  C   C344      1.0  0.8988399999999998  0.35377  0.45564  1.0000
  C   C345      1.0  0.9176499999999997  0.36706  0.49079  1.0000
  C   C346      1.0  0.90338  0.35464  0.52832  1.0000
  C   C347      1.0  0.8697099999999998  0.3303299999999999  0.53071  1.0000
  C   C348      1.0  0.96067  0.41913  0.45992  1.0000
  C   C349      1.0  0.9974399999999999  0.44406  0.46611  1.0000
  C   C350      1.0  0.02463  0.43919  0.49737999999999993  1.0000
  C   C351      1.0  0.81343  0.20661  0.00218  1.0000
  C   C352      1.0  0.85034  0.18197  0.00416  1.0000
  C   C353      1.0  0.8655099999999998  0.17034  0.041509999999999984  1.0000
  C   C354      1.0  0.89909  0.14611  0.04424  1.0000
  C   C355      1.0  0.91788  0.13299  0.009079999999999996  1.0000
  C   C356      1.0  0.9036799999999998  0.14542  0.97156  1.0000
  C   C357      1.0  0.8700399999999998  0.16972  0.9692299999999999  1.0000
  C   C358      1.0  0.9598699999999999  0.08012  0.03954  1.0000
  C   C359      1.0  0.99697  0.05568  0.03379  1.0000
  C   C360      1.0  0.024029999999999992  0.06072999999999999  0.00243  1.0000
  C   C361      1.0  0.50241  0.70692  0.31281  1.0000
  C   C362      1.0  0.50421  0.68214  0.34969  1.0000
  C   C363      1.0  0.5415399999999998  0.67063  0.36495  1.0000
  C   C364      1.0  0.5443799999999999  0.6464  0.39854  1.0000
  C   C365      1.0  0.50926  0.63311  0.41736  1.0000
  C   C366      1.0  0.47172  0.64548  0.4030499999999999  1.0000
  C   C367      1.0  0.4693  0.6697799999999999  0.36939  1.0000
  C   C368      1.0  0.53998  0.5807999999999998  0.46019  1.0000
  C   C369      1.0  0.53385  0.5559  0.49707  1.0000
  C   C370      1.0  0.5024899999999999  0.56082  0.52419  1.0000
  C   C371      1.0  0.9976599999999999  0.79338  0.31272  1.0000
  C   C372      1.0  0.99575  0.81789  0.34977  1.0000
  C   C373      1.0  0.95848  0.82935  0.36525  1.0000
  C   C374      1.0  0.95598  0.85342  0.399  1.0000
  C   C375      1.0  0.99123  0.8667399999999997  0.41759  1.0000
  C   C376      1.0  0.028669999999999994  0.85432  0.40312  1.0000
  C   C377      1.0  0.030769999999999995  0.83011  0.36936  1.0000
  C   C378      1.0  0.96051  0.91939  0.46005  1.0000
  C   C379      1.0  0.96627  0.9440099999999998  0.49704999999999994  1.0000
  C   C380      1.0  0.99752  0.9391899999999997  0.52425  1.0000
  C   C381      1.0  0.99803  0.7066899999999998  0.18695  1.0000
  C   C382      1.0  0.99631  0.68201  0.15000999999999998  1.0000
  C   C383      1.0  0.9589799999999999  0.67054  0.13471  1.0000
  C   C384      1.0  0.9560899999999998  0.64637  0.10106  1.0000
  C   C385      1.0  0.9911999999999997  0.63309  0.08218999999999997  1.0000
  C   C386      1.0  0.02875  0.64545  0.09649999999999999  1.0000
  C   C387      1.0  0.0312  0.6696699999999998  0.13024  1.0000
  C   C388      1.0  0.9602  0.58095  0.03936  1.0000
  C   C389      1.0  0.9661699999999999  0.55598  0.00262  1.0000
  C   C390      1.0  0.9973599999999999  0.56083  0.97537  1.0000
  C   C391      1.0  0.50224  0.7933399999999998  0.18662  1.0000
  C   C392      1.0  0.50396  0.81794  0.14968  1.0000
  C   C393      1.0  0.5412699999999998  0.8294199999999998  0.13438  1.0000
  C   C394      1.0  0.54404  0.8535399999999997  0.10073  1.0000
  C   C395      1.0  0.50884  0.8668199999999998  0.08202  1.0000
  C   C396      1.0  0.4713299999999999  0.8544899999999997  0.09638  1.0000
  C   C397      1.0  0.46898  0.83024  0.13005  1.0000
  C   C398      1.0  0.53991  0.9186999999999999  0.03919  1.0000
  C   C399      1.0  0.53376  0.9437399999999998  0.00256  1.0000
  C   C400      1.0  0.50235  0.93904  0.9754999999999999  1.0000
  C   C401      1.0  0.3128  0.50241  0.70692  1.0000
  C   C402      1.0  0.34969  0.5042099999999998  0.68214  1.0000
  C   C403      1.0  0.3649399999999999  0.54154  0.67063  1.0000
  C   C404      1.0  0.39854  0.54438  0.6464  1.0000
  C   C405      1.0  0.41735  0.50926  0.63312  1.0000
  C   C406      1.0  0.4030499999999999  0.47171999999999986  0.64548  1.0000
  C   C407      1.0  0.36939  0.4692999999999999  0.66978  1.0000
  C   C408      1.0  0.46019  0.5399899999999999  0.5808  1.0000
  C   C409      1.0  0.49706999999999996  0.5338499999999998  0.5559  1.0000
  C   C410      1.0  0.52419  0.50249  0.5608199999999999  1.0000
  C   C411      1.0  0.31271  0.9976599999999999  0.79338  1.0000
  C   C412      1.0  0.34976  0.9957499999999999  0.81789  1.0000
  C   C413      1.0  0.36525  0.95848  0.82935  1.0000
  C   C414      1.0  0.3989999999999999  0.95598  0.85342  1.0000
  C   C415      1.0  0.41758  0.9912299999999999  0.86674  1.0000
  C   C416      1.0  0.40312  0.02867  0.85432  1.0000
  C   C417      1.0  0.36936  0.03077  0.83011  1.0000
  C   C418      1.0  0.4600499999999999  0.96052  0.91939  1.0000
  C   C419      1.0  0.49704999999999994  0.96627  0.94401  1.0000
  C   C420      1.0  0.52425  0.99752  0.93919  1.0000
  C   C421      1.0  0.18695  0.9980299999999999  0.70669  1.0000
  C   C422      1.0  0.15  0.9963099999999999  0.68201  1.0000
  C   C423      1.0  0.13471  0.95898  0.67054  1.0000
  C   C424      1.0  0.10106  0.95609  0.64637  1.0000
  C   C425      1.0  0.08219  0.9911999999999999  0.63309  1.0000
  C   C426      1.0  0.0965  0.02875  0.6454499999999999  1.0000
  C   C427      1.0  0.13023  0.0312  0.66967  1.0000
  C   C428      1.0  0.03935  0.9601999999999999  0.58095  1.0000
  C   C429      1.0  0.002619999999999999  0.9661699999999999  0.55598  1.0000
  C   C430      1.0  0.97537  0.99736  0.56083  1.0000
  C   C431      1.0  0.18662  0.50224  0.7933399999999999  1.0000
  C   C432      1.0  0.14967  0.50396  0.81794  1.0000
  C   C433      1.0  0.13437999999999994  0.54127  0.82942  1.0000
  C   C434      1.0  0.10073  0.54404  0.85354  1.0000
  C   C435      1.0  0.08202  0.50885  0.86682  1.0000
  C   C436      1.0  0.09636999999999997  0.4713299999999999  0.85449  1.0000
  C   C437      1.0  0.13005  0.4689899999999999  0.8302399999999998  1.0000
  C   C438      1.0  0.03919  0.5399099999999999  0.9187  1.0000
  C   C439      1.0  0.002559999999999999  0.53376  0.94374  1.0000
  C   C440      1.0  0.9754899999999999  0.50236  0.93905  1.0000
  C   C441      1.0  0.70691  0.31281  0.50241  1.0000
  C   C442      1.0  0.68214  0.34969  0.50421  1.0000
  C   C443      1.0  0.6706299999999997  0.36494999999999994  0.54154  1.0000
  C   C444      1.0  0.6463999999999998  0.39853999999999995  0.54438  1.0000
  C   C445      1.0  0.63311  0.4173599999999999  0.50926  1.0000
  C   C446      1.0  0.64548  0.40305  0.47172  1.0000
  C   C447      1.0  0.6697799999999998  0.36939  0.4693  1.0000
  C   C448      1.0  0.5807999999999998  0.46019  0.53999  1.0000
  C   C449      1.0  0.5559  0.49706999999999996  0.53385  1.0000
  C   C450      1.0  0.56082  0.52419  0.50249  1.0000
  C   C451      1.0  0.79338  0.3127099999999999  0.99766  1.0000
  C   C452      1.0  0.81789  0.34977  0.9957599999999999  1.0000
  C   C453      1.0  0.82935  0.36525  0.9584799999999999  1.0000
  C   C454      1.0  0.85342  0.399  0.95598  1.0000
  C   C455      1.0  0.8667399999999998  0.4175899999999999  0.9912299999999999  1.0000
  C   C456      1.0  0.85432  0.40311999999999987  0.02867  1.0000
  C   C457      1.0  0.8301  0.36936  0.03077  1.0000
  C   C458      1.0  0.91939  0.4600499999999999  0.96052  1.0000
  C   C459      1.0  0.94401  0.49704999999999994  0.96627  1.0000
  C   C460      1.0  0.9391799999999998  0.5242499999999999  0.99752  1.0000
  C   C461      1.0  0.70669  0.18694999999999995  0.99803  1.0000
  C   C462      1.0  0.68201  0.14999999999999994  0.99631  1.0000
  C   C463      1.0  0.6705399999999998  0.13471  0.9589800000000002  1.0000
  C   C464      1.0  0.64636  0.10106  0.95609  1.0000
  C   C465      1.0  0.6330899999999999  0.08219  0.9912  1.0000
  C   C466      1.0  0.64545  0.0965  0.02875  1.0000
  C   C467      1.0  0.66967  0.13022999999999996  0.031210000000000005  1.0000
  C   C468      1.0  0.5809499999999997  0.03936  0.9602  1.0000
  C   C469      1.0  0.55598  0.002619999999999999  0.9661700000000001  1.0000
  C   C470      1.0  0.56082  0.97537  0.99736  1.0000
  C   C471      1.0  0.7933399999999998  0.18662  0.50224  1.0000
  C   C472      1.0  0.81794  0.14968  0.50397  1.0000
  C   C473      1.0  0.82941  0.13438  0.54128  1.0000
  C   C474      1.0  0.85354  0.10072999999999997  0.54404  1.0000
  C   C475      1.0  0.86682  0.08202  0.50885  1.0000
  C   C476      1.0  0.8544899999999999  0.09638  0.47133  1.0000
  C   C477      1.0  0.8302399999999998  0.13005  0.46899  1.0000
  C   C478      1.0  0.9187  0.03919  0.53991  1.0000
  C   C479      1.0  0.94374  0.0025599999999999993  0.53376  1.0000
  C   C480      1.0  0.93904  0.9754899999999999  0.50236  1.0000
  N   N1        1.0  0.48968  0.3920999999999999  0.54884  1.0000
  N   N2        1.0  0.00995  0.10796  0.54865  1.0000
  N   N3        1.0  0.01002  0.3920599999999999  0.95166  1.0000
  N   N4        1.0  0.49012999999999995  0.10790999999999998  0.9516699999999998  1.0000
  N   N5        1.0  0.5488299999999998  0.48968  0.3921  1.0000
  N   N6        1.0  0.5486499999999997  0.00995  0.10796  1.0000
  N   N7        1.0  0.95166  0.010029999999999997  0.39206  1.0000
  N   N8        1.0  0.9516699999999998  0.49012999999999995  0.10791  1.0000
  N   N9        1.0  0.39209  0.5488299999999998  0.48967999999999995  1.0000
  N   N10       1.0  0.10796  0.54865  0.00995  1.0000
  N   N11       1.0  0.39206  0.9516599999999997  0.01003  1.0000
  N   N12       1.0  0.10789999999999998  0.95167  0.49013  1.0000
  N   N13       1.0  0.6077199999999998  0.51028  0.04855  1.0000
  N   N14       1.0  0.89216  0.98971  0.04834  1.0000
  N   N15       1.0  0.60812  0.98998  0.4513299999999999  1.0000
  N   N16       1.0  0.8919999999999998  0.5099  0.45131  1.0000
  N   N17       1.0  0.5098999999999998  0.45131  0.892  1.0000
  N   N18       1.0  0.98998  0.45132  0.60813  1.0000
  N   N19       1.0  0.98971  0.04833999999999999  0.89216  1.0000
  N   N20       1.0  0.51028  0.04855  0.60772  1.0000
  N   N21       1.0  0.45131999999999994  0.60813  0.9899799999999999  1.0000
  N   N22       1.0  0.4513099999999999  0.8919999999999998  0.5099  1.0000
  N   N23       1.0  0.04855  0.60772  0.51028  1.0000
  N   N24       1.0  0.04833999999999999  0.8921599999999997  0.98971  1.0000
  N   N25       1.0  0.39228  0.4897099999999999  0.95145  1.0000
  N   N26       1.0  0.10783999999999998  0.01029  0.95166  1.0000
  N   N27       1.0  0.39187  0.01002  0.54867  1.0000
  N   N28       1.0  0.108  0.4900999999999999  0.54869  1.0000
  N   N29       1.0  0.4901  0.54869  0.108  1.0000
  N   N30       1.0  0.01002  0.5486699999999998  0.39187  1.0000
  N   N31       1.0  0.01028  0.9516599999999997  0.10784  1.0000
  N   N32       1.0  0.48971  0.9514499999999998  0.39228  1.0000
  N   N33       1.0  0.54867  0.3918699999999999  0.01002  1.0000
  N   N34       1.0  0.54869  0.108  0.4900999999999999  1.0000
  N   N35       1.0  0.9514399999999997  0.39228  0.48972  1.0000
  N   N36       1.0  0.95166  0.10784  0.010289999999999999  1.0000
  N   N37       1.0  0.51031  0.6078999999999999  0.45116  1.0000
  N   N38       1.0  0.99005  0.89204  0.45135  1.0000
  N   N39       1.0  0.98997  0.60793  0.04834  1.0000
  N   N40       1.0  0.50986  0.89209  0.04833  1.0000
  N   N41       1.0  0.45116  0.51031  0.6079  1.0000
  N   N42       1.0  0.45135  0.9900499999999999  0.89204  1.0000
  N   N43       1.0  0.04833999999999999  0.9899699999999999  0.60794  1.0000
  N   N44       1.0  0.04832  0.50987  0.89209  1.0000
  N   N45       1.0  0.6078999999999998  0.45116  0.51032  1.0000
  N   N46       1.0  0.89204  0.45135  0.99005  1.0000
  N   N47       1.0  0.6079299999999997  0.04833999999999999  0.9899700000000001  1.0000
  N   N48       1.0  0.8920899999999998  0.04832999999999999  0.50987  1.0000
  O   O1        1.0  0.46387  0.28301  0.70253  1.0000
  O   O2        1.0  0.5320099999999998  0.28379  0.70104  1.0000
  O   O3        1.0  0.43025  0.42426999999999987  0.56126  1.0000
  O   O4        1.0  0.0361  0.21631999999999996  0.70283  1.0000
  O   O5        1.0  0.96785  0.21604999999999994  0.7009599999999998  1.0000
  O   O6        1.0  0.06893  0.07493  0.56169  1.0000
  O   O7        1.0  0.03579  0.2827999999999999  0.79814  1.0000
  O   O8        1.0  0.96759  0.28459  0.7987  1.0000
  O   O9        1.0  0.06969  0.4241099999999999  0.93933  1.0000
  O   O10       1.0  0.46402  0.21633  0.79783  1.0000
  O   O11       1.0  0.53218  0.21621  0.79975  1.0000
  O   O12       1.0  0.43002  0.07671  0.9396699999999999  1.0000
  O   O13       1.0  0.70253  0.46387  0.28302  1.0000
  O   O14       1.0  0.70104  0.5320099999999998  0.2838  1.0000
  O   O15       1.0  0.56125  0.43024999999999997  0.42427  1.0000
  O   O16       1.0  0.70283  0.0361  0.21632  1.0000
  O   O17       1.0  0.70096  0.96785  0.21606  1.0000
  O   O18       1.0  0.56169  0.06893  0.07493  1.0000
  O   O19       1.0  0.79814  0.03579  0.2828  1.0000
  O   O20       1.0  0.7986899999999998  0.9676  0.28459  1.0000
  O   O21       1.0  0.9393299999999998  0.06969  0.42411  1.0000
  O   O22       1.0  0.79783  0.46402  0.21634  1.0000
  O   O23       1.0  0.7997499999999997  0.53218  0.21621  1.0000
  O   O24       1.0  0.9396699999999998  0.43001999999999996  0.07671  1.0000
  O   O25       1.0  0.28301  0.7025299999999999  0.46387  1.0000
  O   O26       1.0  0.2837899999999999  0.7010399999999998  0.5320099999999999  1.0000
  O   O27       1.0  0.42426999999999987  0.56125  0.43025  1.0000
  O   O28       1.0  0.21632  0.70283  0.0361  1.0000
  O   O29       1.0  0.21604999999999994  0.7009599999999998  0.96785  1.0000
  O   O30       1.0  0.07493  0.56169  0.06893  1.0000
  O   O31       1.0  0.28279  0.79814  0.03579  1.0000
  O   O32       1.0  0.28459  0.7986999999999997  0.9675999999999999  1.0000
  O   O33       1.0  0.42411  0.9393299999999998  0.06969  1.0000
  O   O34       1.0  0.21632999999999994  0.7978299999999998  0.46402  1.0000
  O   O35       1.0  0.2162  0.7997499999999997  0.53218  1.0000
  O   O36       1.0  0.0767  0.93967  0.43002  1.0000
  O   O37       1.0  0.71723  0.53637  0.20192  1.0000
  O   O38       1.0  0.71532  0.46824  0.20139  1.0000
  O   O39       1.0  0.5758699999999998  0.57003  0.06051999999999999  1.0000
  O   O40       1.0  0.78367  0.9641  0.20217  1.0000
  O   O41       1.0  0.78388  0.03233  0.20009  1.0000
  O   O42       1.0  0.92565  0.93137  0.06233  1.0000
  O   O43       1.0  0.71698  0.96414  0.29739  1.0000
  O   O44       1.0  0.71623  0.03235  0.2989  1.0000
  O   O45       1.0  0.5757199999999998  0.9307299999999997  0.43849  1.0000
  O   O46       1.0  0.7836899999999998  0.53617  0.29731  1.0000
  O   O47       1.0  0.78386  0.46802  0.29895  1.0000
  O   O48       1.0  0.9236399999999998  0.56969  0.4390699999999999  1.0000
  O   O49       1.0  0.53617  0.2973099999999999  0.7836899999999999  1.0000
  O   O50       1.0  0.46801  0.29895  0.7838599999999998  1.0000
  O   O51       1.0  0.56968  0.43907  0.92364  1.0000
  O   O52       1.0  0.9641399999999999  0.2973899999999999  0.71699  1.0000
  O   O53       1.0  0.03234  0.2989  0.71623  1.0000
  O   O54       1.0  0.93073  0.43849  0.57572  1.0000
  O   O55       1.0  0.9640899999999999  0.20216999999999993  0.78367  1.0000
  O   O56       1.0  0.03232  0.20009  0.78388  1.0000
  O   O57       1.0  0.93137  0.06231999999999999  0.9256599999999998  1.0000
  O   O58       1.0  0.5363699999999998  0.20191999999999996  0.71723  1.0000
  O   O59       1.0  0.46824  0.20139  0.71532  1.0000
  O   O60       1.0  0.5700299999999998  0.06051999999999999  0.57587  1.0000
  O   O61       1.0  0.29738  0.71698  0.9641399999999999  1.0000
  O   O62       1.0  0.2988999999999999  0.71623  0.03235  1.0000
  O   O63       1.0  0.43849  0.57572  0.93074  1.0000
  O   O64       1.0  0.2973099999999999  0.7836899999999998  0.53617  1.0000
  O   O65       1.0  0.29895  0.78386  0.46802  1.0000
  O   O66       1.0  0.43907  0.9236399999999998  0.56969  1.0000
  O   O67       1.0  0.20191999999999993  0.71723  0.53638  1.0000
  O   O68       1.0  0.20138999999999996  0.7153199999999997  0.46824  1.0000
  O   O69       1.0  0.06052  0.57587  0.57003  1.0000
  O   O70       1.0  0.20215999999999995  0.78367  0.9641  1.0000
  O   O71       1.0  0.20008999999999993  0.7838799999999998  0.03233  1.0000
  O   O72       1.0  0.06231999999999999  0.92566  0.9313699999999999  1.0000
  O   O73       1.0  0.28276  0.46361999999999987  0.79808  1.0000
  O   O74       1.0  0.28467  0.53176  0.79861  1.0000
  O   O75       1.0  0.42412  0.42996  0.93948  1.0000
  O   O76       1.0  0.21632999999999994  0.0359  0.79783  1.0000
  O   O77       1.0  0.21611999999999995  0.96767  0.7999099999999999  1.0000
  O   O78       1.0  0.07434  0.06863  0.93767  1.0000
  O   O79       1.0  0.28301  0.03586  0.70261  1.0000
  O   O80       1.0  0.28377  0.96765  0.7011  1.0000
  O   O81       1.0  0.42426999999999987  0.06925999999999997  0.5615099999999997  1.0000
  O   O82       1.0  0.21631  0.46383  0.7026899999999999  1.0000
  O   O83       1.0  0.21613  0.53198  0.70105  1.0000
  O   O84       1.0  0.07636  0.43031  0.56093  1.0000
  O   O85       1.0  0.4638299999999999  0.7026899999999998  0.21630999999999995  1.0000
  O   O86       1.0  0.5319799999999998  0.70105  0.21614  1.0000
  O   O87       1.0  0.43031  0.56093  0.07636  1.0000
  O   O88       1.0  0.03586  0.7026099999999997  0.28301  1.0000
  O   O89       1.0  0.9676499999999999  0.7010899999999998  0.28377  1.0000
  O   O90       1.0  0.06926  0.5615  0.42428  1.0000
  O   O91       1.0  0.0359  0.7978299999999998  0.21633  1.0000
  O   O92       1.0  0.9676699999999999  0.79991  0.21611999999999995  1.0000
  O   O93       1.0  0.06862999999999997  0.93767  0.07434  1.0000
  O   O94       1.0  0.46361999999999987  0.7980799999999999  0.28277  1.0000
  O   O95       1.0  0.53176  0.79861  0.28468  1.0000
  O   O96       1.0  0.42996  0.93948  0.42412999999999995  1.0000
  O   O97       1.0  0.70261  0.28301  0.03586  1.0000
  O   O98       1.0  0.7010899999999998  0.28377  0.96765  1.0000
  O   O99       1.0  0.5614999999999998  0.42428  0.06926  1.0000
  O   O100      1.0  0.7026899999999998  0.21631  0.46383  1.0000
  O   O101      1.0  0.70105  0.21612999999999993  0.53198  1.0000
  O   O102      1.0  0.5609299999999998  0.07636  0.43031  1.0000
  O   O103      1.0  0.79807  0.28277  0.46362  1.0000
  O   O104      1.0  0.7985999999999998  0.2846799999999999  0.53176  1.0000
  O   O105      1.0  0.9394799999999999  0.42413  0.42997  1.0000
  O   O106      1.0  0.79783  0.21633  0.0359  1.0000
  O   O107      1.0  0.7998999999999998  0.21612  0.96767  1.0000
  O   O108      1.0  0.9376699999999998  0.07434  0.06863  1.0000
  O   O109      1.0  0.53612  0.71698  0.29747  1.0000
  O   O110      1.0  0.4679899999999999  0.7162099999999998  0.29896  1.0000
  O   O111      1.0  0.56975  0.57573  0.43874  1.0000
  O   O112      1.0  0.9638999999999999  0.78368  0.29717  1.0000
  O   O113      1.0  0.03215  0.78394  0.29904  1.0000
  O   O114      1.0  0.93107  0.92507  0.4383099999999999  1.0000
  O   O115      1.0  0.96421  0.7172  0.20186  1.0000
  O   O116      1.0  0.032399999999999984  0.7153999999999998  0.20129999999999995  1.0000
  O   O117      1.0  0.93031  0.57589  0.060669999999999995  1.0000
  O   O118      1.0  0.53597  0.7836599999999998  0.20217  1.0000
  O   O119      1.0  0.4678199999999999  0.78379  0.20025  1.0000
  O   O120      1.0  0.5699699999999998  0.9232899999999998  0.060329999999999995  1.0000
  O   O121      1.0  0.29747  0.5361199999999998  0.71698  1.0000
  O   O122      1.0  0.29895  0.4679899999999999  0.7162  1.0000
  O   O123      1.0  0.4387399999999999  0.56975  0.57573  1.0000
  O   O124      1.0  0.29717  0.9638999999999999  0.78368  1.0000
  O   O125      1.0  0.29904  0.03215  0.78394  1.0000
  O   O126      1.0  0.43831  0.93107  0.92507  1.0000
  O   O127      1.0  0.20184999999999995  0.96421  0.7172  1.0000
  O   O128      1.0  0.2013  0.0324  0.7154  1.0000
  O   O129      1.0  0.06067  0.93031  0.57589  1.0000
  O   O130      1.0  0.20217  0.53598  0.78366  1.0000
  O   O131      1.0  0.20023999999999995  0.46782  0.7837899999999998  1.0000
  O   O132      1.0  0.06033  0.5699799999999998  0.92329  1.0000
  O   O133      1.0  0.71698  0.29747  0.53613  1.0000
  O   O134      1.0  0.7162  0.2989599999999999  0.46799  1.0000
  O   O135      1.0  0.57573  0.4387399999999999  0.56975  1.0000
  O   O136      1.0  0.78368  0.29717  0.9639  1.0000
  O   O137      1.0  0.78394  0.29903999999999986  0.03215  1.0000
  O   O138      1.0  0.9250599999999998  0.43831  0.93107  1.0000
  O   O139      1.0  0.7172  0.20186  0.96421  1.0000
  O   O140      1.0  0.7154  0.2013  0.0324  1.0000
  O   O141      1.0  0.57589  0.060669999999999995  0.93031  1.0000
  O   O142      1.0  0.7836599999999998  0.20216999999999993  0.53598  1.0000
  O   O143      1.0  0.78379  0.20024  0.46782  1.0000
  O   O144      1.0  0.92329  0.060329999999999995  0.56998  1.0000
