data_image0
_chemical_formula_structural       Cd36H432C576N120O168
_chemical_formula_sum              "Cd36 H432 C576 N120 O168"
_cell_length_a       29.81793
_cell_length_b       29.8177
_cell_length_c       29.81793
_cell_angle_alpha    90.0
_cell_angle_beta     90.0
_cell_angle_gamma    90.0

_space_group_name_H-M_alt    "P 1"
_space_group_IT_number       1

loop_
  _space_group_symop_operation_xyz
  'x, y, z'

loop_
  _atom_site_type_symbol
  _atom_site_label
  _atom_site_symmetry_multiplicity
  _atom_site_fract_x
  _atom_site_fract_y
  _atom_site_fract_z
  _atom_site_occupancy
  Cd  Cd1       1.0  0.97012  0.24207000000000006  0.7566399999999998  1.0000
  Cd  Cd2       1.0  0.77996  0.9938600000000002  0.50811  1.0000
  Cd  Cd3       1.0  0.22003  0.49386000000000013  0.99189  1.0000
  Cd  Cd4       1.0  0.52988  0.75793  0.25665  1.0000
  Cd  Cd5       1.0  0.99189  0.22003000000000006  0.49385  1.0000
  Cd  Cd6       1.0  0.74335  0.029890000000000007  0.7420699999999998  1.0000
  Cd  Cd7       1.0  0.24334999999999996  0.4701200000000001  0.25793  1.0000
  Cd  Cd8       1.0  0.5592599999999998  0.375  0.19075  1.0000
  Cd  Cd9       1.0  0.4701099999999999  0.25793  0.24334999999999996  1.0000
  Cd  Cd10      1.0  0.99385  0.5081100000000002  0.77996  1.0000
  Cd  Cd11      1.0  0.72003  0.006150000000000001  0.00811  1.0000
  Cd  Cd12      1.0  0.625  0.69075  0.94073  1.0000
  Cd  Cd13      1.0  0.24206999999999995  0.7566500000000003  0.9701099999999998  1.0000
  Cd  Cd14      1.0  0.5061499999999999  0.49189  0.27997  1.0000
  Cd  Cd15      1.0  0.00811  0.7200300000000002  0.006149999999999998  1.0000
  Cd  Cd16      1.0  0.8092499999999998  0.05926  0.12499999999999997  1.0000
  Cd  Cd17      1.0  0.69074  0.9407400000000002  0.625  1.0000
  Cd  Cd18      1.0  0.029889999999999993  0.7420800000000001  0.74335  1.0000
  Cd  Cd19      1.0  0.12499999999999997  0.8092500000000002  0.059259999999999986  1.0000
  Cd  Cd20      1.0  0.4918899999999999  0.27997  0.5061499999999999  1.0000
  Cd  Cd21      1.0  0.006149999999999998  0.008110000000000003  0.72003  1.0000
  Cd  Cd22      1.0  0.7420699999999998  0.74335  0.029879999999999993  1.0000
  Cd  Cd23      1.0  0.75792  0.25665  0.52989  1.0000
  Cd  Cd24      1.0  0.5080999999999999  0.7799700000000002  0.99385  1.0000
  Cd  Cd25      1.0  0.27997  0.50615  0.4918899999999999  1.0000
  Cd  Cd26      1.0  0.87499  0.30925  0.44074  1.0000
  Cd  Cd27      1.0  0.19073999999999994  0.5592700000000003  0.3749999999999999  1.0000
  Cd  Cd28      1.0  0.25792  0.24336000000000005  0.4701099999999999  1.0000
  Cd  Cd29      1.0  0.7566399999999998  0.9701200000000002  0.24206999999999995  1.0000
  Cd  Cd30      1.0  0.4407299999999999  0.8750000000000002  0.30924999999999997  1.0000
  Cd  Cd31      1.0  0.059259999999999986  0.12501  0.8092499999999998  1.0000
  Cd  Cd32      1.0  0.94073  0.6250100000000002  0.6907499999999998  1.0000
  Cd  Cd33      1.0  0.3749999999999999  0.19075000000000006  0.5592599999999998  1.0000
  Cd  Cd34      1.0  0.49385  0.9919000000000002  0.22003  1.0000
  Cd  Cd35      1.0  0.30924999999999997  0.44074000000000013  0.87499  1.0000
  Cd  Cd36      1.0  0.25665  0.5298900000000002  0.7579299999999998  1.0000
  H   H1        1.0  0.9394899999999998  0.05333000000000001  0.19304  1.0000
  H   H2        1.0  0.7282099999999998  0.11164000000000003  0.3466799999999999  1.0000
  H   H3        1.0  0.35588  0.7891100000000002  0.3092  1.0000
  H   H4        1.0  0.30696  0.060510000000000015  0.5533199999999999  1.0000
  H   H5        1.0  0.07088  0.64393  0.16037  1.0000
  H   H6        1.0  0.50506  0.75464  0.46567999999999987  1.0000
  H   H7        1.0  0.8069599999999998  0.4395  0.44667  1.0000
  H   H8        1.0  0.9985199999999997  0.33385000000000004  0.64042  1.0000
  H   H9        1.0  0.9926  0.67973  0.5963599999999998  1.0000
  H   H10       1.0  0.8883599999999998  0.84669  0.77178  1.0000
  H   H11       1.0  0.60604  0.94084  0.53913  1.0000
  H   H12       1.0  0.79382  0.17591  0.27395  1.0000
  H   H13       1.0  0.10603999999999997  0.55917  0.4608599999999999  1.0000
  H   H14       1.0  0.7458699999999998  0.40966000000000014  0.52393  1.0000
  H   H15       1.0  0.9114099999999998  0.7044500000000002  0.6317899999999997  1.0000
  H   H16       1.0  0.6661499999999998  0.14042000000000002  0.50147  1.0000
  H   H17       1.0  0.6002599999999998  0.9536900000000003  0.26413999999999993  1.0000
  H   H18       1.0  0.4291099999999999  0.35608  0.66037  1.0000
  H   H19       1.0  0.56853  0.61049  0.19878999999999994  1.0000
  H   H20       1.0  0.78938  0.89946  0.6187599999999999  1.0000
  H   H21       1.0  0.51419  0.2963200000000001  0.3503199999999999  1.0000
  H   H22       1.0  0.72546  0.8360300000000003  0.43192999999999987  1.0000
  H   H23       1.0  0.3092  0.35589  0.7890999999999998  1.0000
  H   H24       1.0  0.8208599999999998  0.4100400000000001  0.60654  1.0000
  H   H25       1.0  0.72609  0.15982000000000005  0.99594  1.0000
  H   H26       1.0  0.85904  0.13746  0.7767  1.0000
  H   H27       1.0  0.52449  0.18185  0.08566999999999998  1.0000
  H   H28       1.0  0.45368  0.23587000000000005  0.3997399999999999  1.0000
  H   H29       1.0  0.026749999999999993  0.11210000000000003  0.6102  1.0000
  H   H30       1.0  0.6311399999999998  0.64952  0.0396  1.0000
  H   H31       1.0  0.18184999999999996  0.08567  0.52449  1.0000
  H   H32       1.0  0.35958  0.49853  0.16614999999999996  1.0000
  H   H33       1.0  0.7426499999999998  0.8463000000000003  0.57036  1.0000
  H   H34       1.0  0.77178  0.88837  0.8466799999999998  1.0000
  H   H35       1.0  0.69879  0.93147  0.38951  1.0000
  H   H36       1.0  0.14042  0.50148  0.6661499999999998  1.0000
  H   H37       1.0  0.7074099999999999  0.4551000000000001  0.4401799999999999  1.0000
  H   H38       1.0  0.33603  0.06807000000000003  0.27454  1.0000
  H   H39       1.0  0.5512599999999998  0.13915000000000005  0.18092999999999998  1.0000
  H   H40       1.0  0.10026  0.5463200000000002  0.73586  1.0000
  H   H41       1.0  0.54631  0.73587  0.10026  1.0000
  H   H42       1.0  0.24872  0.6095700000000002  0.08373999999999998  1.0000
  H   H43       1.0  0.20480999999999994  0.9572500000000003  0.80991  1.0000
  H   H44       1.0  0.5963599999999998  0.9926100000000002  0.6797199999999998  1.0000
  H   H45       1.0  0.4036399999999999  0.49261  0.8202699999999998  1.0000
  H   H46       1.0  0.97618  0.9259800000000002  0.0439  1.0000
  H   H47       1.0  0.09033999999999999  0.47607  0.24586999999999998  1.0000
  H   H48       1.0  0.6719799999999999  0.16263  0.17613  1.0000
  H   H49       1.0  0.70481  0.54276  0.19007999999999994  1.0000
  H   H50       1.0  0.9314599999999997  0.38951  0.69879  1.0000
  H   H51       1.0  0.90965  0.9760700000000002  0.25412  1.0000
  H   H52       1.0  0.49852  0.16615  0.35958  1.0000
  H   H53       1.0  0.024489999999999998  0.3181600000000001  0.91433  1.0000
  H   H54       1.0  0.6120899999999998  0.8898100000000001  0.9732399999999998  1.0000
  H   H55       1.0  0.3190699999999999  0.44874000000000014  0.6391399999999998  1.0000
  H   H56       1.0  0.8092  0.14411000000000004  0.2109  1.0000
  H   H57       1.0  0.8812299999999997  0.21062000000000006  0.3994499999999999  1.0000
  H   H58       1.0  0.00406  0.22609000000000007  0.34018  1.0000
  H   H59       1.0  0.58374  0.25128000000000006  0.39043  1.0000
  H   H60       1.0  0.67294  0.00194  0.46611999999999987  1.0000
  H   H61       1.0  0.85031  0.9858100000000002  0.7036799999999998  1.0000
  H   H62       1.0  0.38835999999999987  0.6533200000000001  0.22821  1.0000
  H   H63       1.0  0.83602  0.4319300000000001  0.72546  1.0000
  H   H64       1.0  0.86256  0.2767  0.6409699999999999  1.0000
  H   H65       1.0  0.22328999999999993  0.3590500000000001  0.36253999999999986  1.0000
  H   H66       1.0  0.3466799999999999  0.72822  0.11164  1.0000
  H   H67       1.0  0.70617  0.82409  0.7739499999999998  1.0000
  H   H68       1.0  0.09671  0.3616  0.52182  1.0000
  H   H69       1.0  0.69008  0.7951900000000002  0.45724  1.0000
  H   H70       1.0  0.79518  0.45725  0.69008  1.0000
  H   H71       1.0  0.5967  0.13840000000000005  0.47818  1.0000
  H   H72       1.0  0.64096  0.86256  0.2767  1.0000
  H   H73       1.0  0.7925899999999998  0.54491  0.94018  1.0000
  H   H74       1.0  0.3384099999999999  0.38209  0.95423  1.0000
  H   H75       1.0  0.4394899999999999  0.44668000000000013  0.8069599999999998  1.0000
  H   H76       1.0  0.49594  0.77391  0.84018  1.0000
  H   H77       1.0  0.27454  0.3360300000000001  0.06806999999999998  1.0000
  H   H78       1.0  0.14950999999999995  0.4604100000000001  0.36885  1.0000
  H   H79       1.0  0.61791  0.4542400000000001  0.16158  1.0000
  H   H80       1.0  0.4608599999999999  0.10605000000000003  0.5591599999999998  1.0000
  H   H81       1.0  0.95423  0.3384200000000001  0.38208  1.0000
  H   H82       1.0  0.52675  0.3879100000000001  0.38979999999999987  1.0000
  H   H83       1.0  0.60956  0.08375  0.24873  1.0000
  H   H84       1.0  0.8270499999999997  0.9980700000000002  0.9661199999999998  1.0000
  H   H85       1.0  0.67613  0.8280200000000002  0.83737  1.0000
  H   H86       1.0  0.8033799999999998  0.18938  0.05702  1.0000
  H   H87       1.0  0.38123  0.2893900000000001  0.60054  1.0000
  H   H88       1.0  0.95368  0.26414  0.6002599999999998  1.0000
  H   H89       1.0  0.52393  0.7458800000000002  0.40964999999999996  1.0000
  H   H90       1.0  0.81907  0.05127  0.3608499999999999  1.0000
  H   H91       1.0  0.4604  0.3688500000000001  0.14952  1.0000
  H   H92       1.0  0.39973  0.45368000000000014  0.23586  1.0000
  H   H93       1.0  0.58996  0.10654  0.67913  1.0000
  H   H94       1.0  0.50406  0.27391  0.65981  1.0000
  H   H95       1.0  0.039129999999999984  0.8939600000000001  0.05916  1.0000
  H   H96       1.0  0.74811  0.0772  0.2837399999999999  1.0000
  H   H97       1.0  0.18938  0.05702  0.8033799999999998  1.0000
  H   H98       1.0  0.66037  0.42912  0.35607  1.0000
  H   H99       1.0  0.10653999999999997  0.6791400000000002  0.58996  1.0000
  H   H100      1.0  0.39395  0.4408400000000001  0.9608599999999998  1.0000
  H   H101      1.0  0.58567  0.9755100000000002  0.8181499999999998  1.0000
  H   H102      1.0  0.7739499999999998  0.7061800000000003  0.82409  1.0000
  H   H103      1.0  0.85588  0.7109000000000002  0.6908  1.0000
  H   H104      1.0  0.29555  0.13180000000000006  0.5885899999999997  1.0000
  H   H105      1.0  0.7955499999999998  0.3682100000000001  0.4114099999999999  1.0000
  H   H106      1.0  0.8895099999999999  0.80121  0.06853  1.0000
  H   H107      1.0  0.20617  0.67591  0.22605  1.0000
  H   H108      1.0  0.74872  0.8904400000000002  0.9162499999999998  1.0000
  H   H109      1.0  0.9259799999999998  0.04391000000000001  0.97618  1.0000
  H   H110      1.0  0.7036799999999998  0.8503200000000001  0.9857999999999999  1.0000
  H   H111      1.0  0.21576999999999993  0.00459  0.74518  1.0000
  H   H112      1.0  0.13115  0.8504900000000002  0.9603999999999998  1.0000
  H   H113      1.0  0.41003  0.60655  0.8208599999999998  1.0000
  H   H114      1.0  0.06806999999999998  0.2745400000000001  0.33603  1.0000
  H   H115      1.0  0.05332999999999999  0.19304000000000002  0.9394899999999998  1.0000
  H   H116      1.0  0.75481  0.78423  0.50459  1.0000
  H   H117      1.0  0.4259799999999999  0.4561  0.02382  1.0000
  H   H118      1.0  0.27179  0.61164  0.15331999999999996  1.0000
  H   H119      1.0  0.8615999999999998  0.97819  0.9032899999999998  1.0000
  H   H120      1.0  0.15331999999999996  0.27179  0.6116399999999997  1.0000
  H   H121      1.0  0.3270499999999999  0.50194  0.03387  1.0000
  H   H122      1.0  0.1384  0.4781800000000001  0.5967  1.0000
  H   H123      1.0  0.76413  0.8997400000000002  0.04632  1.0000
  H   H124      1.0  0.9550899999999998  0.059820000000000005  0.29259  1.0000
  H   H125      1.0  0.9036299999999999  0.007400000000000002  0.17972  1.0000
  H   H126      1.0  0.0014699999999999995  0.8338500000000002  0.85958  1.0000
  H   H127      1.0  0.3608499999999999  0.8190700000000002  0.05127  1.0000
  H   H128      1.0  0.17972  0.9036400000000002  0.00739  1.0000
  H   H129      1.0  0.15981  0.99595  0.72609  1.0000
  H   H130      1.0  0.57088  0.8560800000000002  0.8396199999999998  1.0000
  H   H131      1.0  0.19304  0.9395000000000002  0.05332999999999999  1.0000
  H   H132      1.0  0.35607  0.66038  0.4291099999999999  1.0000
  H   H133      1.0  0.2837399999999999  0.74811  0.07719999999999998  1.0000
  H   H134      1.0  0.32409  0.72605  0.29382  1.0000
  H   H135      1.0  0.67591  0.22605000000000006  0.20617  1.0000
  H   H136      1.0  0.64392  0.16038  0.07088  1.0000
  H   H137      1.0  0.49541  0.25482  0.7157699999999998  1.0000
  H   H138      1.0  0.20741  0.0449  0.55982  1.0000
  H   H139      1.0  0.6966099999999998  0.81062  0.55701  1.0000
  H   H140      1.0  0.38790999999999987  0.3898000000000001  0.52675  1.0000
  H   H141      1.0  0.33384999999999987  0.6404200000000002  0.9985199999999997  1.0000
  H   H142      1.0  0.8897999999999999  0.9732500000000002  0.6120899999999998  1.0000
  H   H143      1.0  0.5439  0.52382  0.07402  1.0000
  H   H144      1.0  0.91433  0.02449000000000001  0.3181499999999999  1.0000
  H   H145      1.0  0.7739  0.8401900000000002  0.49594  1.0000
  H   H146      1.0  0.66397  0.56807  0.22545999999999994  1.0000
  H   H147      1.0  0.14393  0.3396300000000001  0.9291099999999998  1.0000
  H   H148      1.0  0.32801  0.66263  0.32386999999999994  1.0000
  H   H149      1.0  0.17198  0.3373700000000001  0.82387  1.0000
  H   H150      1.0  0.2842199999999999  0.99541  0.24517999999999995  1.0000
  H   H151      1.0  0.38208  0.95424  0.3384099999999999  1.0000
  H   H152      1.0  0.6537  0.4296400000000001  0.24266  1.0000
  H   H153      1.0  0.4550899999999999  0.44019000000000014  0.7074099999999999  1.0000
  H   H154      1.0  0.16614999999999996  0.3595800000000001  0.49852  1.0000
  H   H155      1.0  0.53913  0.60605  0.9408299999999999  1.0000
  H   H156      1.0  0.08859  0.20445  0.8682  1.0000
  H   H157      1.0  0.9560899999999998  0.4761900000000001  0.5740199999999998  1.0000
  H   H158      1.0  0.50194  0.03388000000000001  0.32706  1.0000
  H   H159      1.0  0.3681999999999999  0.4114200000000001  0.7955499999999998  1.0000
  H   H160      1.0  0.8181499999999998  0.58567  0.9754999999999998  1.0000
  H   H161      1.0  0.50147  0.6661500000000002  0.14042  1.0000
  H   H162      1.0  0.93192  0.77454  0.16397  1.0000
  H   H163      1.0  0.24536  0.9656900000000003  0.9949399999999998  1.0000
  H   H164      1.0  0.22605  0.20618000000000003  0.67591  1.0000
  H   H165      1.0  0.39346  0.3208700000000001  0.08996  1.0000
  H   H166      1.0  0.6317899999999997  0.91142  0.70444  1.0000
  H   H167      1.0  0.47618  0.57403  0.9560899999999998  1.0000
  H   H168      1.0  0.17613  0.6719900000000002  0.16262999999999994  1.0000
  H   H169      1.0  0.25412  0.9096600000000001  0.97606  1.0000
  H   H170      1.0  0.26413  0.6002700000000002  0.95368  1.0000
  H   H171      1.0  0.25464  0.03431  0.49493  1.0000
  H   H172      1.0  0.24266  0.65371  0.4296399999999999  1.0000
  H   H173      1.0  0.9732399999999998  0.6121  0.8897999999999999  1.0000
  H   H174      1.0  0.83841  0.11792000000000002  0.04576  1.0000
  H   H175      1.0  0.13744  0.77671  0.8590299999999997  1.0000
  H   H176      1.0  0.92613  0.41275000000000006  0.5780199999999998  1.0000
  H   H177      1.0  0.8466799999999998  0.7717900000000001  0.8883599999999998  1.0000
  H   H178      1.0  0.13179  0.58859  0.29555  1.0000
  H   H179      1.0  0.8682  0.08859000000000003  0.20444999999999994  1.0000
  H   H180      1.0  0.7890999999999998  0.3092000000000001  0.35589  1.0000
  H   H181      1.0  0.4261299999999999  0.08725000000000002  0.42197999999999997  1.0000
  H   H182      1.0  0.9754999999999998  0.8181600000000002  0.58567  1.0000
  H   H183      1.0  0.00739  0.17973000000000006  0.9036299999999999  1.0000
  H   H184      1.0  0.38951  0.6988  0.9314599999999997  1.0000
  H   H185      1.0  0.61049  0.19879  0.5685399999999998  1.0000
  H   H186      1.0  0.85607  0.83963  0.57088  1.0000
  H   H187      1.0  0.8462899999999998  0.5703600000000002  0.7426499999999998  1.0000
  H   H188      1.0  0.4980599999999999  0.53388  0.17294  1.0000
  H   H189      1.0  0.24586999999999998  0.09034  0.47605999999999987  1.0000
  H   H190      1.0  0.3616  0.52182  0.09671  1.0000
  H   H191      1.0  0.82387  0.17198000000000002  0.33737  1.0000
  H   H192      1.0  0.24811  0.4228000000000001  0.71626  1.0000
  H   H193      1.0  0.0050599999999999985  0.74536  0.5343099999999998  1.0000
  H   H194      1.0  0.11876999999999997  0.7106200000000003  0.10053999999999998  1.0000
  H   H195      1.0  0.45724  0.69009  0.79518  1.0000
  H   H196      1.0  0.68938  0.44299  0.19662  1.0000
  H   H197      1.0  0.40328999999999987  0.6384  0.02182  1.0000
  H   H198      1.0  0.34018  0.004060000000000002  0.22609  1.0000
  H   H199      1.0  0.19007999999999994  0.7048200000000002  0.5427499999999997  1.0000
  H   H200      1.0  0.70444  0.6318000000000003  0.9114099999999998  1.0000
  H   H201      1.0  0.50739  0.32028  0.09636  1.0000
  H   H202      1.0  0.60654  0.8208700000000002  0.4100399999999999  1.0000
  H   H203      1.0  0.6102  0.026750000000000006  0.11209  1.0000
  H   H204      1.0  0.9954099999999998  0.24519000000000005  0.28423  1.0000
  H   H205      1.0  0.25188999999999995  0.57721  0.21626  1.0000
  H   H206      1.0  0.5427499999999997  0.19009  0.70481  1.0000
  H   H207      1.0  0.49259999999999987  0.8202800000000001  0.4036399999999999  1.0000
  H   H208      1.0  0.64951  0.03960000000000002  0.63115  1.0000
  H   H209      1.0  0.11049  0.30122  0.43145  1.0000
  H   H210      1.0  0.25481  0.7157800000000001  0.49541  1.0000
  H   H211      1.0  0.41625  0.75128  0.10956  1.0000
  H   H212      1.0  0.25126999999999994  0.3904400000000001  0.58374  1.0000
  H   H213      1.0  0.53387  0.17295000000000005  0.4980599999999999  1.0000
  H   H214      1.0  0.80991  0.20482  0.9572399999999999  1.0000
  H   H215      1.0  0.32027  0.09637  0.50739  1.0000
  H   H216      1.0  0.08375  0.24873  0.60956  1.0000
  H   H217      1.0  0.44667  0.80696  0.4394899999999999  1.0000
  H   H218      1.0  0.91275  0.92198  0.07387  1.0000
  H   H219      1.0  0.03431  0.4949400000000001  0.25464  1.0000
  H   H220      1.0  0.33737  0.8238700000000002  0.17198  1.0000
  H   H221      1.0  0.15371  0.07036000000000003  0.75734  1.0000
  H   H222      1.0  0.38979999999999987  0.52676  0.38790999999999987  1.0000
  H   H223      1.0  0.014199999999999997  0.20368  0.6496799999999998  1.0000
  H   H224      1.0  0.22545999999999994  0.6639700000000002  0.56807  1.0000
  H   H225      1.0  0.20443999999999996  0.8682100000000003  0.08859  1.0000
  H   H226      1.0  0.6908  0.8558900000000003  0.7108899999999999  1.0000
  H   H227      1.0  0.21089  0.8092000000000003  0.14410999999999993  1.0000
  H   H228      1.0  0.09636  0.5073900000000002  0.32027  1.0000
  H   H229      1.0  0.6797199999999998  0.5963700000000002  0.9926  1.0000
  H   H230      1.0  0.5738599999999998  0.5872500000000003  0.07802  1.0000
  H   H231      1.0  0.0439  0.9761900000000002  0.92597  1.0000
  H   H232      1.0  0.80121  0.06855  0.8895  1.0000
  H   H233      1.0  0.5395899999999998  0.8688600000000002  0.35048  1.0000
  H   H234      1.0  0.55701  0.69662  0.81062  1.0000
  H   H235      1.0  0.29519  0.04276  0.30991  1.0000
  H   H236      1.0  0.44298  0.19662000000000004  0.68938  1.0000
  H   H237      1.0  0.9227899999999998  0.78374  0.75189  1.0000
  H   H238      1.0  0.02182  0.4033000000000001  0.6383999999999997  1.0000
  H   H239      1.0  0.6930399999999998  0.56051  0.9466699999999998  1.0000
  H   H240      1.0  0.023929999999999993  0.7541300000000002  0.59034  1.0000
  H   H241      1.0  0.71626  0.24811000000000005  0.4228  1.0000
  H   H242      1.0  0.21061  0.3994600000000001  0.8812299999999997  1.0000
  H   H243      1.0  0.54576  0.6615900000000002  0.8820799999999998  1.0000
  H   H244      1.0  0.49493  0.2546400000000001  0.03431  1.0000
  H   H245      1.0  0.9980599999999997  0.9661300000000003  0.8270499999999997  1.0000
  H   H246      1.0  0.7157699999999998  0.49541000000000013  0.25481  1.0000
  H   H247      1.0  0.92964  0.25734  0.34628999999999993  1.0000
  H   H248      1.0  0.6383999999999997  0.021820000000000006  0.40328999999999987  1.0000
  H   H249      1.0  0.9162499999999998  0.74873  0.89043  1.0000
  H   H250      1.0  0.83737  0.6761300000000002  0.8280099999999998  1.0000
  H   H251      1.0  0.7842299999999998  0.50459  0.75481  1.0000
  H   H252      1.0  0.7963199999999998  0.14968000000000006  0.4857999999999999  1.0000
  H   H253      1.0  0.0019399999999999997  0.46613000000000004  0.67294  1.0000
  H   H254      1.0  0.84018  0.4959500000000001  0.7739  1.0000
  H   H255      1.0  0.07036  0.7573400000000002  0.15371  1.0000
  H   H256      1.0  0.8280099999999998  0.83737  0.67613  1.0000
  H   H257      1.0  0.11164  0.3466800000000001  0.7282099999999998  1.0000
  H   H258      1.0  0.29382  0.32409  0.72604  1.0000
  H   H259      1.0  0.5533199999999999  0.3069600000000001  0.0605  1.0000
  H   H260      1.0  0.05916  0.03914000000000001  0.89395  1.0000
  H   H261      1.0  0.58725  0.07802000000000003  0.5738599999999998  1.0000
  H   H262      1.0  0.27391  0.6598200000000002  0.50405  1.0000
  H   H263      1.0  0.82409  0.77396  0.70617  1.0000
  H   H264      1.0  0.3503199999999999  0.5142  0.29632  1.0000
  H   H265      1.0  0.4227899999999999  0.71626  0.24811  1.0000
  H   H266      1.0  0.31062  0.9429900000000002  0.30338  1.0000
  H   H267      1.0  0.6615799999999997  0.8820900000000003  0.54576  1.0000
  H   H268      1.0  0.89347  0.17914000000000002  0.91004  1.0000
  H   H269      1.0  0.3181499999999999  0.91433  0.024489999999999998  1.0000
  H   H270      1.0  0.8202699999999998  0.40364  0.49259999999999987  1.0000
  H   H271      1.0  0.9572399999999999  0.80992  0.20480999999999994  1.0000
  H   H272      1.0  0.32386999999999994  0.3280200000000001  0.66263  1.0000
  H   H273      1.0  0.45423999999999987  0.16159  0.6179199999999999  1.0000
  H   H274      1.0  0.9608599999999998  0.3939600000000001  0.4408399999999999  1.0000
  H   H275      1.0  0.9032899999999998  0.86161  0.97818  1.0000
  H   H276      1.0  0.04632  0.76414  0.8997299999999999  1.0000
  H   H277      1.0  0.59034  0.023940000000000003  0.7541199999999999  1.0000
  H   H278      1.0  0.46567999999999987  0.5050700000000002  0.7546399999999998  1.0000
  H   H279      1.0  0.44873  0.6391500000000002  0.3190699999999999  1.0000
  H   H280      1.0  0.73586  0.10026000000000003  0.54632  1.0000
  H   H281      1.0  0.02382  0.42598  0.4561  1.0000
  H   H282      1.0  0.9466699999999998  0.69304  0.5605  1.0000
  H   H283      1.0  0.4296399999999999  0.24266000000000001  0.6537  1.0000
  H   H284      1.0  0.91003  0.89346  0.17913  1.0000
  H   H285      1.0  0.29632  0.35032  0.51419  1.0000
  H   H286      1.0  0.52381  0.07402  0.5439  1.0000
  H   H287      1.0  0.5343099999999998  0.00507  0.7453599999999998  1.0000
  H   H288      1.0  0.50459  0.7548200000000002  0.78422  1.0000
  H   H289      1.0  0.10053999999999998  0.11877000000000003  0.7106099999999997  1.0000
  H   H290      1.0  0.05126  0.3608600000000001  0.81907  1.0000
  H   H291      1.0  0.36255  0.22330000000000005  0.3590399999999999  1.0000
  H   H292      1.0  0.8504799999999998  0.9604100000000002  0.13115  1.0000
  H   H293      1.0  0.17913  0.9100400000000002  0.8934499999999997  1.0000
  H   H294      1.0  0.1908  0.6441200000000002  0.2891  1.0000
  H   H295      1.0  0.11209  0.6102  0.026749999999999993  1.0000
  H   H296      1.0  0.35048  0.5396  0.8688499999999998  1.0000
  H   H297      1.0  0.47549999999999987  0.6818500000000002  0.41432999999999987  1.0000
  H   H298      1.0  0.32085999999999987  0.08996  0.39346  1.0000
  H   H299      1.0  0.6496799999999998  0.014200000000000004  0.20368  1.0000
  H   H300      1.0  0.63744  0.7233  0.14096  1.0000
  H   H301      1.0  0.2893799999999999  0.60055  0.38123  1.0000
  H   H302      1.0  0.07719999999999998  0.2837400000000001  0.7480999999999998  1.0000
  H   H303      1.0  0.40964999999999996  0.52394  0.7458699999999998  1.0000
  H   H304      1.0  0.4561  0.02382  0.4259799999999999  1.0000
  H   H305      1.0  0.16262999999999994  0.17613  0.6719799999999999  1.0000
  H   H306      1.0  0.7546399999999998  0.4656900000000001  0.50506  1.0000
  H   H307      1.0  0.25734  0.3463  0.92964  1.0000
  H   H308      1.0  0.16397  0.93193  0.7745299999999998  1.0000
  H   H309      1.0  0.19878999999999994  0.56854  0.61049  1.0000
  H   H310      1.0  0.22609  0.3401800000000001  0.00406  1.0000
  H   H311      1.0  0.17294  0.4980600000000001  0.53387  1.0000
  H   H312      1.0  0.4857999999999999  0.79632  0.14968  1.0000
  H   H313      1.0  0.5449  0.9401900000000001  0.7925899999999998  1.0000
  H   H314      1.0  0.4314599999999999  0.11049000000000003  0.30120999999999987  1.0000
  H   H315      1.0  0.41432999999999987  0.4755100000000001  0.6818499999999997  1.0000
  H   H316      1.0  0.4114099999999999  0.7955600000000003  0.3681999999999999  1.0000
  H   H317      1.0  0.47605999999999987  0.24588000000000004  0.09033999999999999  1.0000
  H   H318      1.0  0.7453599999999998  0.53432  0.0050599999999999985  1.0000
  H   H319      1.0  0.74518  0.21577000000000005  0.00459  1.0000
  H   H320      1.0  0.1102  0.4732500000000001  0.8878999999999999  1.0000
  H   H321      1.0  0.99594  0.72609  0.15982  1.0000
  H   H322      1.0  0.57036  0.7426600000000002  0.8462899999999998  1.0000
  H   H323      1.0  0.67913  0.5899600000000003  0.10653999999999997  1.0000
  H   H324      1.0  0.72604  0.2938300000000001  0.32409  1.0000
  H   H325      1.0  0.5591599999999998  0.46087000000000006  0.10603999999999997  1.0000
  H   H326      1.0  0.39043  0.5837500000000001  0.25126999999999994  1.0000
  H   H327      1.0  0.5605  0.94668  0.6930399999999998  1.0000
  H   H328      1.0  0.6391399999999998  0.31907  0.44873  1.0000
  H   H329      1.0  0.18092999999999998  0.55127  0.13914  1.0000
  H   H330      1.0  0.7541199999999999  0.5903400000000002  0.023929999999999993  1.0000
  H   H331      1.0  0.044899999999999995  0.55982  0.20741  1.0000
  H   H332      1.0  0.89395  0.059160000000000004  0.039129999999999984  1.0000
  H   H333      1.0  0.96568  0.9949400000000003  0.24536  1.0000
  H   H334      1.0  0.7106099999999997  0.10054000000000003  0.11876999999999997  1.0000
  H   H335      1.0  0.8396199999999998  0.5708900000000002  0.85607  1.0000
  H   H336      1.0  0.08994999999999997  0.39347  0.32085999999999987  1.0000
  H   H337      1.0  0.07802  0.57387  0.58725  1.0000
  H   H338      1.0  0.07385999999999997  0.9127600000000002  0.9219799999999998  1.0000
  H   H339      1.0  0.6533199999999998  0.22821000000000005  0.38835999999999987  1.0000
  H   H340      1.0  0.23586  0.39974  0.45368  1.0000
  H   H341      1.0  0.24517999999999995  0.28423  0.9954099999999998  1.0000
  H   H342      1.0  0.10956  0.41626  0.75127  1.0000
  H   H343      1.0  0.36885  0.14952  0.4604  1.0000
  H   H344      1.0  0.30991  0.2951900000000001  0.04276  1.0000
  H   H345      1.0  0.8338499999999998  0.8595800000000002  0.0014699999999999995  1.0000
  H   H346      1.0  0.14410999999999993  0.21090000000000006  0.8092  1.0000
  H   H347      1.0  0.21626  0.25189  0.5772  1.0000
  H   H348      1.0  0.9949399999999998  0.24536  0.96568  1.0000
  H   H349      1.0  0.64041  0.9985300000000003  0.33384999999999987  1.0000
  H   H350      1.0  0.059819999999999984  0.29259  0.9550899999999998  1.0000
  H   H351      1.0  0.75734  0.15371  0.07036  1.0000
  H   H352      1.0  0.9857999999999999  0.70368  0.85031  1.0000
  H   H353      1.0  0.4401799999999999  0.7074100000000002  0.4550899999999999  1.0000
  H   H354      1.0  0.7745299999999998  0.16398000000000004  0.93193  1.0000
  H   H355      1.0  0.3994499999999999  0.8812400000000002  0.21061999999999995  1.0000
  H   H356      1.0  0.85958  0.00148  0.8338499999999998  1.0000
  H   H357      1.0  0.9219799999999998  0.07387  0.91275  1.0000
  H   H358      1.0  0.6116399999999997  0.15332  0.27179  1.0000
  H   H359      1.0  0.16158  0.61792  0.45423999999999987  1.0000
  H   H360      1.0  0.72329  0.14097  0.63744  1.0000
  H   H361      1.0  0.7767  0.8590400000000002  0.13744  1.0000
  H   H362      1.0  0.56807  0.22547  0.66397  1.0000
  H   H363      1.0  0.89043  0.91626  0.74872  1.0000
  H   H364      1.0  0.08566999999999998  0.52449  0.18184999999999996  1.0000
  H   H365      1.0  0.33961999999999987  0.9291200000000002  0.14393  1.0000
  H   H366      1.0  0.65981  0.5040600000000002  0.27391  1.0000
  H   H367      1.0  0.81062  0.55702  0.6966099999999998  1.0000
  H   H368      1.0  0.30338  0.3106200000000001  0.94298  1.0000
  H   H369      1.0  0.14097  0.63744  0.72329  1.0000
  H   H370      1.0  0.9487299999999999  0.8608600000000002  0.68093  1.0000
  H   H371      1.0  0.86085  0.68093  0.9487299999999999  1.0000
  H   H372      1.0  0.75189  0.9228  0.78374  1.0000
  H   H373      1.0  0.9603999999999998  0.13115  0.8504799999999998  1.0000
  H   H374      1.0  0.17590999999999996  0.2739600000000001  0.79382  1.0000
  H   H375      1.0  0.4732399999999999  0.88791  0.1102  1.0000
  H   H376      1.0  0.5772  0.21626000000000006  0.25188999999999995  1.0000
  H   H377      1.0  0.60054  0.38123  0.2893799999999999  1.0000
  H   H378      1.0  0.75127  0.10956000000000003  0.41625  1.0000
  H   H379      1.0  0.8878999999999999  0.11020000000000003  0.4732399999999999  1.0000
  H   H380      1.0  0.29259  0.9551  0.059819999999999984  1.0000
  H   H381      1.0  0.9291099999999998  0.14393  0.33961999999999987  1.0000
  H   H382      1.0  0.97818  0.9033000000000002  0.8615999999999998  1.0000
  H   H383      1.0  0.06853  0.88951  0.8012  1.0000
  H   H384      1.0  0.08724999999999997  0.42198000000000013  0.4261299999999999  1.0000
  H   H385      1.0  0.2767  0.6409700000000003  0.86256  1.0000
  H   H386      1.0  0.5740199999999998  0.9561000000000002  0.47618  1.0000
  H   H387      1.0  0.0396  0.63115  0.64951  1.0000
  H   H388      1.0  0.05701  0.80339  0.18938  1.0000
  H   H389      1.0  0.20368  0.6496800000000003  0.014199999999999997  1.0000
  H   H390      1.0  0.78374  0.7519  0.9227899999999998  1.0000
  H   H391      1.0  0.27395  0.7938300000000003  0.17590999999999996  1.0000
  H   H392      1.0  0.0605  0.55333  0.30696  1.0000
  H   H393      1.0  0.7108899999999999  0.6908000000000002  0.85588  1.0000
  H   H394      1.0  0.52182  0.09671  0.3616  1.0000
  H   H395      1.0  0.14968  0.48581  0.7963199999999998  1.0000
  H   H396      1.0  0.16037  0.07089000000000002  0.64392  1.0000
  H   H397      1.0  0.2891  0.1908  0.64411  1.0000
  H   H398      1.0  0.42197999999999997  0.42614  0.08724999999999997  1.0000
  H   H399      1.0  0.07402  0.54391  0.52381  1.0000
  H   H400      1.0  0.6818499999999997  0.41433  0.4755099999999999  1.0000
  H   H401      1.0  0.11791999999999997  0.04576  0.83841  1.0000
  H   H402      1.0  0.34628999999999993  0.9296400000000002  0.25734  1.0000
  H   H403      1.0  0.4127499999999999  0.57802  0.92613  1.0000
  H   H404      1.0  0.47818  0.5967100000000002  0.1384  1.0000
  H   H405      1.0  0.04275  0.3099200000000001  0.29519  1.0000
  H   H406      1.0  0.5780199999999998  0.9261400000000002  0.4127499999999999  1.0000
  H   H407      1.0  0.9408299999999999  0.53914  0.60604  1.0000
  H   H408      1.0  0.6187599999999999  0.7893900000000003  0.8994499999999997  1.0000
  H   H409      1.0  0.13914  0.18093000000000006  0.5512599999999998  1.0000
  H   H410      1.0  0.9661199999999998  0.82706  0.9980599999999997  1.0000
  H   H411      1.0  0.68093  0.9487400000000002  0.86085  1.0000
  H   H412      1.0  0.94298  0.30339  0.31062  1.0000
  H   H413      1.0  0.00459  0.74519  0.21576999999999993  1.0000
  H   H414      1.0  0.8994499999999997  0.6187700000000003  0.78938  1.0000
  H   H415      1.0  0.19661  0.68938  0.44298  1.0000
  H   H416      1.0  0.5885899999999997  0.29555  0.13179  1.0000
  H   H417      1.0  0.8997299999999999  0.04632  0.76413  1.0000
  H   H418      1.0  0.8688499999999998  0.35049  0.5396  1.0000
  H   H419      1.0  0.8820799999999998  0.54577  0.6615799999999997  1.0000
  H   H420      1.0  0.46611999999999987  0.67295  0.0019399999999999997  1.0000
  H   H421      1.0  0.03387  0.32706000000000013  0.50194  1.0000
  H   H422      1.0  0.64411  0.2891  0.1908  1.0000
  H   H423      1.0  0.66263  0.3238700000000001  0.32802  1.0000
  H   H424      1.0  0.55982  0.20741  0.044899999999999995  1.0000
  H   H425      1.0  0.94018  0.7925900000000002  0.5449  1.0000
  H   H426      1.0  0.04576  0.8384200000000003  0.11791999999999997  1.0000
  H   H427      1.0  0.35903  0.3625600000000001  0.22329999999999994  1.0000
  H   H428      1.0  0.43192999999999987  0.72547  0.83602  1.0000
  H   H429      1.0  0.30120999999999987  0.4314600000000001  0.11049  1.0000
  H   H430      1.0  0.4408299999999999  0.9608700000000002  0.39395  1.0000
  H   H431      1.0  0.22821  0.38836000000000004  0.6533199999999998  1.0000
  H   H432      1.0  0.97606  0.25413  0.90965  1.0000
  C   C1        1.0  0.27329  0.33535000000000004  0.53802  1.0000
  C   C2        1.0  0.12129  0.4206200000000001  0.55596  1.0000
  C   C3        1.0  0.82744  0.10003000000000002  0.83006  1.0000
  C   C4        1.0  0.41395  0.4696  0.79359  1.0000
  C   C5        1.0  0.22669999999999996  0.66466  0.038019999999999984  1.0000
  C   C6        1.0  0.57578  0.6001  0.0441  1.0000
  C   C7        1.0  0.6086  0.9718500000000002  0.55785  1.0000
  C   C8        1.0  0.58028  0.47607  0.21929999999999994  1.0000
  C   C9        1.0  0.54002  0.21350000000000005  0.07534  1.0000
  C   C10       1.0  0.3380399999999999  0.1582  0.37907999999999986  1.0000
  C   C11       1.0  0.15527999999999995  0.57384  0.1262  1.0000
  C   C12       1.0  0.98244  0.4793900000000001  0.5489699999999997  1.0000
  C   C13       1.0  0.0693  0.50575  0.25151  1.0000
  C   C14       1.0  0.85017  0.6742500000000002  0.7940699999999998  1.0000
  C   C15       1.0  0.61169  0.12531  0.6565499999999997  1.0000
  C   C16       1.0  0.8940899999999998  0.00138  0.8227199999999998  1.0000
  C   C17       1.0  0.79359  0.41396  0.46959  1.0000
  C   C18       1.0  0.22923999999999994  0.23257  0.70091  1.0000
  C   C19       1.0  0.69908  0.92938  0.2989199999999999  1.0000
  C   C20       1.0  0.62572  0.9418600000000003  0.72436  1.0000
  C   C21       1.0  0.7879999999999998  0.9146400000000002  0.0233  1.0000
  C   C22       1.0  0.7161799999999998  0.06887000000000003  0.26845999999999987  1.0000
  C   C23       1.0  0.7315299999999998  0.21619000000000005  0.43113  1.0000
  C   C24       1.0  0.58536  0.97671  0.288  1.0000
  C   C25       1.0  0.10395  0.86934  0.9752399999999998  1.0000
  C   C26       1.0  0.9760699999999998  0.2807000000000001  0.41972  1.0000
  C   C27       1.0  0.7260099999999998  0.6696100000000003  0.96926  1.0000
  C   C28       1.0  0.6638899999999999  0.45634000000000013  0.21958999999999995  1.0000
  C   C29       1.0  0.32451  0.58862  0.8028999999999997  1.0000
  C   C30       1.0  0.96926  0.72601  0.6695999999999998  1.0000
  C   C31       1.0  0.6581899999999998  0.12093000000000002  0.6619599999999998  1.0000
  C   C32       1.0  0.71349  0.42466  0.45998  1.0000
  C   C33       1.0  0.24869999999999995  0.6440900000000003  0.07267999999999997  1.0000
  C   C34       1.0  0.63755  0.9036700000000002  0.79559  1.0000
  C   C35       1.0  0.55814  0.27564  0.12572  1.0000
  C   C36       1.0  0.17836999999999995  0.55176  0.04799  1.0000
  C   C37       1.0  0.56887  0.23154000000000005  0.28381  1.0000
  C   C38       1.0  0.12572  0.5581500000000001  0.2756299999999999  1.0000
  C   C39       1.0  0.81281  0.8556300000000002  0.13346  1.0000
  C   C40       1.0  0.17636  0.59426  0.62349  1.0000
  C   C41       1.0  0.42936999999999986  0.20108000000000006  0.3009199999999999  1.0000
  C   C42       1.0  0.8293599999999999  0.8712800000000002  0.8059599999999998  1.0000
  C   C43       1.0  0.21958999999999995  0.6639000000000003  0.45634  1.0000
  C   C44       1.0  0.20091999999999993  0.2707600000000001  0.76743  1.0000
  C   C45       1.0  0.46614  0.51857  0.18122  1.0000
  C   C46       1.0  0.9057399999999998  0.3765100000000001  0.67636  1.0000
  C   C47       1.0  0.7484799999999998  0.5693000000000003  0.9942499999999997  1.0000
  C   C48       1.0  0.9146299999999998  0.0233  0.7879999999999998  1.0000
  C   C49       1.0  0.86536  0.84184  0.7995799999999997  1.0000
  C   C50       1.0  0.7193  0.91972  0.52393  1.0000
  C   C51       1.0  0.15206  0.6221300000000001  0.5944899999999997  1.0000
  C   C52       1.0  0.6209299999999998  0.8380400000000002  0.3418  1.0000
  C   C53       1.0  0.62349  0.17636000000000004  0.5942599999999999  1.0000
  C   C54       1.0  0.5860399999999999  0.9696000000000002  0.7064099999999999  1.0000
  C   C55       1.0  0.7803999999999998  0.1639  0.04366  1.0000
  C   C56       1.0  0.6161199999999998  0.8935  0.9371699999999997  1.0000
  C   C57       1.0  0.6565499999999997  0.6116900000000001  0.12531  1.0000
  C   C58       1.0  0.9113999999999999  0.19710000000000005  0.82451  1.0000
  C   C59       1.0  0.3434399999999999  0.11169000000000003  0.37468999999999997  1.0000
  C   C60       1.0  0.22536999999999993  0.3806200000000001  0.85398  1.0000
  C   C61       1.0  0.17444  0.9635200000000003  0.79008  1.0000
  C   C62       1.0  0.8806199999999997  0.6460200000000003  0.77462  1.0000
  C   C63       1.0  0.57461  0.44713000000000014  0.33761999999999986  1.0000
  C   C64       1.0  0.17727999999999994  0.39409  0.49862  1.0000
  C   C65       1.0  0.20592  0.35018  0.8257499999999998  1.0000
  C   C66       1.0  0.7995799999999997  0.8653600000000001  0.84183  1.0000
  C   C67       1.0  0.60395  0.63066  0.024749999999999994  1.0000
  C   C68       1.0  0.90366  0.7956000000000002  0.63755  1.0000
  C   C69       1.0  0.03648  0.2900900000000001  0.3255499999999999  1.0000
  C   C70       1.0  0.7218  0.85853  0.69219  1.0000
  C   C71       1.0  0.60001  0.6699400000000002  0.17256  1.0000
  C   C72       1.0  0.09183999999999998  0.38462  0.5496  1.0000
  C   C73       1.0  0.92538  0.55287  0.8376199999999998  1.0000
  C   C74       1.0  0.09426  0.8765100000000002  0.8236299999999998  1.0000
  C   C75       1.0  0.7044  0.36245  0.4036599999999999  1.0000
  C   C76       1.0  0.9619799999999998  0.7267100000000001  0.83534  1.0000
  C   C77       1.0  0.39989999999999987  0.5441100000000002  0.92422  1.0000
  C   C78       1.0  0.8077999999999997  0.2782  0.35853  1.0000
  C   C79       1.0  0.712  0.08537000000000003  0.52329  1.0000
  C   C80       1.0  0.25585  0.31928  0.9984399999999998  1.0000
  C   C81       1.0  0.29008  0.32555000000000006  0.03648  1.0000
  C   C82       1.0  0.8742699999999998  0.05815  0.22436  1.0000
  C   C83       1.0  0.85591  0.92732  0.7487  1.0000
  C   C84       1.0  0.52329  0.7120000000000001  0.08535999999999998  1.0000
  C   C85       1.0  0.2756299999999999  0.12573  0.55814  1.0000
  C   C86       1.0  0.32936  0.62873  0.19404  1.0000
  C   C87       1.0  0.8934899999999998  0.93718  0.6161199999999998  1.0000
  C   C88       1.0  0.21617999999999998  0.4311300000000001  0.7315299999999998  1.0000
  C   C89       1.0  0.288  0.58537  0.9767  1.0000
  C   C90       1.0  0.32743  0.39999  0.16993999999999995  1.0000
  C   C91       1.0  0.38829999999999987  0.62532  0.84344  1.0000
  C   C92       1.0  0.20106999999999997  0.30092000000000013  0.42936999999999986  1.0000
  C   C93       1.0  0.27462  0.6193800000000003  0.3539799999999999  1.0000
  C   C94       1.0  0.12507  0.36158  0.90684  1.0000
  C   C95       1.0  0.3300599999999999  0.6725700000000002  0.89998  1.0000
  C   C96       1.0  0.38062  0.8539800000000002  0.22536999999999993  1.0000
  C   C97       1.0  0.6065099999999999  0.06283000000000001  0.11612  1.0000
  C   C98       1.0  0.04002  0.28651  0.9246599999999998  1.0000
  C   C99       1.0  0.17256  0.60001  0.66993  1.0000
  C   C100      1.0  0.73587  0.19833  0.23627  1.0000
  C   C101      1.0  0.48613  0.051540000000000016  0.48598  1.0000
  C   C102      1.0  0.6744399999999998  0.5364800000000001  0.20991999999999994  1.0000
  C   C103      1.0  0.50575  0.25152  0.0693  1.0000
  C   C104      1.0  0.62213  0.5944900000000002  0.15206  1.0000
  C   C105      1.0  0.6807199999999998  0.49845000000000006  0.24413999999999994  1.0000
  C   C106      1.0  0.87871  0.9206300000000001  0.9440299999999998  1.0000
  C   C107      1.0  0.6581599999999997  0.20042000000000004  0.3653599999999999  1.0000
  C   C108      1.0  0.2803999999999999  0.33611  0.9563399999999997  1.0000
  C   C109      1.0  0.80092  0.07063  0.79892  1.0000
  C   C110      1.0  0.37584999999999996  0.97429  0.30809  1.0000
  C   C111      1.0  0.40815  0.61538  0.0496  1.0000
  C   C112      1.0  0.07061999999999997  0.7989300000000003  0.80091  1.0000
  C   C113      1.0  0.4371699999999999  0.88388  0.10651  1.0000
  C   C114      1.0  0.95201  0.67837  0.94823  1.0000
  C   C115      1.0  0.80595  0.82936  0.8712699999999998  1.0000
  C   C116      1.0  0.77329  0.16466000000000006  0.46198  1.0000
  C   C117      1.0  0.10001  0.8300700000000002  0.8274299999999998  1.0000
  C   C118      1.0  0.36158  0.9068500000000003  0.12507  1.0000
  C   C119      1.0  0.27076  0.7674400000000002  0.20091999999999993  1.0000
  C   C120      1.0  0.12531  0.65656  0.61169  1.0000
  C   C121      1.0  0.7641199999999998  0.8016700000000002  0.7362599999999999  1.0000
  C   C122      1.0  0.54547  0.15365  0.61221  1.0000
  C   C123      1.0  0.7940699999999998  0.8501800000000003  0.6742399999999997  1.0000
  C   C124      1.0  0.9471299999999998  0.16238  0.42538  1.0000
  C   C125      1.0  0.77819  0.14147000000000007  0.19218999999999994  1.0000
  C   C126      1.0  0.6553899999999998  0.3724800000000001  0.40191  1.0000
  C   C127      1.0  0.6983299999999998  0.26373  0.26413  1.0000
  C   C128      1.0  0.030729999999999993  0.22601000000000004  0.8303899999999999  1.0000
  C   C129      1.0  0.2989199999999999  0.69909  0.9293699999999998  1.0000
  C   C130      1.0  0.24848  0.9307000000000002  0.00575  1.0000
  C   C131      1.0  0.37019  0.5919800000000002  0.41230999999999995  1.0000
  C   C132      1.0  0.44823  0.54799  0.3216299999999999  1.0000
  C   C133      1.0  0.57268  0.2513  0.35591  1.0000
  C   C134      1.0  0.37127  0.69404  0.17063999999999993  1.0000
  C   C135      1.0  0.12349  0.32365  0.4057199999999999  1.0000
  C   C136      1.0  0.64409  0.07268  0.24869999999999995  1.0000
  C   C137      1.0  0.13065999999999997  0.47525  0.3960499999999999  1.0000
  C   C138      1.0  0.41463  0.47671  0.21199999999999994  1.0000
  C   C139      1.0  0.7739899999999997  0.3304000000000001  0.46927  1.0000
  C   C140      1.0  0.08028  0.023930000000000007  0.7807  1.0000
  C   C141      1.0  0.76846  0.78382  0.93112  1.0000
  C   C142      1.0  0.3934899999999999  0.56283  0.3838799999999999  1.0000
  C   C143      1.0  0.79908  0.77076  0.7325599999999998  1.0000
  C   C144      1.0  0.1639  0.04366  0.7803999999999998  1.0000
  C   C145      1.0  0.3846199999999999  0.5496000000000001  0.09183999999999998  1.0000
  C   C146      1.0  0.49425  0.75152  0.43069999999999997  1.0000
  C   C147      1.0  0.3303999999999999  0.46927  0.7739899999999997  1.0000
  C   C148      1.0  0.27399  0.16961000000000007  0.5307299999999999  1.0000
  C   C149      1.0  0.97525  0.10396000000000002  0.8693399999999998  1.0000
  C   C150      1.0  0.46959  0.7935900000000002  0.41395  1.0000
  C   C151      1.0  0.57384  0.12620000000000003  0.15527999999999995  1.0000
  C   C152      1.0  0.5876899999999998  0.8701900000000002  0.9080199999999998  1.0000
  C   C153      1.0  0.94214  0.3913900000000001  0.47183999999999987  1.0000
  C   C154      1.0  0.8028999999999997  0.32452  0.58861  1.0000
  C   C155      1.0  0.23626  0.73587  0.19832999999999995  1.0000
  C   C156      1.0  0.22601  0.8304000000000002  0.030729999999999993  1.0000
  C   C157      1.0  0.54799  0.32163000000000014  0.4482399999999999  1.0000
  C   C158      1.0  0.02061  0.4510300000000001  0.4824399999999999  1.0000
  C   C159      1.0  0.30781  0.22181000000000006  0.64147  1.0000
  C   C160      1.0  0.17548  0.4114000000000001  0.30291  1.0000
  C   C161      1.0  0.6306599999999998  0.02475  0.60395  1.0000
  C   C162      1.0  0.29359  0.08605  0.5304  1.0000
  C   C163      1.0  0.8913899999999998  0.02815000000000001  0.057849999999999985  1.0000
  C   C164      1.0  0.85398  0.22538  0.38062  1.0000
  C   C165      1.0  0.53386  0.018570000000000007  0.31877  1.0000
  C   C166      1.0  0.37468999999999997  0.3434500000000001  0.11168999999999997  1.0000
  C   C167      1.0  0.8758499999999998  0.52572  0.6919099999999998  1.0000
  C   C168      1.0  0.8380299999999999  0.3418  0.6209299999999998  1.0000
  C   C169      1.0  0.9503899999999997  0.9081600000000002  0.88461  1.0000
  C   C170      1.0  0.33761999999999986  0.57462  0.4471299999999999  1.0000
  C   C171      1.0  0.8701799999999997  0.9080300000000002  0.5876899999999998  1.0000
  C   C172      1.0  0.21929999999999994  0.58028  0.47607  1.0000
  C   C173      1.0  0.9984399999999998  0.25586  0.31927  1.0000
  C   C174      1.0  0.11220999999999998  0.95453  0.84634  1.0000
  C   C175      1.0  0.04366  0.78041  0.1639  1.0000
  C   C176      1.0  0.36244  0.4036700000000001  0.7044  1.0000
  C   C177      1.0  0.74414  0.81928  0.50155  1.0000
  C   C178      1.0  0.70991  0.8255600000000002  0.4635199999999999  1.0000
  C   C179      1.0  0.5247499999999999  0.89605  0.3693399999999999  1.0000
  C   C180      1.0  0.4635199999999999  0.7099200000000002  0.82555  1.0000
  C   C181      1.0  0.07802999999999999  0.4202200000000001  0.8505499999999998  1.0000
  C   C182      1.0  0.70592  0.14982  0.17424  1.0000
  C   C183      1.0  0.68719  0.14437  0.6334599999999998  1.0000
  C   C184      1.0  0.11537999999999997  0.45040000000000013  0.59184  1.0000
  C   C185      1.0  0.025709999999999993  0.8080900000000002  0.12414999999999997  1.0000
  C   C186      1.0  0.12092999999999997  0.66197  0.6581899999999998  1.0000
  C   C187      1.0  0.9371699999999997  0.61612  0.8934899999999998  1.0000
  C   C188      1.0  0.21199999999999994  0.41464000000000006  0.4767  1.0000
  C   C189      1.0  0.35591  0.57269  0.2513  1.0000
  C   C190      1.0  0.4068499999999999  0.3749300000000001  0.63842  1.0000
  C   C191      1.0  0.55596  0.12129000000000002  0.42062  1.0000
  C   C192      1.0  0.9197199999999998  0.5239300000000002  0.7193  1.0000
  C   C193      1.0  0.88461  0.9504000000000002  0.9081499999999998  1.0000
  C   C194      1.0  0.42465999999999987  0.4599900000000001  0.71349  1.0000
  C   C195      1.0  0.6619599999999998  0.6582  0.12092999999999997  1.0000
  C   C196      1.0  0.15816  0.29959  0.63464  1.0000
  C   C197      1.0  0.8479399999999998  0.12214000000000003  0.9055099999999998  1.0000
  C   C198      1.0  0.4824399999999999  0.02061  0.4510299999999999  1.0000
  C   C199      1.0  0.37248  0.40192  0.6553899999999998  1.0000
  C   C200      1.0  0.44185  0.77564  0.37427  1.0000
  C   C201      1.0  0.05287  0.66238  0.07460999999999997  1.0000
  C   C202      1.0  0.81877  0.96615  0.9814299999999998  1.0000
  C   C203      1.0  0.9080199999999998  0.58769  0.8701799999999997  1.0000
  C   C204      1.0  0.5185599999999999  0.18123000000000006  0.46614  1.0000
  C   C205      1.0  0.61221  0.54548  0.15364999999999998  1.0000
  C   C206      1.0  0.5942599999999999  0.6234900000000002  0.17636  1.0000
  C   C207      1.0  0.6623799999999997  0.07462  0.05287  1.0000
  C   C208      1.0  0.41972  0.9760700000000002  0.2807  1.0000
  C   C209      1.0  0.47428  0.19191000000000003  0.6241499999999998  1.0000
  C   C210      1.0  0.8764999999999997  0.82364  0.09426  1.0000
  C   C211      1.0  0.9055  0.8479400000000002  0.12212999999999997  1.0000
  C   C212      1.0  0.37651  0.67637  0.9057299999999998  1.0000
  C   C213      1.0  0.14982  0.17425000000000002  0.70592  1.0000
  C   C214      1.0  0.55176  0.04799  0.17836999999999995  1.0000
  C   C215      1.0  0.26845999999999987  0.71619  0.06887  1.0000
  C   C216      1.0  0.7515099999999998  0.43070000000000014  0.49425  1.0000
  C   C217      1.0  0.94185  0.7243700000000002  0.62572  1.0000
  C   C218      1.0  0.51756  0.5206200000000001  0.048969999999999986  1.0000
  C   C219      1.0  0.3737899999999999  0.84472  0.07383999999999998  1.0000
  C   C220      1.0  0.22179999999999994  0.64147  0.30781  1.0000
  C   C221      1.0  0.07383999999999998  0.37380000000000013  0.8447099999999997  1.0000
  C   C222      1.0  0.3877799999999999  0.04548  0.34635  1.0000
  C   C223      1.0  0.47937999999999986  0.54897  0.98244  1.0000
  C   C224      1.0  0.19218999999999994  0.7782  0.14147  1.0000
  C   C225      1.0  0.12752  0.5980900000000001  0.15539  1.0000
  C   C226      1.0  0.8360999999999997  0.54366  0.71959  1.0000
  C   C227      1.0  0.67548  0.08861000000000002  0.6970999999999998  1.0000
  C   C228      1.0  0.16237999999999994  0.4253900000000001  0.9471299999999998  1.0000
  C   C229      1.0  0.59808  0.15539000000000006  0.12752  1.0000
  C   C230      1.0  0.7865  0.5753400000000002  0.9599799999999998  1.0000
  C   C231      1.0  0.15364999999999998  0.61222  0.54547  1.0000
  C   C232      1.0  0.1262  0.15529000000000007  0.57384  1.0000
  C   C233      1.0  0.8999899999999998  0.33007000000000003  0.6725599999999999  1.0000
  C   C234      1.0  0.6000999999999997  0.044100000000000014  0.57578  1.0000
  C   C235      1.0  0.29957999999999996  0.6346400000000002  0.15816  1.0000
  C   C236      1.0  0.92731  0.7487100000000002  0.85591  1.0000
  C   C237      1.0  0.87248  0.09809  0.34461  1.0000
  C   C238      1.0  0.4510299999999999  0.48244  0.02061  1.0000
  C   C239      1.0  0.9123099999999997  0.12981  0.40802  1.0000
  C   C240      1.0  0.6153799999999998  0.0496  0.40815  1.0000
  C   C241      1.0  0.5307299999999999  0.27399  0.16959999999999995  1.0000
  C   C242      1.0  0.7362599999999999  0.76413  0.8016699999999998  1.0000
  C   C243      1.0  0.4558999999999999  0.4242200000000001  0.10009999999999997  1.0000
  C   C244      1.0  0.9695899999999997  0.70641  0.5860399999999999  1.0000
  C   C245      1.0  0.31927  0.99845  0.25585  1.0000
  C   C246      1.0  0.69709  0.67549  0.08861  1.0000
  C   C247      1.0  0.10651  0.43718000000000007  0.8838799999999998  1.0000
  C   C248      1.0  0.02329  0.7880000000000003  0.9146299999999998  1.0000
  C   C249      1.0  0.5496  0.09185  0.3846199999999999  1.0000
  C   C250      1.0  0.7064099999999999  0.5860500000000001  0.9695899999999997  1.0000
  C   C251      1.0  0.46198  0.7733  0.16465  1.0000
  C   C252      1.0  0.18719  0.3556400000000001  0.36653  1.0000
  C   C253      1.0  0.53802  0.27329  0.33534  1.0000
  C   C254      1.0  0.55154  0.01402  0.51386  1.0000
  C   C255      1.0  0.64944  0.9219700000000002  0.9202099999999998  1.0000
  C   C256      1.0  0.09449  0.34794  0.37786  1.0000
  C   C257      1.0  0.43069999999999997  0.4942600000000001  0.7515099999999998  1.0000
  C   C258      1.0  0.8624399999999998  0.09634  0.29559999999999986  1.0000
  C   C259      1.0  0.48598  0.4861300000000001  0.05154  1.0000
  C   C260      1.0  0.57938  0.05596000000000001  0.3787099999999999  1.0000
  C   C261      1.0  0.048969999999999986  0.5175600000000001  0.52061  1.0000
  C   C262      1.0  0.8693299999999999  0.9752500000000002  0.10395  1.0000
  C   C263      1.0  0.5440999999999999  0.9242200000000003  0.39989999999999987  1.0000
  C   C264      1.0  0.30289999999999995  0.17549  0.41139  1.0000
  C   C265      1.0  0.29559  0.8624500000000003  0.09634  1.0000
  C   C266      1.0  0.8747  0.15656000000000003  0.88831  1.0000
  C   C267      1.0  0.4814299999999999  0.6812300000000002  0.03386  1.0000
  C   C268      1.0  0.9814299999999998  0.8187800000000002  0.9661399999999998  1.0000
  C   C269      1.0  0.19832999999999995  0.23627000000000004  0.73587  1.0000
  C   C270      1.0  0.7637299999999998  0.23587000000000005  0.30167  1.0000
  C   C271      1.0  0.4036599999999999  0.7044100000000002  0.36244  1.0000
  C   C272      1.0  0.70091  0.22924  0.23255999999999993  1.0000
  C   C273      1.0  0.6520599999999999  0.8778700000000003  0.40550999999999987  1.0000
  C   C274      1.0  0.37491999999999986  0.6384200000000002  0.4068499999999999  1.0000
  C   C275      1.0  0.26373  0.26413  0.6983299999999998  1.0000
  C   C276      1.0  0.9440299999999998  0.8787200000000002  0.9206199999999999  1.0000
  C   C277      1.0  0.71959  0.8361100000000002  0.54366  1.0000
  C   C278      1.0  0.3216299999999999  0.44824000000000014  0.54799  1.0000
  C   C279      1.0  0.30596  0.6706400000000002  0.12873  1.0000
  C   C280      1.0  0.42020999999999986  0.85056  0.07802999999999999  1.0000
  C   C281      1.0  0.19709999999999994  0.8245200000000003  0.9113799999999997  1.0000
  C   C282      1.0  0.8838799999999998  0.10651  0.4371699999999999  1.0000
  C   C283      1.0  0.29907999999999996  0.72925  0.26743  1.0000
  C   C284      1.0  0.37427  0.44186  0.7756299999999998  1.0000
  C   C285      1.0  0.16993999999999995  0.32744  0.3999699999999999  1.0000
  C   C286      1.0  0.42615  0.6262100000000003  0.34470999999999996  1.0000
  C   C287      1.0  0.46927  0.7739900000000002  0.3303999999999999  1.0000
  C   C288      1.0  0.47607  0.21930000000000005  0.58028  1.0000
  C   C289      1.0  0.7838099999999998  0.9311300000000002  0.76846  1.0000
  C   C290      1.0  0.6253099999999998  0.84345  0.38829999999999987  1.0000
  C   C291      1.0  0.11938  0.14602000000000004  0.7253699999999997  1.0000
  C   C292      1.0  0.8192699999999998  0.50156  0.74414  1.0000
  C   C293      1.0  0.19907999999999995  0.57063  0.7010699999999997  1.0000
  C   C294      1.0  0.8712699999999998  0.8059600000000002  0.8293599999999999  1.0000
  C   C295      1.0  0.10860999999999998  0.5281600000000001  0.4421499999999999  1.0000
  C   C296      1.0  0.41139  0.3029  0.17548  1.0000
  C   C297      1.0  0.85853  0.6922000000000003  0.7218  1.0000
  C   C298      1.0  0.14601999999999996  0.72538  0.11938  1.0000
  C   C299      1.0  0.98598  0.013870000000000004  0.9484499999999998  1.0000
  C   C300      1.0  0.8505499999999998  0.07803000000000003  0.42020999999999986  1.0000
  C   C301      1.0  0.09634  0.2956000000000001  0.8624399999999998  1.0000
  C   C302      1.0  0.43111999999999995  0.7315400000000002  0.21617999999999998  1.0000
  C   C303      1.0  0.07267999999999997  0.24871  0.64409  1.0000
  C   C304      1.0  0.9206199999999999  0.9440400000000002  0.87871  1.0000
  C   C305      1.0  0.00575  0.24849000000000004  0.9307  1.0000
  C   C306      1.0  0.57978  0.3505600000000001  0.4219699999999999  1.0000
  C   C307      1.0  0.6262  0.34472  0.42615999999999987  1.0000
  C   C308      1.0  0.057849999999999985  0.8913900000000002  0.028149999999999994  1.0000
  C   C309      1.0  0.52393  0.7193  0.9197199999999998  1.0000
  C   C310      1.0  0.83534  0.9619900000000002  0.7267  1.0000
  C   C311      1.0  0.2940699999999999  0.64982  0.32575  1.0000
  C   C312      1.0  0.40573  0.12349000000000003  0.32364  1.0000
  C   C313      1.0  0.3009199999999999  0.4293800000000001  0.20107999999999995  1.0000
  C   C314      1.0  0.34461  0.8724900000000002  0.09808  1.0000
  C   C315      1.0  0.3838799999999999  0.39349  0.5628299999999998  1.0000
  C   C316      1.0  0.64147  0.30781  0.22179999999999994  1.0000
  C   C317      1.0  0.37786  0.09449  0.34794  1.0000
  C   C318      1.0  0.32364  0.40574  0.12349  1.0000
  C   C319      1.0  0.4520099999999999  0.82163  0.05176  1.0000
  C   C320      1.0  0.44403  0.62129  0.07937999999999998  1.0000
  C   C321      1.0  0.64437  0.86654  0.31281  1.0000
  C   C322      1.0  0.63464  0.15817  0.29957999999999996  1.0000
  C   C323      1.0  0.8877799999999998  0.4545300000000001  0.6536499999999997  1.0000
  C   C324      1.0  0.8418  0.8790700000000002  0.16195999999999994  1.0000
  C   C325      1.0  0.67636  0.9057400000000002  0.37651  1.0000
  C   C326      1.0  0.5693  0.99426  0.7484799999999998  1.0000
  C   C327      1.0  0.62507  0.13842000000000004  0.09314999999999997  1.0000
  C   C328      1.0  0.51402  0.9861400000000002  0.44846  1.0000
  C   C329      1.0  0.72436  0.62573  0.94185  1.0000
  C   C330      1.0  0.59184  0.11538000000000002  0.4503999999999999  1.0000
  C   C331      1.0  0.94823  0.95202  0.6783699999999998  1.0000
  C   C332      1.0  0.95452  0.8463500000000003  0.11220999999999998  1.0000
  C   C333      1.0  0.9767  0.288  0.58536  1.0000
  C   C334      1.0  0.30809  0.37586000000000014  0.97428  1.0000
  C   C335      1.0  0.09314999999999997  0.62508  0.13841999999999993  1.0000
  C   C336      1.0  0.8446099999999997  0.6275200000000002  0.90191  1.0000
  C   C337      1.0  0.17063999999999993  0.37128  0.6940399999999998  1.0000
  C   C338      1.0  0.40550999999999987  0.65207  0.87787  1.0000
  C   C339      1.0  0.7267  0.83535  0.9619799999999998  1.0000
  C   C340      1.0  0.014019999999999998  0.51387  0.55154  1.0000
  C   C341      1.0  0.5944899999999997  0.15207  0.62213  1.0000
  C   C342      1.0  0.19191  0.6241500000000002  0.47428  1.0000
  C   C343      1.0  0.9246599999999998  0.04002  0.2865  1.0000
  C   C344      1.0  0.22436  0.8742800000000002  0.05813999999999998  1.0000
  C   C345      1.0  0.9661399999999998  0.98144  0.81877  1.0000
  C   C346      1.0  0.2513  0.35591  0.57268  1.0000
  C   C347      1.0  0.7487  0.8559100000000002  0.92731  1.0000
  C   C348      1.0  0.31281  0.64438  0.8665399999999998  1.0000
  C   C349      1.0  0.80166  0.73627  0.7641199999999998  1.0000
  C   C350      1.0  0.23586999999999994  0.30167  0.7637299999999998  1.0000
  C   C351      1.0  0.6193799999999998  0.35398  0.27462  1.0000
  C   C352      1.0  0.45452  0.6536600000000002  0.8877799999999998  1.0000
  C   C353      1.0  0.20990999999999999  0.6744500000000002  0.53648  1.0000
  C   C354      1.0  0.2865  0.9246600000000003  0.04002  1.0000
  C   C355      1.0  0.8790799999999998  0.16196  0.8418  1.0000
  C   C356      1.0  0.9558999999999997  0.07578000000000003  0.89989  1.0000
  C   C357      1.0  0.16465  0.46198000000000006  0.77329  1.0000
  C   C358      1.0  0.5753399999999997  0.95999  0.7865  1.0000
  C   C359      1.0  0.4219699999999999  0.57979  0.35054999999999986  1.0000
  C   C360      1.0  0.20641  0.91396  0.03041  1.0000
  C   C361      1.0  0.35054999999999986  0.42197  0.57978  1.0000
  C   C362      1.0  0.038019999999999984  0.22671000000000005  0.66465  1.0000
  C   C363      1.0  0.42538  0.94713  0.16237999999999994  1.0000
  C   C364      1.0  0.023929999999999993  0.7807  0.08028  1.0000
  C   C365      1.0  0.23255999999999993  0.7009200000000002  0.22923999999999994  1.0000
  C   C366      1.0  0.5528699999999999  0.8376300000000002  0.92538  1.0000
  C   C367      1.0  0.79559  0.63756  0.90366  1.0000
  C   C368      1.0  0.8463499999999998  0.11222000000000003  0.95452  1.0000
  C   C369      1.0  0.2807  0.4197200000000001  0.9760699999999998  1.0000
  C   C370      1.0  0.05176  0.4520200000000001  0.8216299999999997  1.0000
  C   C371      1.0  0.013859999999999997  0.9484600000000002  0.9859699999999998  1.0000
  C   C372      1.0  0.6940399999999998  0.17064  0.37127  1.0000
  C   C373      1.0  0.7253699999999997  0.11938000000000003  0.14601999999999996  1.0000
  C   C374      1.0  0.14437  0.63346  0.68719  1.0000
  C   C375      1.0  0.10009999999999997  0.45590000000000014  0.42422  1.0000
  C   C376      1.0  0.84344  0.3883100000000001  0.6253099999999998  1.0000
  C   C377      1.0  0.8257499999999998  0.20592  0.3501799999999999  1.0000
  C   C378      1.0  0.93112  0.7684700000000002  0.7838099999999998  1.0000
  C   C379      1.0  0.00155  0.7558600000000002  0.18072999999999995  1.0000
  C   C380      1.0  0.86158  0.5931600000000001  0.8749199999999998  1.0000
  C   C381      1.0  0.13841999999999993  0.09315  0.62507  1.0000
  C   C382      1.0  0.3539799999999999  0.27463  0.6193799999999998  1.0000
  C   C383      1.0  0.34470999999999996  0.42616  0.6262  1.0000
  C   C384      1.0  0.08604  0.53041  0.29359  1.0000
  C   C385      1.0  0.15655  0.8883100000000003  0.87468  1.0000
  C   C386      1.0  0.06283  0.11612  0.6065099999999999  1.0000
  C   C387      1.0  0.69219  0.72181  0.85853  1.0000
  C   C388      1.0  0.9563399999999997  0.28041000000000005  0.3361  1.0000
  C   C389      1.0  0.68122  0.033860000000000015  0.4814299999999999  1.0000
  C   C390      1.0  0.01857  0.31878  0.53386  1.0000
  C   C391      1.0  0.6212799999999998  0.07938000000000003  0.44403  1.0000
  C   C392      1.0  0.97938  0.95103  0.01756  1.0000
  C   C393      1.0  0.13754999999999995  0.5963400000000002  0.20439999999999994  1.0000
  C   C394      1.0  0.36653999999999987  0.18719  0.35563  1.0000
  C   C395      1.0  0.6919099999999998  0.8758600000000002  0.52571  1.0000
  C   C396      1.0  0.76743  0.20092000000000004  0.27076  1.0000
  C   C397      1.0  0.08861  0.6971000000000003  0.67548  1.0000
  C   C398      1.0  0.26413  0.6983300000000002  0.26373  1.0000
  C   C399      1.0  0.42062  0.5559700000000001  0.12129  1.0000
  C   C400      1.0  0.8303899999999999  0.030730000000000007  0.22601  1.0000
  C   C401      1.0  0.19404  0.3293600000000001  0.62872  1.0000
  C   C402      1.0  0.17424  0.7059300000000002  0.14982  1.0000
  C   C403      1.0  0.82555  0.46352000000000004  0.70991  1.0000
  C   C404      1.0  0.4984499999999999  0.24415000000000003  0.6807199999999998  1.0000
  C   C405      1.0  0.6725599999999999  0.89999  0.3300599999999999  1.0000
  C   C406      1.0  0.52815  0.44215  0.10860999999999998  1.0000
  C   C407      1.0  0.28381  0.5688800000000003  0.23153  1.0000
  C   C408      1.0  0.11612  0.60651  0.06283  1.0000
  C   C409      1.0  0.50137  0.6772800000000002  0.10591  1.0000
  C   C410      1.0  0.7807  0.08028000000000003  0.023929999999999993  1.0000
  C   C411      1.0  0.4752399999999999  0.3960500000000001  0.13065999999999997  1.0000
  C   C412      1.0  0.12414999999999997  0.025720000000000007  0.80808  1.0000
  C   C413      1.0  0.42422  0.1001  0.4558999999999999  1.0000
  C   C414      1.0  0.79892  0.80092  0.07061999999999997  1.0000
  C   C415      1.0  0.32575  0.2940800000000001  0.64982  1.0000
  C   C416      1.0  0.08768999999999998  0.62981  0.09197999999999999  1.0000
  C   C417      1.0  0.9861299999999997  0.4484600000000001  0.51402  1.0000
  C   C418      1.0  0.01756  0.97939  0.9510299999999998  1.0000
  C   C419      1.0  0.13346  0.8128100000000003  0.85563  1.0000
  C   C420      1.0  0.0496  0.40816000000000013  0.6153799999999998  1.0000
  C   C421      1.0  0.67728  0.10591000000000002  0.50137  1.0000
  C   C422      1.0  0.9307  0.005750000000000001  0.24848  1.0000
  C   C423      1.0  0.05154  0.48598000000000013  0.48613  1.0000
  C   C424      1.0  0.44846  0.51403  0.9861299999999997  1.0000
  C   C425      1.0  0.66993  0.17257000000000006  0.60001  1.0000
  C   C426      1.0  0.8882999999999998  0.8746900000000002  0.15655  1.0000
  C   C427      1.0  0.9139499999999998  0.030410000000000006  0.20641  1.0000
  C   C428      1.0  0.6536499999999997  0.88779  0.45452  1.0000
  C   C429      1.0  0.96352  0.7900900000000002  0.17445  1.0000
  C   C430      1.0  0.07460999999999997  0.05287  0.6623799999999997  1.0000
  C   C431      1.0  0.99862  0.3227200000000001  0.60591  1.0000
  C   C432      1.0  0.8749199999999998  0.8615800000000001  0.59315  1.0000
  C   C433      1.0  0.7756299999999998  0.37428  0.44185  1.0000
  C   C434      1.0  0.70041  0.13464000000000007  0.3418299999999999  1.0000
  C   C435      1.0  0.34793  0.3778700000000001  0.09449  1.0000
  C   C436      1.0  0.8447099999999997  0.07384  0.3738  1.0000
  C   C437      1.0  0.23153  0.28382  0.56887  1.0000
  C   C438      1.0  0.3255499999999999  0.03648000000000001  0.29008  1.0000
  C   C439      1.0  0.6742399999999997  0.7940800000000002  0.85017  1.0000
  C   C440      1.0  0.30167  0.7637400000000002  0.23586999999999994  1.0000
  C   C441      1.0  0.6334599999999998  0.6871900000000002  0.14437  1.0000
  C   C442      1.0  0.42731  0.7513000000000002  0.14409  1.0000
  C   C443      1.0  0.3913899999999999  0.4718500000000001  0.94214  1.0000
  C   C444      1.0  0.39997999999999995  0.16994000000000006  0.32744  1.0000
  C   C445      1.0  0.3787099999999999  0.57938  0.05595999999999999  1.0000
  C   C446      1.0  0.92938  0.2989300000000001  0.69908  1.0000
  C   C447      1.0  0.31877  0.53386  0.01857  1.0000
  C   C448      1.0  0.5304  0.29359  0.08604  1.0000
  C   C449      1.0  0.07534  0.54002  0.21348999999999996  1.0000
  C   C450      1.0  0.6695999999999998  0.9692700000000002  0.7260099999999998  1.0000
  C   C451      1.0  0.8665399999999998  0.31281  0.64437  1.0000
  C   C452      1.0  0.53648  0.20992000000000005  0.6744399999999998  1.0000
  C   C453      1.0  0.90191  0.8446100000000002  0.62751  1.0000
  C   C454      1.0  0.77075  0.7325700000000003  0.79908  1.0000
  C   C455      1.0  0.9484499999999998  0.9859800000000002  0.013869999999999997  1.0000
  C   C456      1.0  0.27819  0.3585300000000001  0.8077999999999997  1.0000
  C   C457      1.0  0.08535999999999998  0.5233  0.712  1.0000
  C   C458      1.0  0.16959999999999995  0.53074  0.27399  1.0000
  C   C459      1.0  0.5919799999999997  0.4123100000000001  0.37019  1.0000
  C   C460      1.0  0.3418  0.6209400000000002  0.8380299999999999  1.0000
  C   C461      1.0  0.7512899999999998  0.14409000000000005  0.42731999999999987  1.0000
  C   C462      1.0  0.05595999999999999  0.37872  0.57938  1.0000
  C   C463      1.0  0.41230999999999995  0.37019  0.5919799999999997  1.0000
  C   C464      1.0  0.90685  0.12508000000000002  0.36158  1.0000
  C   C465      1.0  0.3501799999999999  0.8257600000000003  0.20592  1.0000
  C   C466      1.0  0.89604  0.3693400000000001  0.5247499999999999  1.0000
  C   C467      1.0  0.57803  0.07979000000000001  0.14944  1.0000
  C   C468      1.0  0.92196  0.9202200000000001  0.64944  1.0000
  C   C469      1.0  0.37907  0.33804  0.1582  1.0000
  C   C470      1.0  0.8216299999999997  0.05176  0.4520099999999999  1.0000
  C   C471      1.0  0.09808  0.34461  0.87248  1.0000
  C   C472      1.0  0.058149999999999986  0.22437000000000007  0.8742699999999998  1.0000
  C   C473      1.0  0.14409  0.4273200000000001  0.7512899999999998  1.0000
  C   C474      1.0  0.55785  0.6086100000000001  0.97184  1.0000
  C   C475      1.0  0.65528  0.9261600000000002  0.8737899999999997  1.0000
  C   C476      1.0  0.24413999999999994  0.6807300000000002  0.4984499999999999  1.0000
  C   C477      1.0  0.62751  0.9019200000000003  0.8446099999999997  1.0000
  C   C478      1.0  0.12981  0.4080300000000001  0.9123099999999997  1.0000
  C   C479      1.0  0.8376199999999998  0.92539  0.5528699999999999  1.0000
  C   C480      1.0  0.15539  0.12752000000000002  0.59808  1.0000
  C   C481      1.0  0.40802  0.9123100000000002  0.12981  1.0000
  C   C482      1.0  0.21348999999999996  0.07534  0.54002  1.0000
  C   C483      1.0  0.82364  0.09428  0.8764999999999997  1.0000
  C   C484      1.0  0.7292399999999998  0.26744000000000007  0.29907999999999996  1.0000
  C   C485      1.0  0.04799  0.17837000000000003  0.55176  1.0000
  C   C486      1.0  0.75585  0.18073  0.00155  1.0000
  C   C487      1.0  0.7010699999999997  0.19908  0.57062  1.0000
  C   C488      1.0  0.35853  0.8078100000000003  0.27819  1.0000
  C   C489      1.0  0.13463999999999995  0.34184  0.70041  1.0000
  C   C490      1.0  0.51386  0.5515400000000003  0.014019999999999998  1.0000
  C   C491      1.0  0.024749999999999994  0.60396  0.6306599999999998  1.0000
  C   C492      1.0  0.45998  0.7135000000000002  0.42465999999999987  1.0000
  C   C493      1.0  0.09197999999999999  0.08769  0.62981  1.0000
  C   C494      1.0  0.64982  0.3257600000000001  0.29408  1.0000
  C   C495      1.0  0.45634  0.21960000000000005  0.6638899999999999  1.0000
  C   C496      1.0  0.10591  0.50138  0.67728  1.0000
  C   C497      1.0  0.12212999999999997  0.9055100000000001  0.8479299999999997  1.0000
  C   C498      1.0  0.67064  0.12873  0.30596  1.0000
  C   C499      1.0  0.9510299999999998  0.01756  0.97938  1.0000
  C   C500      1.0  0.59315  0.87493  0.86158  1.0000
  C   C501      1.0  0.18122  0.4661400000000001  0.5185599999999999  1.0000
  C   C502      1.0  0.03041  0.20641000000000007  0.9139499999999998  1.0000
  C   C503      1.0  0.39409  0.49863  0.17727999999999994  1.0000
  C   C504      1.0  0.83006  0.8274400000000002  0.10001  1.0000
  C   C505      1.0  0.3361  0.9563500000000003  0.2803999999999999  1.0000
  C   C506      1.0  0.03386  0.4814400000000001  0.68122  1.0000
  C   C507      1.0  0.14147  0.19220000000000007  0.77819  1.0000
  C   C508      1.0  0.16195999999999994  0.84181  0.8790699999999998  1.0000
  C   C509      1.0  0.97428  0.3080900000000001  0.37584999999999996  1.0000
  C   C510      1.0  0.50155  0.7441500000000002  0.8192699999999998  1.0000
  C   C511      1.0  0.52571  0.6919200000000002  0.8758499999999998  1.0000
  C   C512      1.0  0.57062  0.7010800000000003  0.19907999999999995  1.0000
  C   C513      1.0  0.4421499999999999  0.10861  0.52815  1.0000
  C   C514      1.0  0.3693399999999999  0.52476  0.89604  1.0000
  C   C515      1.0  0.32272  0.6059100000000002  0.99862  1.0000
  C   C516      1.0  0.028149999999999994  0.05785  0.8913899999999998  1.0000
  C   C517      1.0  0.20040999999999995  0.36536000000000013  0.6581599999999997  1.0000
  C   C518      1.0  0.54366  0.7196  0.8360999999999997  1.0000
  C   C519      1.0  0.87787  0.40551  0.6520599999999999  1.0000
  C   C520      1.0  0.97184  0.5578600000000001  0.6086099999999998  1.0000
  C   C521      1.0  0.84183  0.7995900000000002  0.86536  1.0000
  C   C522      1.0  0.07979  0.14945  0.57803  1.0000
  C   C523      1.0  0.3960499999999999  0.13066  0.47525  1.0000
  C   C524      1.0  0.8227199999999998  0.8940900000000003  0.00137  1.0000
  C   C525      1.0  0.4767  0.21200000000000005  0.41463  1.0000
  C   C526      1.0  0.92422  0.3999  0.5440999999999999  1.0000
  C   C527      1.0  0.07578  0.8999000000000003  0.9558899999999998  1.0000
  C   C528      1.0  0.12873  0.30596  0.67064  1.0000
  C   C529      1.0  0.66465  0.03802  0.22671  1.0000
  C   C530      1.0  0.7325599999999998  0.7990900000000002  0.77075  1.0000
  C   C531      1.0  0.6287299999999998  0.19404000000000005  0.32936  1.0000
  C   C532      1.0  0.9599799999999998  0.7865100000000003  0.5753399999999997  1.0000
  C   C533      1.0  0.04547  0.3463500000000001  0.3877799999999999  1.0000
  C   C534      1.0  0.15818999999999994  0.37909  0.3380399999999999  1.0000
  C   C535      1.0  0.64602  0.7746300000000003  0.8806199999999997  1.0000
  C   C536      1.0  0.6783699999999998  0.94824  0.95201  1.0000
  C   C537      1.0  0.4986299999999999  0.17728  0.39409  1.0000
  C   C538      1.0  0.3653599999999999  0.6581700000000001  0.20040999999999995  1.0000
  C   C539      1.0  0.92615  0.8738000000000002  0.65528  1.0000
  C   C540      1.0  0.20439999999999994  0.13756  0.59634  1.0000
  C   C541      1.0  0.33534  0.5380200000000003  0.27329  1.0000
  C   C542      1.0  0.07937999999999998  0.44404  0.6212799999999998  1.0000
  C   C543      1.0  0.77462  0.8806200000000002  0.64602  1.0000
  C   C544      1.0  0.54896  0.9824500000000003  0.47937999999999986  1.0000
  C   C545      1.0  0.47183999999999987  0.9421500000000003  0.3913899999999999  1.0000
  C   C546      1.0  0.4471299999999999  0.3376200000000001  0.57461  1.0000
  C   C547      1.0  0.79008  0.17445000000000005  0.96352  1.0000
  C   C548      1.0  0.59634  0.2044  0.13754999999999995  1.0000
  C   C549      1.0  0.58861  0.8029000000000002  0.32451  1.0000
  C   C550      1.0  0.11168999999999997  0.3747000000000001  0.3434399999999999  1.0000
  C   C551      1.0  0.89989  0.9559000000000002  0.07578  1.0000
  C   C552      1.0  0.26743  0.29909000000000013  0.7292399999999998  1.0000
  C   C553      1.0  0.63842  0.40685  0.37491999999999986  1.0000
  C   C554      1.0  0.8737899999999997  0.65529  0.92615  1.0000
  C   C555      1.0  0.60591  0.9986300000000002  0.32272  1.0000
  C   C556      1.0  0.6241499999999998  0.4742900000000001  0.19191  1.0000
  C   C557      1.0  0.9942499999999997  0.7484900000000001  0.5693  1.0000
  C   C558      1.0  0.06887  0.26847  0.7161799999999998  1.0000
  C   C559      1.0  0.85563  0.13347  0.81281  1.0000
  C   C560      1.0  0.82451  0.9113900000000003  0.19709999999999994  1.0000
  C   C561      1.0  0.18072999999999995  0.00155  0.75585  1.0000
  C   C562      1.0  0.52061  0.048970000000000014  0.51756  1.0000
  C   C563      1.0  0.14944  0.57803  0.07979  1.0000
  C   C564      1.0  0.3418299999999999  0.7004200000000003  0.13463999999999995  1.0000
  C   C565      1.0  0.35563  0.36654000000000003  0.18719  1.0000
  C   C566      1.0  0.62981  0.09198000000000003  0.08768999999999998  1.0000
  C   C567      1.0  0.0441  0.5757800000000002  0.6000999999999997  1.0000
  C   C568      1.0  0.25151  0.0693  0.50575  1.0000
  C   C569      1.0  0.00137  0.8227200000000002  0.8940899999999998  1.0000
  C   C570      1.0  0.5628299999999998  0.38388  0.3934899999999999  1.0000
  C   C571      1.0  0.9202099999999998  0.64945  0.92196  1.0000
  C   C572      1.0  0.8080899999999998  0.12415000000000001  0.025719999999999996  1.0000
  C   C573      1.0  0.34633999999999987  0.38779000000000013  0.04548  1.0000
  C   C574      1.0  0.40191  0.6553900000000003  0.37248  1.0000
  C   C575      1.0  0.45039  0.5918500000000002  0.11537999999999997  1.0000
  C   C576      1.0  0.9081499999999998  0.88462  0.9503899999999997  1.0000
  N   N1        1.0  0.9804299999999998  0.82019  0.13855  1.0000
  N   N2        1.0  0.7396799999999998  0.16386  0.20339  1.0000
  N   N3        1.0  0.5860799999999998  0.010280000000000001  0.54669  1.0000
  N   N4        1.0  0.40736  0.13539000000000007  0.5202  1.0000
  N   N5        1.0  0.8201799999999998  0.13855  0.9804299999999998  1.0000
  N   N6        1.0  0.52573  0.15764000000000006  0.42692  1.0000
  N   N7        1.0  0.7033899999999997  0.76032  0.8361399999999998  1.0000
  N   N8        1.0  0.86461  0.0202  0.09264  1.0000
  N   N9        1.0  0.4594  0.48926  0.21405  1.0000
  N   N10       1.0  0.0406  0.5107400000000002  0.7140499999999999  1.0000
  N   N11       1.0  0.76085  0.20946000000000006  0.4639399999999999  1.0000
  N   N12       1.0  0.28594  0.5406000000000001  0.9892599999999998  1.0000
  N   N13       1.0  0.01028  0.5466900000000002  0.5860799999999998  1.0000
  N   N14       1.0  0.17694  0.40763  0.72426  1.0000
  N   N15       1.0  0.84266  0.27034  0.38524999999999987  1.0000
  N   N16       1.0  0.73029  0.38869000000000004  0.42991  1.0000
  N   N17       1.0  0.7603099999999998  0.8361500000000002  0.7033899999999997  1.0000
  N   N18       1.0  0.7391399999999998  0.7905400000000002  0.96394  1.0000
  N   N19       1.0  0.9269199999999997  0.9742800000000003  0.8423599999999998  1.0000
  N   N20       1.0  0.6576399999999998  0.07308  0.4742699999999999  1.0000
  N   N21       1.0  0.04669  0.91393  0.9897099999999998  1.0000
  N   N22       1.0  0.51028  0.9533100000000002  0.41392  1.0000
  N   N23       1.0  0.4076199999999999  0.72427  0.17694  1.0000
  N   N24       1.0  0.90736  0.3646200000000001  0.4797999999999999  1.0000
  N   N25       1.0  0.65734  0.72967  0.88524  1.0000
  N   N26       1.0  0.61475  0.34266  0.22966  1.0000
  N   N27       1.0  0.2905399999999999  0.53606  0.26085  1.0000
  N   N28       1.0  0.7696999999999998  0.61131  0.9299099999999998  1.0000
  N   N29       1.0  0.96394  0.73915  0.79053  1.0000
  N   N30       1.0  0.2696999999999999  0.88869  0.07009  1.0000
  N   N31       1.0  0.72426  0.17695  0.4076199999999999  1.0000
  N   N32       1.0  0.4804299999999999  0.67982  0.86145  1.0000
  N   N33       1.0  0.9892599999999998  0.28595  0.5406  1.0000
  N   N34       1.0  0.26085  0.2905400000000001  0.53605  1.0000
  N   N35       1.0  0.9593999999999999  0.010740000000000003  0.7859399999999997  1.0000
  N   N36       1.0  0.27572999999999986  0.6769500000000002  0.09237999999999998  1.0000
  N   N37       1.0  0.57008  0.2303  0.11130999999999998  1.0000
  N   N38       1.0  0.8423599999999998  0.9269300000000003  0.9742699999999997  1.0000
  N   N39       1.0  0.54669  0.58608  0.01028  1.0000
  N   N40       1.0  0.36145  0.019570000000000004  0.3201799999999999  1.0000
  N   N41       1.0  0.13538  0.5202  0.40736  1.0000
  N   N42       1.0  0.98972  0.04669  0.9139199999999997  1.0000
  N   N43       1.0  0.019569999999999994  0.3201900000000001  0.36145  1.0000
  N   N44       1.0  0.09264  0.86462  0.0202  1.0000
  N   N45       1.0  0.08608  0.4897200000000001  0.45331  1.0000
  N   N46       1.0  0.79053  0.9639500000000002  0.73915  1.0000
  N   N47       1.0  0.7859399999999997  0.9594000000000003  0.010739999999999996  1.0000
  N   N48       1.0  0.3361399999999999  0.79661  0.23968999999999993  1.0000
  N   N49       1.0  0.0202  0.09264  0.86461  1.0000
  N   N50       1.0  0.010739999999999996  0.7859500000000003  0.9593999999999999  1.0000
  N   N51       1.0  0.5202  0.40736  0.13538  1.0000
  N   N52       1.0  0.63854  0.5195700000000001  0.17981999999999995  1.0000
  N   N53       1.0  0.59238  0.22426000000000001  0.32306  1.0000
  N   N54       1.0  0.48925999999999986  0.21406000000000006  0.4594  1.0000
  N   N55       1.0  0.3423599999999999  0.5730800000000003  0.02573  1.0000
  N   N56       1.0  0.53606  0.26085  0.2905399999999999  1.0000
  N   N57       1.0  0.29661  0.26032000000000005  0.6638599999999998  1.0000
  N   N58       1.0  0.88869  0.07009  0.2696999999999999  1.0000
  N   N59       1.0  0.07009  0.2697100000000001  0.88869  1.0000
  N   N60       1.0  0.27033  0.38525  0.84266  1.0000
  N   N61       1.0  0.7757299999999998  0.82306  0.90762  1.0000
  N   N62       1.0  0.38869  0.42992  0.73029  1.0000
  N   N63       1.0  0.23914999999999995  0.7094600000000002  0.03606  1.0000
  N   N64       1.0  0.8361399999999998  0.7034  0.7603099999999998  1.0000
  N   N65       1.0  0.61131  0.9299200000000002  0.7696999999999998  1.0000
  N   N66       1.0  0.20945999999999995  0.46395  0.76085  1.0000
  N   N67       1.0  0.22966  0.61476  0.34266  1.0000
  N   N68       1.0  0.11475  0.15734  0.77033  1.0000
  N   N69       1.0  0.8230499999999997  0.9076300000000003  0.7757299999999998  1.0000
  N   N70       1.0  0.67694  0.09238000000000002  0.27574  1.0000
  N   N71       1.0  0.48972  0.4533100000000001  0.08608  1.0000
  N   N72       1.0  0.63538  0.9798  0.59264  1.0000
  N   N73       1.0  0.7296599999999998  0.8852500000000002  0.65734  1.0000
  N   N74       1.0  0.36461  0.4798000000000001  0.9073499999999998  1.0000
  N   N75       1.0  0.70946  0.03606  0.23914999999999995  1.0000
  N   N76       1.0  0.3201799999999999  0.3614500000000001  0.019569999999999994  1.0000
  N   N77       1.0  0.03606  0.23915000000000006  0.70946  1.0000
  N   N78       1.0  0.23968999999999993  0.3361400000000001  0.7966  1.0000
  N   N79       1.0  0.67981  0.8614600000000002  0.4804299999999999  1.0000
  N   N80       1.0  0.3230499999999999  0.5923800000000001  0.22426  1.0000
  N   N81       1.0  0.9533099999999998  0.41392  0.51028  1.0000
  N   N82       1.0  0.9299099999999998  0.7697100000000002  0.61131  1.0000
  N   N83       1.0  0.4797999999999999  0.9073600000000003  0.36461  1.0000
  N   N84       1.0  0.17980999999999997  0.63855  0.51957  1.0000
  N   N85       1.0  0.38524999999999987  0.84266  0.27033  1.0000
  N   N86       1.0  0.77033  0.11475000000000002  0.15734  1.0000
  N   N87       1.0  0.13853999999999994  0.9804400000000002  0.8201799999999998  1.0000
  N   N88       1.0  0.5406  0.9892700000000002  0.28594  1.0000
  N   N89       1.0  0.45331  0.08608  0.48972  1.0000
  N   N90       1.0  0.11130999999999998  0.57009  0.23029  1.0000
  N   N91       1.0  0.15763999999999995  0.4269300000000001  0.52573  1.0000
  N   N92       1.0  0.15734  0.77034  0.11475  1.0000
  N   N93       1.0  0.86145  0.48043  0.67981  1.0000
  N   N94       1.0  0.4639399999999999  0.76085  0.20945999999999995  1.0000
  N   N95       1.0  0.7140499999999999  0.0406  0.51074  1.0000
  N   N96       1.0  0.20339  0.73969  0.16386  1.0000
  N   N97       1.0  0.9798  0.5926400000000002  0.63538  1.0000
  N   N98       1.0  0.07306999999999997  0.47427000000000014  0.6576399999999998  1.0000
  N   N99       1.0  0.02573  0.3423600000000001  0.57307  1.0000
  N   N100      1.0  0.9139199999999997  0.9897200000000003  0.04669  1.0000
  N   N101      1.0  0.57307  0.02573  0.3423599999999999  1.0000
  N   N102      1.0  0.7966  0.23969  0.3361399999999999  1.0000
  N   N103      1.0  0.51073  0.7140600000000003  0.0406  1.0000
  N   N104      1.0  0.34266  0.22967000000000007  0.61475  1.0000
  N   N105      1.0  0.21405  0.4594000000000001  0.48925999999999986  1.0000
  N   N106      1.0  0.09237999999999998  0.27574  0.67694  1.0000
  N   N107      1.0  0.26031  0.66386  0.29661  1.0000
  N   N108      1.0  0.23029  0.11131000000000003  0.57008  1.0000
  N   N109      1.0  0.6638599999999998  0.29661  0.26031  1.0000
  N   N110      1.0  0.16386  0.20340000000000005  0.7396799999999998  1.0000
  N   N111      1.0  0.42692  0.52573  0.15763999999999995  1.0000
  N   N112      1.0  0.42991  0.7303000000000002  0.38869  1.0000
  N   N113      1.0  0.88524  0.65734  0.7296599999999998  1.0000
  N   N114      1.0  0.51957  0.17982000000000006  0.63854  1.0000
  N   N115      1.0  0.22426  0.32306  0.59238  1.0000
  N   N116      1.0  0.59264  0.63539  0.9798  1.0000
  N   N117      1.0  0.41392  0.5102900000000002  0.9533099999999998  1.0000
  N   N118      1.0  0.9742699999999997  0.8423700000000002  0.9269199999999997  1.0000
  N   N119      1.0  0.4742699999999999  0.6576400000000002  0.07306999999999997  1.0000
  N   N120      1.0  0.90762  0.7757400000000002  0.8230499999999997  1.0000
  O   O1        1.0  0.6887199999999998  0.9793200000000002  0.68847  1.0000
  O   O2        1.0  0.061529999999999994  0.7708100000000002  0.061199999999999984  1.0000
  O   O3        1.0  0.10198999999999997  0.027420000000000003  0.68151  1.0000
  O   O4        1.0  0.30937  0.4273500000000001  0.24292999999999995  1.0000
  O   O5        1.0  0.23183999999999994  0.5655100000000002  0.5133  1.0000
  O   O6        1.0  0.46838999999999986  0.9457500000000002  0.16853  1.0000
  O   O7        1.0  0.4705499999999999  0.6317  0.9201  1.0000
  O   O8        1.0  0.53161  0.4457500000000001  0.33147  1.0000
  O   O9        1.0  0.9388  0.56154  0.72919  1.0000
  O   O10       1.0  0.8227199999999998  0.061730000000000014  0.4934499999999999  1.0000
  O   O11       1.0  0.52742  0.8184900000000003  0.89801  1.0000
  O   O12       1.0  0.81153  0.31128  0.4793199999999999  1.0000
  O   O13       1.0  0.5638999999999997  0.2976  0.4801399999999999  1.0000
  O   O14       1.0  0.7230799999999997  0.6479800000000002  0.07047  1.0000
  O   O15       1.0  0.57046  0.77692  0.35202  1.0000
  O   O16       1.0  0.98669  0.76817  0.0655  1.0000
  O   O17       1.0  0.5133  0.23184  0.5655  1.0000
  O   O18       1.0  0.03161  0.05426000000000002  0.66852  1.0000
  O   O19       1.0  0.27043  0.4545900000000001  0.18429999999999994  1.0000
  O   O20       1.0  0.07265  0.75707  0.80937  1.0000
  O   O21       1.0  0.4801399999999999  0.5639100000000002  0.29759  1.0000
  O   O22       1.0  0.73671  0.31566  0.48182  1.0000
  O   O23       1.0  0.6316899999999998  0.9201100000000002  0.4705499999999999  1.0000
  O   O24       1.0  0.045409999999999985  0.81571  0.77042  1.0000
  O   O25       1.0  0.30451  0.21833  0.4184699999999999  1.0000
  O   O26       1.0  0.8817799999999998  0.7795300000000002  0.6699  1.0000
  O   O27       1.0  0.16989999999999994  0.61822  0.22046999999999994  1.0000
  O   O28       1.0  0.01986  0.4361000000000001  0.79759  1.0000
  O   O29       1.0  0.4793199999999999  0.8115300000000002  0.3112699999999999  1.0000
  O   O30       1.0  0.8093799999999998  0.07265  0.75707  1.0000
  O   O31       1.0  0.05425  0.6685300000000002  0.03161  1.0000
  O   O32       1.0  0.92735  0.25707  0.6906199999999998  1.0000
  O   O33       1.0  0.4344899999999999  0.013310000000000002  0.26816  1.0000
  O   O34       1.0  0.08153999999999997  0.6954900000000003  0.71832  1.0000
  O   O35       1.0  0.55425  0.8314800000000002  0.96839  1.0000
  O   O36       1.0  0.6182099999999999  0.22047000000000003  0.16989999999999994  1.0000
  O   O37       1.0  0.02944  0.36831000000000014  0.42009999999999986  1.0000
  O   O38       1.0  0.18429  0.2704300000000001  0.45458  1.0000
  O   O39       1.0  0.28167  0.5815400000000002  0.8045099999999997  1.0000
  O   O40       1.0  0.9457399999999998  0.16853000000000007  0.46838999999999986  1.0000
  O   O41       1.0  0.35202  0.57047  0.7769199999999998  1.0000
  O   O42       1.0  0.43827  0.50655  0.32272  1.0000
  O   O43       1.0  0.3301  0.38179000000000013  0.7204699999999998  1.0000
  O   O44       1.0  0.31848  0.60199  0.4725799999999999  1.0000
  O   O45       1.0  0.7204699999999998  0.3301000000000001  0.38178  1.0000
  O   O46       1.0  0.22046999999999994  0.1699  0.6182099999999999  1.0000
  O   O47       1.0  0.7024  0.9801400000000002  0.93609  1.0000
  O   O48       1.0  0.97055  0.86831  0.07989  1.0000
  O   O49       1.0  0.73183  0.9345000000000002  0.48669  1.0000
  O   O50       1.0  0.018179999999999995  0.2632900000000001  0.81565  1.0000
  O   O51       1.0  0.8045099999999997  0.28168  0.5815299999999998  1.0000
  O   O52       1.0  0.39801  0.9725800000000002  0.18151  1.0000
  O   O53       1.0  0.14796999999999993  0.4295400000000001  0.2769199999999999  1.0000
  O   O54       1.0  0.76816  0.06551  0.98669  1.0000
  O   O55       1.0  0.26328  0.8156600000000003  0.018179999999999995  1.0000
  O   O56       1.0  0.5294399999999999  0.1317  0.5798899999999998  1.0000
  O   O57       1.0  0.51818  0.23671  0.18433999999999995  1.0000
  O   O58       1.0  0.8156999999999998  0.77043  0.04541999999999999  1.0000
  O   O59       1.0  0.97932  0.6884700000000002  0.6887199999999998  1.0000
  O   O60       1.0  0.6772699999999998  0.9382700000000003  0.9934499999999998  1.0000
  O   O61       1.0  0.4388  0.9384700000000002  0.2708  1.0000
  O   O62       1.0  0.45458  0.18430000000000005  0.27043  1.0000
  O   O63       1.0  0.69548  0.7183300000000001  0.08153  1.0000
  O   O64       1.0  0.5611899999999997  0.43847  0.22918999999999995  1.0000
  O   O65       1.0  0.8520199999999999  0.92954  0.22307999999999995  1.0000
  O   O66       1.0  0.66852  0.03161  0.05425  1.0000
  O   O67       1.0  0.19547999999999993  0.78168  0.9184599999999998  1.0000
  O   O68       1.0  0.4273499999999999  0.24293000000000006  0.30937999999999993  1.0000
  O   O69       1.0  0.9384599999999997  0.27081  0.4388  1.0000
  O   O70       1.0  0.75707  0.80938  0.07265  1.0000
  O   O71       1.0  0.00655  0.17728  0.56173  1.0000
  O   O72       1.0  0.2795299999999999  0.8301000000000001  0.11820999999999997  1.0000
  O   O73       1.0  0.78167  0.9184700000000002  0.19547999999999993  1.0000
  O   O74       1.0  0.4934499999999999  0.8227200000000002  0.061729999999999986  1.0000
  O   O75       1.0  0.8300999999999998  0.11822000000000003  0.2795299999999999  1.0000
  O   O76       1.0  0.9344899999999998  0.48670000000000013  0.73183  1.0000
  O   O77       1.0  0.3683  0.4201100000000001  0.02944  1.0000
  O   O78       1.0  0.13169  0.5799000000000002  0.5294399999999999  1.0000
  O   O79       1.0  0.17727999999999994  0.5617300000000002  0.00655  1.0000
  O   O80       1.0  0.72919  0.9388100000000003  0.56153  1.0000
  O   O81       1.0  0.2708  0.4388100000000001  0.9384599999999997  1.0000
  O   O82       1.0  0.18151  0.3980200000000001  0.97258  1.0000
  O   O83       1.0  0.9801299999999997  0.9361000000000003  0.7024  1.0000
  O   O84       1.0  0.93609  0.70241  0.9801299999999997  1.0000
  O   O85       1.0  0.32272  0.4382700000000001  0.50655  1.0000
  O   O86       1.0  0.061729999999999986  0.4934600000000001  0.8227199999999998  1.0000
  O   O87       1.0  0.68151  0.10199  0.02742  1.0000
  O   O88       1.0  0.21833  0.41848  0.30451  1.0000
  O   O89       1.0  0.9184699999999998  0.19549000000000005  0.78167  1.0000
  O   O90       1.0  0.18847  0.81128  0.02068  1.0000
  O   O91       1.0  0.51986  0.0639  0.20240999999999995  1.0000
  O   O92       1.0  0.60198  0.47258  0.3184899999999999  1.0000
  O   O93       1.0  0.7769199999999998  0.3520200000000001  0.57046  1.0000
  O   O94       1.0  0.9382599999999998  0.9934600000000002  0.6772699999999998  1.0000
  O   O95       1.0  0.57265  0.74293  0.19061999999999996  1.0000
  O   O96       1.0  0.52068  0.31153  0.18872  1.0000
  O   O97       1.0  0.7708  0.06120000000000001  0.061529999999999994  1.0000
  O   O98       1.0  0.29759  0.48014  0.5638999999999997  1.0000
  O   O99       1.0  0.3112699999999999  0.47932  0.81153  1.0000
  O   O100      1.0  0.4384699999999999  0.2292  0.5611899999999997  1.0000
  O   O101      1.0  0.74293  0.19063000000000005  0.57265  1.0000
  O   O102      1.0  0.31153  0.18873000000000006  0.52068  1.0000
  O   O103      1.0  0.7632799999999997  0.6843500000000002  0.9818099999999997  1.0000
  O   O104      1.0  0.56173  0.00655  0.17727999999999994  1.0000
  O   O105      1.0  0.11820999999999997  0.2795300000000001  0.8300999999999998  1.0000
  O   O106      1.0  0.41846  0.3045200000000001  0.21833  1.0000
  O   O107      1.0  0.77952  0.66991  0.8817799999999998  1.0000
  O   O108      1.0  0.02742  0.6815200000000002  0.10198999999999997  1.0000
  O   O109      1.0  0.25707  0.6906300000000001  0.92735  1.0000
  O   O110      1.0  0.97258  0.18151  0.39801  1.0000
  O   O111      1.0  0.72957  0.9545900000000003  0.31569999999999987  1.0000
  O   O112      1.0  0.71833  0.08153  0.69548  1.0000
  O   O113      1.0  0.061199999999999984  0.06153  0.7708  1.0000
  O   O114      1.0  0.79759  0.01986  0.43608999999999987  1.0000
  O   O115      1.0  0.18433999999999995  0.51819  0.23670999999999995  1.0000
  O   O116      1.0  0.89801  0.5274200000000001  0.81848  1.0000
  O   O117      1.0  0.22918999999999995  0.5612000000000003  0.4384699999999999  1.0000
  O   O118      1.0  0.38178  0.7204800000000002  0.3301  1.0000
  O   O119      1.0  0.68429  0.22958  0.54541  1.0000
  O   O120      1.0  0.24292999999999995  0.30938000000000004  0.4273499999999999  1.0000
  O   O121      1.0  0.68847  0.68873  0.97932  1.0000
  O   O122      1.0  0.6699  0.88179  0.77952  1.0000
  O   O123      1.0  0.50655  0.3227200000000001  0.43827  1.0000
  O   O124      1.0  0.5798899999999998  0.52945  0.1317  1.0000
  O   O125      1.0  0.48181  0.7367200000000003  0.31564999999999993  1.0000
  O   O126      1.0  0.20239999999999994  0.5198600000000001  0.0639  1.0000
  O   O127      1.0  0.07046  0.72308  0.64798  1.0000
  O   O128      1.0  0.96839  0.5542600000000002  0.83147  1.0000
  O   O129      1.0  0.43608999999999987  0.7976000000000002  0.01986  1.0000
  O   O130      1.0  0.48669  0.73184  0.9344899999999998  1.0000
  O   O131      1.0  0.0639  0.20241000000000006  0.51986  1.0000
  O   O132      1.0  0.83147  0.9684000000000003  0.55425  1.0000
  O   O133      1.0  0.0655  0.9867  0.76816  1.0000
  O   O134      1.0  0.0133  0.2681600000000001  0.4344899999999999  1.0000
  O   O135      1.0  0.33147  0.53161  0.4457399999999999  1.0000
  O   O136      1.0  0.64798  0.07047  0.7230799999999997  1.0000
  O   O137      1.0  0.42009999999999986  0.02945  0.3683  1.0000
  O   O138      1.0  0.81127  0.020680000000000007  0.18847  1.0000
  O   O139      1.0  0.02068  0.18847000000000005  0.81127  1.0000
  O   O140      1.0  0.18872  0.52068  0.31153  1.0000
  O   O141      1.0  0.5815299999999998  0.8045200000000002  0.28167  1.0000
  O   O142      1.0  0.56153  0.7292  0.9388  1.0000
  O   O143      1.0  0.22956999999999994  0.5454200000000002  0.68429  1.0000
  O   O144      1.0  0.8682999999999998  0.07990000000000003  0.97055  1.0000
  O   O145      1.0  0.9295299999999997  0.22308000000000006  0.8520199999999999  1.0000
  O   O146      1.0  0.6843399999999997  0.9818200000000002  0.7632799999999997  1.0000
  O   O147      1.0  0.6906199999999998  0.92736  0.25707  1.0000
  O   O148      1.0  0.9818099999999997  0.7632900000000002  0.6843399999999997  1.0000
  O   O149      1.0  0.16853  0.4684000000000001  0.9457399999999998  1.0000
  O   O150      1.0  0.23670999999999995  0.18435000000000007  0.51818  1.0000
  O   O151      1.0  0.4295299999999999  0.2769200000000001  0.14798  1.0000
  O   O152      1.0  0.19061999999999996  0.57265  0.74293  1.0000
  O   O153      1.0  0.81565  0.01818  0.26329  1.0000
  O   O154      1.0  0.77043  0.045420000000000016  0.8156999999999998  1.0000
  O   O155      1.0  0.9934499999999998  0.6772800000000002  0.9382599999999998  1.0000
  O   O156      1.0  0.2769199999999999  0.14798  0.4295299999999999  1.0000
  O   O157      1.0  0.5655  0.5133100000000003  0.23183999999999994  1.0000
  O   O158      1.0  0.9201  0.4705600000000001  0.6316899999999998  1.0000
  O   O159      1.0  0.26816  0.4345000000000001  0.013309999999999997  1.0000
  O   O160      1.0  0.07989  0.9705600000000002  0.8682999999999998  1.0000
  O   O161      1.0  0.9545799999999998  0.3157100000000001  0.72957  1.0000
  O   O162      1.0  0.81848  0.89802  0.52742  1.0000
  O   O163      1.0  0.31564999999999993  0.48182000000000014  0.73671  1.0000
  O   O164      1.0  0.4725799999999999  0.3184900000000001  0.60199  1.0000
  O   O165      1.0  0.31569999999999987  0.72958  0.9545799999999998  1.0000
  O   O166      1.0  0.54541  0.6843  0.22956999999999994  1.0000
  O   O167      1.0  0.4457399999999999  0.33148  0.53161  1.0000
  O   O168      1.0  0.22307999999999995  0.85203  0.9295299999999997  1.0000
