data_image0
_chemical_formula_structural       Zn48H288C648O156
_chemical_formula_sum              "Zn48 H288 C648 O156"
_cell_length_a       30.16046
_cell_length_b       30.16022
_cell_length_c       41.94008
_cell_angle_alpha    89.98861
_cell_angle_beta     90.00228000000001
_cell_angle_gamma    119.98805000000002

_symmetry_space_group_name_H-M    'P 1'
_symmetry_Int_Tables_number       1

loop_
  _symmetry_equiv_pos_as_xyz
  'x,y,z'

loop_
  _atom_site_type_symbol
  _atom_site_label
  _atom_site_symmetry_multiplicity
  _atom_site_fract_x
  _atom_site_fract_y
  _atom_site_fract_z
  _atom_site_occupancy
  Zn  Zn1       1.0  0.97319  0.70661  0.026309999999999997  1.0000
  Zn  Zn2       1.0  0.96257  0.59446  0.026580000000000003  1.0000
  Zn  Zn3       1.0  0.012470000000000009  0.6692  0.96735  1.0000
  Zn  Zn4       1.0  0.07341  0.6965  0.03417  1.0000
  Zn  Zn5       1.0  0.29422  0.26777  0.35972  1.0000
  Zn  Zn6       1.0  0.40615999999999997  0.36835  0.36003  1.0000
  Zn  Zn7       1.0  0.33119  0.34306  0.30067  1.0000
  Zn  Zn8       1.0  0.30541  0.37897000000000003  0.36729  1.0000
  Zn  Zn9       1.0  0.73231  0.026969999999999997  0.69316  1.0000
  Zn  Zn10      1.0  0.63165  0.03809  0.69324  1.0000
  Zn  Zn11      1.0  0.65677  0.98871  0.63397  1.0000
  Zn  Zn12      1.0  0.62185  0.92717  0.7008  1.0000
  Zn  Zn13      1.0  0.29377  0.02604  0.6403  1.0000
  Zn  Zn14      1.0  0.40602  0.03773  0.64011  1.0000
  Zn  Zn15      1.0  0.33074999999999977  0.98729  0.69932  1.0000
  Zn  Zn16      1.0  0.30536  0.92642  0.63263  1.0000
  Zn  Zn17      1.0  0.73215  0.70545  0.30689  1.0000
  Zn  Zn18      1.0  0.6316  0.59347  0.30673  1.0000
  Zn  Zn19      1.0  0.65657  0.66778  0.36602  1.0000
  Zn  Zn20      1.0  0.6209199999999999  0.6943499999999999  0.29939  1.0000
  Zn  Zn21      1.0  0.97318  0.26652  0.97365  1.0000
  Zn  Zn22      1.0  0.96252  0.36813000000000007  0.97341  1.0000
  Zn  Zn23      1.0  0.012250000000000032  0.3431600000000001  0.03261  1.0000
  Zn  Zn24      1.0  0.07336999999999996  0.37691  0.96582  1.0000
  Zn  Zn25      1.0  0.62751  0.92907  0.01835  1.0000
  Zn  Zn26      1.0  0.63838  0.04175  0.01493  1.0000
  Zn  Zn27      1.0  0.73843  0.0334  0.02142  1.0000
  Zn  Zn28      1.0  0.67176  0.99573  0.9566600000000001  1.0000
  Zn  Zn29      1.0  0.07024000000000001  0.6985  0.35156  1.0000
  Zn  Zn30      1.0  0.95798  0.59621  0.34827  1.0000
  Zn  Zn31      1.0  0.9647  0.70341  0.35462  1.0000
  Zn  Zn32      1.0  0.0040700000000000024  0.67558  0.2899  1.0000
  Zn  Zn33      1.0  0.30139  0.37253  0.68502  1.0000
  Zn  Zn34      1.0  0.40278  0.3618  0.68177  1.0000
  Zn  Zn35      1.0  0.29466  0.26139  0.68789  1.0000
  Zn  Zn36      1.0  0.32565  0.33007  0.62328  1.0000
  Zn  Zn37      1.0  0.06983999999999996  0.37211  0.64837  1.0000
  Zn  Zn38      1.0  0.9579999999999999  0.36185000000000006  0.6516  1.0000
  Zn  Zn39      1.0  0.9647899999999998  0.26131  0.64529  1.0000
  Zn  Zn40      1.0  0.004190000000000012  0.32837  0.71004  1.0000
  Zn  Zn41      1.0  0.30105999999999994  0.9286  0.31493  1.0000
  Zn  Zn42      1.0  0.40189  0.04021  0.3181  1.0000
  Zn  Zn43      1.0  0.2944499999999999  0.0332  0.31207  1.0000
  Zn  Zn44      1.0  0.32557999999999987  0.99554  0.37677  1.0000
  Zn  Zn45      1.0  0.62746  0.6985  0.9815900000000001  1.0000
  Zn  Zn46      1.0  0.63828  0.5968  0.9850199999999999  1.0000
  Zn  Zn47      1.0  0.73858  0.70516  0.97857  1.0000
  Zn  Zn48      1.0  0.67179  0.67603  0.04328  1.0000
  H   H1        1.0  0.8771199999999998  0.74584  0.97311  1.0000
  H   H2        1.0  0.8341499999999997  0.7751  0.93492  1.0000
  H   H3        1.0  0.91843  0.75756  0.85746  1.0000
  H   H4        1.0  0.96098  0.72781  0.89617  1.0000
  H   H5        1.0  0.6988699999999999  0.8199099999999999  0.8084299999999999  1.0000
  H   H6        1.0  0.6646699999999999  0.86201  0.7725200000000001  1.0000
  H   H7        1.0  0.8146  0.9568200000000001  0.73315  1.0000
  H   H8        1.0  0.8492199999999999  0.9143499999999999  0.76804  1.0000
  H   H9        1.0  0.8136  0.51881  0.06608  1.0000
  H   H10       1.0  0.7391399999999998  0.4847600000000001  0.10303000000000001  1.0000
  H   H11       1.0  0.78864  0.6384  0.13538  1.0000
  H   H12       1.0  0.86224  0.67192  0.09778  1.0000
  H   H13       1.0  0.51639  0.40698  0.19371  1.0000
  H   H14       1.0  0.44284  0.37191  0.23146999999999998  1.0000
  H   H15       1.0  0.54465  0.45969  0.30757  1.0000
  H   H16       1.0  0.61787  0.49627999999999994  0.27  1.0000
  H   H17       1.0  0.12324  0.6525900000000001  0.11301  1.0000
  H   H18       1.0  0.14484999999999995  0.61454  0.15926  1.0000
  H   H19       1.0  0.010429999999999997  0.46852  0.13987  1.0000
  H   H20       1.0  0.98875  0.50771  0.09455  1.0000
  H   H21       1.0  0.17582  0.48007  0.2985  1.0000
  H   H22       1.0  0.22756999999999997  0.4502300000000001  0.32863  1.0000
  H   H23       1.0  0.24961000000000003  0.3860100000000001  0.24280999999999997  1.0000
  H   H24       1.0  0.19724  0.41479  0.21241  1.0000
  H   H25       1.0  0.25267  0.13101  0.30724  1.0000
  H   H26       1.0  0.22275999999999999  0.05847000000000001  0.26912  1.0000
  H   H27       1.0  0.24138  0.16024  0.19146  1.0000
  H   H28       1.0  0.2719099999999999  0.23291  0.22999000000000003  1.0000
  H   H29       1.0  0.17834999999999993  0.8803699999999999  0.14172  1.0000
  H   H30       1.0  0.13766  0.80481  0.10521000000000001  1.0000
  H   H31       1.0  0.041719999999999986  0.85899  0.06611  1.0000
  H   H32       1.0  0.08276  0.9352  0.1018  1.0000
  H   H33       1.0  0.4812199999999999  0.29429  0.39970000000000006  1.0000
  H   H34       1.0  0.51443  0.25312  0.43678000000000006  1.0000
  H   H35       1.0  0.3604299999999999  0.15047  0.46913  1.0000
  H   H36       1.0  0.32771  0.19126  0.43141  1.0000
  H   H37       1.0  0.59404  0.11010000000000002  0.52673  1.0000
  H   H38       1.0  0.62883  0.0716  0.56479  1.0000
  H   H39       1.0  0.53994  0.08512  0.64043  1.0000
  H   H40       1.0  0.50322  0.12126  0.60246  1.0000
  H   H41       1.0  0.34929  0.47041  0.44655  1.0000
  H   H42       1.0  0.3865  0.52965  0.49301000000000006  1.0000
  H   H43       1.0  0.53315  0.54242  0.47401  1.0000
  H   H44       1.0  0.49484  0.48204  0.42846000000000006  1.0000
  H   H45       1.0  0.52252  0.69597  0.63264  1.0000
  H   H46       1.0  0.5518099999999998  0.77751  0.66261  1.0000
  H   H47       1.0  0.6138999999999998  0.8635  0.57642  1.0000
  H   H48       1.0  0.58556  0.7824  0.54617  1.0000
  H   H49       1.0  0.8687199999999998  0.1227  0.64041  1.0000
  H   H50       1.0  0.9411999999999998  0.16580999999999999  0.60243  1.0000
  H   H51       1.0  0.84004  0.08161  0.52474  1.0000
  H   H52       1.0  0.76747  0.03903000000000001  0.56319  1.0000
  H   H53       1.0  0.12026999999999997  0.3012  0.47414  1.0000
  H   H54       1.0  0.19564  0.33539  0.43765000000000004  1.0000
  H   H55       1.0  0.14201  0.18458  0.40001  1.0000
  H   H56       1.0  0.06595  0.15001  0.43567  1.0000
  H   H57       1.0  0.70547  0.18732  0.73344  1.0000
  H   H58       1.0  0.74695  0.26167  0.77041  1.0000
  H   H59       1.0  0.84938  0.21004  0.80261  1.0000
  H   H60       1.0  0.8084799999999999  0.13657  0.76493  1.0000
  H   H61       1.0  0.8913  0.48363  0.8604500000000002  1.0000
  H   H62       1.0  0.9296599999999998  0.55719  0.89824  1.0000
  H   H63       1.0  0.91648  0.45542  0.97425  1.0000
  H   H64       1.0  0.8801  0.3823  0.9365800000000001  1.0000
  H   H65       1.0  0.52988  0.87909  0.7798100000000001  1.0000
  H   H66       1.0  0.47058  0.85692  0.82625  1.0000
  H   H67       1.0  0.45787000000000005  0.9909300000000001  0.80747  1.0000
  H   H68       1.0  0.5183  0.01309  0.76191  1.0000
  H   H69       1.0  0.3044199999999999  0.82675  0.96613  1.0000
  H   H70       1.0  0.22275999999999996  0.77453  0.9960699999999999  1.0000
  H   H71       1.0  0.13691999999999988  0.75048  0.9098200000000001  1.0000
  H   H72       1.0  0.21809  0.80339  0.8796000000000002  1.0000
  H   H73       1.0  0.25304  0.12181  0.69279  1.0000
  H   H74       1.0  0.2232  0.16452  0.7309  1.0000
  H   H75       1.0  0.24151999999999996  0.08116  0.8085599999999998  1.0000
  H   H76       1.0  0.27202  0.03898  0.77005  1.0000
  H   H77       1.0  0.17836  0.29794  0.85824  1.0000
  H   H78       1.0  0.13760999999999995  0.33281  0.89474  1.0000
  H   H79       1.0  0.04168  0.18272999999999998  0.9338300000000002  1.0000
  H   H80       1.0  0.08275  0.14754  0.89816  1.0000
  H   H81       1.0  0.4806899999999998  0.18643  0.60046  1.0000
  H   H82       1.0  0.51408  0.26079  0.56343  1.0000
  H   H83       1.0  0.36021  0.20978  0.53095  1.0000
  H   H84       1.0  0.32729  0.13625  0.56861  1.0000
  H   H85       1.0  0.59395  0.48375  0.47323  1.0000
  H   H86       1.0  0.62867  0.55685  0.43504  1.0000
  H   H87       1.0  0.53966  0.45429  0.35955  1.0000
  H   H88       1.0  0.50294  0.38153  0.39762  1.0000
  H   H89       1.0  0.34941  0.87908  0.55346  1.0000
  H   H90       1.0  0.38679  0.85699  0.50709  1.0000
  H   H91       1.0  0.53337  0.99084  0.5262  1.0000
  H   H92       1.0  0.49486  0.01295  0.57163  1.0000
  H   H93       1.0  0.51955  0.82307  0.36779  1.0000
  H   H94       1.0  0.54873  0.77042  0.33816  1.0000
  H   H95       1.0  0.61417  0.75039  0.4240999999999999  1.0000
  H   H96       1.0  0.58581  0.80343  0.45402  1.0000
  H   H97       1.0  0.86881  0.74628  0.35955  1.0000
  H   H98       1.0  0.94126  0.7755500000000001  0.39756  1.0000
  H   H99       1.0  0.84001  0.75841  0.47525  1.0000
  H   H100      1.0  0.76743  0.72844  0.43676  1.0000
  H   H101      1.0  0.1200600000000001  0.8189800000000002  0.52566  1.0000
  H   H102      1.0  0.19540000000000005  0.85993  0.56228  1.0000
  H   H103      1.0  0.14182  0.95711  0.59999  1.0000
  H   H104      1.0  0.06585  0.9159  0.56419  1.0000
  H   H105      1.0  0.70554  0.51826  0.26652  1.0000
  H   H106      1.0  0.7471  0.48541  0.22950999999999996  1.0000
  H   H107      1.0  0.84947  0.63952  0.19736  1.0000
  H   H108      1.0  0.8084299999999998  0.672  0.23507  1.0000
  H   H109      1.0  0.89116  0.40762  0.13957  1.0000
  H   H110      1.0  0.92953  0.37243  0.10177  1.0000
  H   H111      1.0  0.91645  0.46112999999999993  0.025789999999999997  1.0000
  H   H112      1.0  0.8800499999999999  0.49784999999999996  0.06348  1.0000
  H   H113      1.0  0.52959  0.65055  0.22011  1.0000
  H   H114      1.0  0.47028  0.61326  0.17368  1.0000
  H   H115      1.0  0.4577999999999999  0.46669  0.19262  1.0000
  H   H116      1.0  0.51821  0.50509  0.23817  1.0000
  H   H117      1.0  0.30431  0.47774  0.03394  1.0000
  H   H118      1.0  0.22262  0.44825  0.00398  1.0000
  H   H119      1.0  0.13676  0.38639  0.09022  1.0000
  H   H120      1.0  0.21792999999999996  0.41468  0.12044999999999999  1.0000
  H   H121      1.0  0.87721  0.13136  0.02681  1.0000
  H   H122      1.0  0.8341999999999998  0.059160000000000004  0.06505  1.0000
  H   H123      1.0  0.91868  0.16097  0.14244  1.0000
  H   H124      1.0  0.96122  0.23323000000000002  0.10370000000000001  1.0000
  H   H125      1.0  0.6987599999999998  0.8805300000000001  0.19267000000000004  1.0000
  H   H126      1.0  0.6642  0.80441  0.22853000000000004  1.0000
  H   H127      1.0  0.81475  0.85725  0.26651  1.0000
  H   H128      1.0  0.84951  0.9344  0.23181000000000002  1.0000
  H   H129      1.0  0.8136599999999998  0.29495  0.93395  1.0000
  H   H130      1.0  0.7391899999999998  0.25471  0.8970200000000002  1.0000
  H   H131      1.0  0.78848  0.15043  0.8645600000000001  1.0000
  H   H132      1.0  0.86212  0.19038  0.9021400000000002  1.0000
  H   H133      1.0  0.51608  0.10909  0.8062600000000001  1.0000
  H   H134      1.0  0.44251  0.06993  0.7685299999999999  1.0000
  H   H135      1.0  0.54462  0.0845  0.69246  1.0000
  H   H136      1.0  0.61783  0.12171  0.73001  1.0000
  H   H137      1.0  0.12324  0.47067  0.88701  1.0000
  H   H138      1.0  0.14487  0.53014  0.84068  1.0000
  H   H139      1.0  0.01044999999999998  0.54188  0.8599299999999999  1.0000
  H   H140      1.0  0.98876  0.4812100000000001  0.90533  1.0000
  H   H141      1.0  0.17540999999999993  0.6954299999999999  0.70102  1.0000
  H   H142      1.0  0.22745  0.77708  0.67101  1.0000
  H   H143      1.0  0.24923  0.86307  0.75691  1.0000
  H   H144      1.0  0.19651000000000005  0.78188  0.78718  1.0000
  H   H145      1.0  0.53095  0.01316  0.08629  1.0000
  H   H146      1.0  0.46244  0.98412  0.12775  1.0000
  H   H147      1.0  0.4136199999999998  0.8270099999999999  0.10422  1.0000
  H   H148      1.0  0.48294  0.85667  0.06367  1.0000
  H   H149      1.0  0.29134  0.84147  0.26905  1.0000
  H   H150      1.0  0.21669  0.79701  0.30536  1.0000
  H   H151      1.0  0.12036999999999994  0.7152  0.22577000000000003  1.0000
  H   H152      1.0  0.19555  0.75802  0.18921  1.0000
  H   H153      1.0  0.81429  0.96757  0.06901  1.0000
  H   H154      1.0  0.84532  0.92622  0.10775  1.0000
  H   H155      1.0  0.6888299999999998  0.81477  0.13054  1.0000
  H   H156      1.0  0.6585499999999997  0.8563  0.09148  1.0000
  H   H157      1.0  0.92089  0.78369  0.19228  1.0000
  H   H158      1.0  0.96473  0.75318  0.2291  1.0000
  H   H159      1.0  0.8677599999999998  0.7478  0.3061  1.0000
  H   H160      1.0  0.8239500000000001  0.7789800000000001  0.26947  1.0000
  H   H161      1.0  0.9661499999999995  0.5587  0.22146  1.0000
  H   H162      1.0  0.928  0.48244  0.18563  1.0000
  H   H163      1.0  0.80799  0.39983  0.25467  1.0000
  H   H164      1.0  0.84884  0.47567000000000004  0.29106  1.0000
  H   H165      1.0  0.84589  0.22382  0.12857  1.0000
  H   H166      1.0  0.81319  0.15113  0.09011  1.0000
  H   H167      1.0  0.6779599999999997  0.16182  0.07488  1.0000
  H   H168      1.0  0.70962  0.23398000000000002  0.11395  1.0000
  H   H169      1.0  0.98678  0.51808  0.4198  1.0000
  H   H170      1.0  0.016030000000000003  0.47915  0.46152000000000004  1.0000
  H   H171      1.0  0.17299  0.58669  0.4372400000000001  1.0000
  H   H172      1.0  0.14315000000000005  0.62576  0.39635000000000004  1.0000
  H   H173      1.0  0.15784  0.44959999999999994  0.60221  1.0000
  H   H174      1.0  0.20256  0.4197  0.63865  1.0000
  H   H175      1.0  0.28457  0.40525000000000005  0.55918  1.0000
  H   H176      1.0  0.24130999999999994  0.43695  0.52242  1.0000
  H   H177      1.0  0.031359999999999985  0.84661  0.40196  1.0000
  H   H178      1.0  0.07290000000000002  0.91908  0.44054  1.0000
  H   H179      1.0  0.18312  0.87277  0.46423  1.0000
  H   H180      1.0  0.14156  0.80098  0.42533  1.0000
  H   H181      1.0  0.21842  0.1395  0.52487  1.0000
  H   H182      1.0  0.24824999999999994  0.21318  0.56215  1.0000
  H   H183      1.0  0.25146999999999997  0.12005999999999999  0.63889  1.0000
  H   H184      1.0  0.22097  0.04575  0.6019  1.0000
  H   H185      1.0  0.44245999999999996  0.40672  0.55408  1.0000
  H   H186      1.0  0.51985  0.4446  0.51916  1.0000
  H   H187      1.0  0.6011  0.40959  0.59053  1.0000
  H   H188      1.0  0.52395  0.37447  0.62594  1.0000
  H   H189      1.0  0.7747400000000001  0.6202300000000001  0.46214000000000005  1.0000
  H   H190      1.0  0.84681  0.66086  0.4232  1.0000
  H   H191      1.0  0.83797  0.51583  0.40771  1.0000
  H   H192      1.0  0.7663699999999998  0.4746  0.44719  1.0000
  H   H193      1.0  0.4824  0.46897  0.75315  1.0000
  H   H194      1.0  0.5219  0.53761  0.7945300000000001  1.0000
  H   H195      1.0  0.4134  0.58617  0.77107  1.0000
  H   H196      1.0  0.37374  0.51679  0.73054  1.0000
  H   H197      1.0  0.5495400000000001  0.7086900000000002  0.93553  1.0000
  H   H198      1.0  0.58042  0.78346  0.97183  1.0000
  H   H199      1.0  0.59534  0.88003  0.89229  1.0000
  H   H200      1.0  0.56252  0.80484  0.8556700000000002  1.0000
  H   H201      1.0  0.15331999999999998  0.18553000000000003  0.73556  1.0000
  H   H202      1.0  0.08079999999999998  0.15389999999999998  0.77408  1.0000
  H   H203      1.0  0.12467999999999997  0.31004  0.79716  1.0000
  H   H204      1.0  0.19676999999999997  0.34093  0.75839  1.0000
  H   H205      1.0  0.8593399999999998  0.07742  0.85931  1.0000
  H   H206      1.0  0.7868599999999998  0.03335  0.8974900000000001  1.0000
  H   H207      1.0  0.88133  0.13172  0.97307  1.0000
  H   H208      1.0  0.95449  0.17539  0.93528  1.0000
  H   H209      1.0  0.59488  0.03501  0.88732  1.0000
  H   H210      1.0  0.55562  0.07245  0.85177  1.0000
  H   H211      1.0  0.58966  0.19028  0.92171  1.0000
  H   H212      1.0  0.62552  0.14999  0.95791  1.0000
  H   H213      1.0  0.37655  0.15126  0.7940300000000001  1.0000
  H   H214      1.0  0.3366  0.18416  0.75571  1.0000
  H   H215      1.0  0.48144  0.32154  0.74276  1.0000
  H   H216      1.0  0.52203  0.28975  0.7816299999999999  1.0000
  H   H217      1.0  0.98697  0.46917  0.58006  1.0000
  H   H218      1.0  0.01639999999999999  0.53724  0.53829  1.0000
  H   H219      1.0  0.17327000000000006  0.58649  0.56275  1.0000
  H   H220      1.0  0.14331  0.51774  0.6037  1.0000
  H   H221      1.0  0.15787000000000007  0.70849  0.39767  1.0000
  H   H222      1.0  0.20266  0.78318  0.36126  1.0000
  H   H223      1.0  0.28457  0.87945  0.44079  1.0000
  H   H224      1.0  0.24135000000000012  0.8043700000000001  0.4775  1.0000
  H   H225      1.0  0.03129999999999999  0.18485  0.59791  1.0000
  H   H226      1.0  0.07297  0.15395  0.55944  1.0000
  H   H227      1.0  0.18326000000000003  0.31040000000000006  0.53578  1.0000
  H   H228      1.0  0.14159  0.34068  0.57461  1.0000
  H   H229      1.0  0.21854  0.07908  0.47515  1.0000
  H   H230      1.0  0.2483  0.03516  0.43782000000000004  1.0000
  H   H231      1.0  0.25142  0.13149  0.3611  1.0000
  H   H232      1.0  0.22104999999999997  0.17537  0.39810999999999996  1.0000
  H   H233      1.0  0.44227999999999995  0.03573  0.44544999999999996  1.0000
  H   H234      1.0  0.51937  0.0751  0.48053999999999997  1.0000
  H   H235      1.0  0.60106  0.19142  0.40932999999999997  1.0000
  H   H236      1.0  0.52417  0.1495  0.3737  1.0000
  H   H237      1.0  0.77474  0.1545  0.53784  1.0000
  H   H238      1.0  0.84671  0.18593  0.57681  1.0000
  H   H239      1.0  0.83774  0.32205999999999996  0.5923  1.0000
  H   H240      1.0  0.7662399999999999  0.29174  0.55281  1.0000
  H   H241      1.0  0.48061  0.01219  0.24724  1.0000
  H   H242      1.0  0.52107  0.9841100000000002  0.20582  1.0000
  H   H243      1.0  0.41349  0.82652  0.2286  1.0000
  H   H244      1.0  0.37286  0.85519  0.26917  1.0000
  H   H245      1.0  0.55016  0.84142  0.06451  1.0000
  H   H246      1.0  0.5803599999999998  0.79693  0.028100000000000003  1.0000
  H   H247      1.0  0.59483  0.7149499999999999  0.10763000000000002  1.0000
  H   H248      1.0  0.56265  0.75786  0.1443  1.0000
  H   H249      1.0  0.15317000000000006  0.9677300000000001  0.26427  1.0000
  H   H250      1.0  0.08059999999999995  0.9266399999999999  0.22576  1.0000
  H   H251      1.0  0.12455000000000002  0.81442  0.20289  1.0000
  H   H252      1.0  0.19675  0.8557999999999999  0.24156  1.0000
  H   H253      1.0  0.85948  0.78205  0.14076  1.0000
  H   H254      1.0  0.7870299999999998  0.7537099999999999  0.10259000000000001  1.0000
  H   H255      1.0  0.88164  0.74996  0.02697  1.0000
  H   H256      1.0  0.9547300000000001  0.77936  0.06479  1.0000
  H   H257      1.0  0.59465  0.55968  0.11291  1.0000
  H   H258      1.0  0.55528  0.4829  0.14821  1.0000
  H   H259      1.0  0.58951  0.39937999999999996  0.07813  1.0000
  H   H260      1.0  0.62546  0.47566  0.04212  1.0000
  H   H261      1.0  0.37641999999999987  0.22515  0.20604  1.0000
  H   H262      1.0  0.33637  0.15214  0.24417000000000003  1.0000
  H   H263      1.0  0.48115  0.15949  0.25718  1.0000
  H   H264      1.0  0.5219  0.23213  0.21848000000000004  1.0000
  H   H265      1.0  0.53073  0.51783  0.91343  1.0000
  H   H266      1.0  0.46225  0.47849  0.87196  1.0000
  H   H267      1.0  0.41343999999999986  0.58676  0.89543  1.0000
  H   H268      1.0  0.4827099999999999  0.6263699999999999  0.9360200000000001  1.0000
  H   H269      1.0  0.2911999999999999  0.44959  0.73085  1.0000
  H   H270      1.0  0.21659  0.4196  0.69444  1.0000
  H   H271      1.0  0.12019  0.40514  0.7739700000000002  1.0000
  H   H272      1.0  0.1952  0.43699  0.8106700000000001  1.0000
  H   H273      1.0  0.81442  0.84684  0.9308600000000001  1.0000
  H   H274      1.0  0.8454499999999998  0.91917  0.8921600000000001  1.0000
  H   H275      1.0  0.68904  0.87471  0.86963  1.0000
  H   H276      1.0  0.6586800000000002  0.8028500000000001  0.90859  1.0000
  H   H277      1.0  0.92127  0.13834  0.80747  1.0000
  H   H278      1.0  0.9651199999999998  0.21217  0.77017  1.0000
  H   H279      1.0  0.86739  0.11971  0.69375  1.0000
  H   H280      1.0  0.8239  0.04522  0.73077  1.0000
  H   H281      1.0  0.9658199999999998  0.40684  0.7788199999999998  1.0000
  H   H282      1.0  0.92751  0.44495  0.8145699999999999  1.0000
  H   H283      1.0  0.8082899999999998  0.4084499999999999  0.74525  1.0000
  H   H284      1.0  0.84947  0.37391  0.70875  1.0000
  H   H285      1.0  0.84594  0.62218  0.8715100000000001  1.0000
  H   H286      1.0  0.8131  0.66204  0.90996  1.0000
  H   H287      1.0  0.67792  0.51602  0.92511  1.0000
  H   H288      1.0  0.7096999999999998  0.47563  0.88606  1.0000
  C   C1        1.0  0.94973  0.7194  0.95979  1.0000
  C   C2        1.0  0.9225500000000001  0.73582  0.9370699999999998  1.0000
  C   C3        1.0  0.88652  0.749  0.9478800000000001  1.0000
  C   C4        1.0  0.86236  0.76535  0.92653  1.0000
  C   C5        1.0  0.8739499999999998  0.76919  0.89358  1.0000
  C   C6        1.0  0.90969  0.75506  0.88278  1.0000
  C   C7        1.0  0.93339  0.73854  0.90428  1.0000
  C   C8        1.0  0.8509400000000001  0.7871700000000001  0.87169  1.0000
  C   C9        1.0  0.83258  0.8039  0.85211  1.0000
  C   C10       1.0  0.8131500000000002  0.8232000000000002  0.83086  1.0000
  C   C11       1.0  0.79619  0.84184  0.81166  1.0000
  C   C12       1.0  0.77642  0.8642799999999999  0.7906500000000001  1.0000
  C   C13       1.0  0.7238799999999997  0.84951  0.79172  1.0000
  C   C14       1.0  0.70492  0.87301  0.7718699999999998  1.0000
  C   C15       1.0  0.7375099999999998  0.91209  0.75076  1.0000
  C   C16       1.0  0.78956  0.92662  0.7494900000000001  1.0000
  C   C17       1.0  0.8088599999999998  0.9028900000000001  0.76894  1.0000
  C   C18       1.0  0.7161799999999998  0.9374300000000001  0.73031  1.0000
  C   C19       1.0  0.88929  0.61728  0.05902000000000001  1.0000
  C   C20       1.0  0.8432399999999998  0.59739  0.07999  1.0000
  C   C21       1.0  0.8078  0.54465  0.08128  1.0000
  C   C22       1.0  0.76616  0.52562  0.10183  1.0000
  C   C23       1.0  0.75914  0.55905  0.12220000000000002  1.0000
  C   C24       1.0  0.7941  0.61231  0.12018000000000001  1.0000
  C   C25       1.0  0.8353400000000001  0.6310400000000002  0.09924  1.0000
  C   C26       1.0  0.71893  0.53876  0.14477  1.0000
  C   C27       1.0  0.68497  0.51938  0.16503  1.0000
  C   C28       1.0  0.6475599999999998  0.49761  0.18711  1.0000
  C   C29       1.0  0.61309  0.47717000000000004  0.20702  1.0000
  C   C30       1.0  0.57226  0.45444  0.22909  1.0000
  C   C31       1.0  0.5222999999999998  0.41846  0.21859000000000003  1.0000
  C   C32       1.0  0.48133  0.3988  0.23966  1.0000
  C   C33       1.0  0.48885999999999985  0.4136  0.27189  1.0000
  C   C34       1.0  0.53861  0.44782  0.28273  1.0000
  C   C35       1.0  0.57978  0.46831000000000006  0.2617  1.0000
  C   C36       1.0  0.4441  0.39382  0.29392  1.0000
  C   C37       1.0  0.04249999999999999  0.6051  0.07324  1.0000
  C   C38       1.0  0.05467999999999994  0.5823  0.10104  1.0000
  C   C39       1.0  0.09873  0.61258  0.11937  1.0000
  C   C40       1.0  0.11076999999999992  0.59146  0.14502  1.0000
  C   C41       1.0  0.07928000000000006  0.53895  0.15259  1.0000
  C   C42       1.0  0.034720000000000015  0.50889  0.13427  1.0000
  C   C43       1.0  0.022640000000000007  0.5306  0.10891000000000002  1.0000
  C   C44       1.0  0.09428999999999998  0.5172  0.17716  1.0000
  C   C45       1.0  0.11145  0.5001  0.19725  1.0000
  C   C46       1.0  0.13297  0.482  0.21781  1.0000
  C   C47       1.0  0.15509999999999993  0.46676  0.2355  1.0000
  C   C48       1.0  0.18314  0.44948  0.25341  1.0000
  C   C49       1.0  0.19188000000000002  0.45937000000000006  0.28645  1.0000
  C   C50       1.0  0.22079  0.4429  0.30321  1.0000
  C   C51       1.0  0.24187  0.41656  0.28747  1.0000
  C   C52       1.0  0.23317  0.40651  0.25465  1.0000
  C   C53       1.0  0.20406  0.42247  0.23779000000000003  1.0000
  C   C54       1.0  0.2729500000000001  0.39877000000000007  0.30524  1.0000
  C   C55       1.0  0.28033  0.23028  0.29357  1.0000
  C   C56       1.0  0.2633499999999999  0.18644999999999998  0.27102  1.0000
  C   C57       1.0  0.24962000000000004  0.13717  0.28197  1.0000
  C   C58       1.0  0.23288999999999996  0.09653  0.26071  1.0000
  C   C59       1.0  0.22922  0.10428000000000001  0.22776  1.0000
  C   C60       1.0  0.24384000000000003  0.15418  0.21681  1.0000
  C   C61       1.0  0.26075  0.19453  0.23821  1.0000
  C   C62       1.0  0.21089999999999995  0.06333  0.20587  1.0000
  C   C63       1.0  0.19385999999999995  0.02858  0.18608  1.0000
  C   C64       1.0  0.17422999999999994  0.9901099999999999  0.1647  1.0000
  C   C65       1.0  0.15535  0.95472  0.1454  1.0000
  C   C66       1.0  0.13324999999999998  0.91283  0.1242  1.0000
  C   C67       1.0  0.14873000000000008  0.8756100000000001  0.125  1.0000
  C   C68       1.0  0.12596000000000002  0.83355  0.10483999999999999  1.0000
  C   C69       1.0  0.08695000000000001  0.8270300000000002  0.08366  1.0000
  C   C70       1.0  0.07170999999999995  0.86405  0.08262  1.0000
  C   C71       1.0  0.09468000000000001  0.90663  0.10246  1.0000
  C   C72       1.0  0.062339999999999965  0.78067  0.06298  1.0000
  C   C73       1.0  0.38288  0.27216  0.39243  1.0000
  C   C74       1.0  0.40246  0.24594  0.4135599999999999  1.0000
  C   C75       1.0  0.45511  0.2628  0.4149  1.0000
  C   C76       1.0  0.47368  0.23979  0.43548999999999993  1.0000
  C   C77       1.0  0.43987  0.1995  0.45581000000000005  1.0000
  C   C78       1.0  0.3867499999999999  0.18182  0.45388000000000006  1.0000
  C   C79       1.0  0.36848  0.2047  0.43289  1.0000
  C   C80       1.0  0.45988  0.17919  0.47825000000000006  1.0000
  C   C81       1.0  0.4795999999999999  0.16469  0.49831  1.0000
  C   C82       1.0  0.5018799999999998  0.14935  0.52016  1.0000
  C   C83       1.0  0.52295  0.13569  0.5398  1.0000
  C   C84       1.0  0.54589  0.11793  0.5619  1.0000
  C   C85       1.0  0.5822299999999998  0.10433  0.55157  1.0000
  C   C86       1.0  0.60179  0.08312  0.57281  1.0000
  C   C87       1.0  0.5866699999999998  0.07589  0.60499  1.0000
  C   C88       1.0  0.55208  0.09107  0.61564  1.0000
  C   C89       1.0  0.5315599999999998  0.11145  0.59443  1.0000
  C   C90       1.0  0.60643  0.05120999999999999  0.62724  1.0000
  C   C91       1.0  0.3971599999999999  0.43796  0.4068  1.0000
  C   C92       1.0  0.41985  0.47274000000000005  0.43472  1.0000
  C   C93       1.0  0.38926  0.4861  0.45306  1.0000
  C   C94       1.0  0.4099599999999999  0.51904  0.47884000000000004  1.0000
  C   C95       1.0  0.46243  0.54028  0.48659  1.0000
  C   C96       1.0  0.4928199999999999  0.52617  0.46827  1.0000
  C   C97       1.0  0.47154  0.49261  0.44276  1.0000
  C   C98       1.0  0.4839299999999999  0.5769  0.51124  1.0000
  C   C99       1.0  0.50118  0.61118  0.53135  1.0000
  C   C100      1.0  0.51941  0.65084  0.55188  1.0000
  C   C101      1.0  0.53479  0.68828  0.5695  1.0000
  C   C102      1.0  0.5519999999999998  0.73369  0.58735  1.0000
  C   C103      1.0  0.54266  0.73267  0.62047  1.0000
  C   C104      1.0  0.5589  0.7781  0.63715  1.0000
  C   C105      1.0  0.58454  0.8254899999999998  0.62131  1.0000
  C   C106      1.0  0.59402  0.82666  0.58841  1.0000
  C   C107      1.0  0.5782699999999997  0.7815700000000001  0.57161  1.0000
  C   C108      1.0  0.6022  0.87453  0.63894  1.0000
  C   C109      1.0  0.76974  0.05016  0.62683  1.0000
  C   C110      1.0  0.81356  0.07734  0.60425  1.0000
  C   C111      1.0  0.86267  0.11336  0.61517  1.0000
  C   C112      1.0  0.90334  0.1376  0.59392  1.0000
  C   C113      1.0  0.8958799999999998  0.12611  0.56096  1.0000
  C   C114      1.0  0.84608  0.09034  0.55006  1.0000
  C   C115      1.0  0.8057  0.06659  0.57144  1.0000
  C   C116      1.0  0.93692  0.14915  0.53906  1.0000
  C   C117      1.0  0.9717699999999999  0.16738000000000003  0.51931  1.0000
  C   C118      1.0  0.010319999999999994  0.1867  0.49789  1.0000
  C   C119      1.0  0.04579000000000001  0.20355000000000004  0.47858  1.0000
  C   C120      1.0  0.08771999999999999  0.22322  0.45732  1.0000
  C   C121      1.0  0.12492  0.27596  0.45769  1.0000
  C   C122      1.0  0.16695  0.29495  0.43746999999999997  1.0000
  C   C123      1.0  0.17356  0.26224  0.41656  1.0000
  C   C124      1.0  0.13677  0.20989000000000002  0.41608  1.0000
  C   C125      1.0  0.09423  0.19057  0.43596  1.0000
  C   C126      1.0  0.21969999999999995  0.28379  0.39561  1.0000
  C   C127      1.0  0.72763  0.11117  0.72586  1.0000
  C   C128      1.0  0.7538600000000001  0.15684  0.74708  1.0000
  C   C129      1.0  0.73708  0.19267  0.74852  1.0000
  C   C130      1.0  0.7602  0.2342  0.7691000000000001  1.0000
  C   C131      1.0  0.8005  0.24062  0.7893800000000001  1.0000
  C   C132      1.0  0.81804  0.20506  0.78738  1.0000
  C   C133      1.0  0.79511  0.16396  0.7663800000000001  1.0000
  C   C134      1.0  0.82089  0.28089  0.8118500000000001  1.0000
  C   C135      1.0  0.83556  0.31498  0.83204  1.0000
  C   C136      1.0  0.8512299999999998  0.35247  0.85403  1.0000
  C   C137      1.0  0.8652899999999998  0.38706  0.8738100000000001  1.0000
  C   C138      1.0  0.8834  0.42793  0.89583  1.0000
  C   C139      1.0  0.89709  0.4778  0.8853200000000001  1.0000
  C   C140      1.0  0.9182899999999998  0.51873  0.9064000000000001  1.0000
  C   C141      1.0  0.92562  0.5112  0.9386300000000001  1.0000
  C   C142      1.0  0.91051  0.46151  0.9494500000000001  1.0000
  C   C143      1.0  0.89  0.42040000000000005  0.9284  1.0000
  C   C144      1.0  0.9501299999999998  0.55602  0.96065  1.0000
  C   C145      1.0  0.56226  0.95946  0.7401  1.0000
  C   C146      1.0  0.52758  0.9473900000000001  0.7680800000000001  1.0000
  C   C147      1.0  0.51421  0.90338  0.78636  1.0000
  C   C148      1.0  0.4812299999999999  0.89105  0.81213  1.0000
  C   C149      1.0  0.45996999999999993  0.9222599999999999  0.8199200000000001  1.0000
  C   C150      1.0  0.47412  0.96685  0.8016900000000001  1.0000
  C   C151      1.0  0.50772  0.9792  0.7761800000000001  1.0000
  C   C152      1.0  0.42328  0.90697  0.8445400000000001  1.0000
  C   C153      1.0  0.389  0.88973  0.86464  1.0000
  C   C154      1.0  0.34942  0.86831  0.88522  1.0000
  C   C155      1.0  0.31209  0.84645  0.90293  1.0000
  C   C156      1.0  0.26672  0.81843  0.92081  1.0000
  C   C157      1.0  0.26775000000000004  0.81019  0.95394  1.0000
  C   C158      1.0  0.22232000000000005  0.78105  0.9706  1.0000
  C   C159      1.0  0.17501000000000005  0.75929  0.9547000000000001  1.0000
  C   C160      1.0  0.17377  0.7675000000000001  0.9218000000000001  1.0000
  C   C161      1.0  0.21887  0.79687  0.9050300000000001  1.0000
  C   C162      1.0  0.12612999999999994  0.72815  0.97238  1.0000
  C   C163      1.0  0.28041  0.04994  0.70645  1.0000
  C   C164      1.0  0.26358  0.07693  0.72901  1.0000
  C   C165      1.0  0.24995999999999993  0.11257  0.71806  1.0000
  C   C166      1.0  0.23325  0.13653  0.73932  1.0000
  C   C167      1.0  0.22949  0.12506  0.77226  1.0000
  C   C168      1.0  0.24403999999999995  0.08972  0.7832200000000001  1.0000
  C   C169      1.0  0.26094  0.06625  0.76183  1.0000
  C   C170      1.0  0.21113999999999994  0.14768  0.79414  1.0000
  C   C171      1.0  0.19406999999999994  0.16536  0.81394  1.0000
  C   C172      1.0  0.17438999999999993  0.18416  0.8353099999999999  1.0000
  C   C173      1.0  0.15545  0.20063  0.85461  1.0000
  C   C174      1.0  0.1333  0.22039  0.8758  1.0000
  C   C175      1.0  0.14875  0.27309  0.87498  1.0000
  C   C176      1.0  0.12595  0.29238  0.8951199999999999  1.0000
  C   C177      1.0  0.08695000000000001  0.25992  0.9163100000000001  1.0000
  C   C178      1.0  0.0717  0.20766  0.91734  1.0000
  C   C179      1.0  0.0947  0.18804  0.8975200000000001  1.0000
  C   C180      1.0  0.06233999999999998  0.28167  0.93699  1.0000
  C   C181      1.0  0.3823699999999999  0.11026  0.60759  1.0000
  C   C182      1.0  0.40197  0.15615  0.58654  1.0000
  C   C183      1.0  0.45463  0.19189  0.58525  1.0000
  C   C184      1.0  0.4732999999999999  0.23346  0.56467  1.0000
  C   C185      1.0  0.43961  0.24007  0.5443  1.0000
  C   C186      1.0  0.38647  0.2047  0.54621  1.0000
  C   C187      1.0  0.36808  0.16351999999999997  0.56719  1.0000
  C   C188      1.0  0.4597399999999999  0.28041  0.52187  1.0000
  C   C189      1.0  0.47951  0.31466  0.50182  1.0000
  C   C190      1.0  0.5017699999999999  0.35228999999999994  0.47996  1.0000
  C   C191      1.0  0.52277  0.387  0.46029  1.0000
  C   C192      1.0  0.54566  0.42762999999999995  0.43814  1.0000
  C   C193      1.0  0.5820500000000001  0.47759000000000007  0.44841000000000003  1.0000
  C   C194      1.0  0.6016  0.51826  0.4271  1.0000
  C   C195      1.0  0.58645  0.51029  0.39493  1.0000
  C   C196      1.0  0.5518099999999998  0.4605  0.38435  1.0000
  C   C197      1.0  0.53128  0.41968  0.40562  1.0000
  C   C198      1.0  0.60622  0.55475  0.37268  1.0000
  C   C199      1.0  0.39714  0.95933  0.59319  1.0000
  C   C200      1.0  0.41992  0.94729  0.56531  1.0000
  C   C201      1.0  0.38939  0.90334  0.54698  1.0000
  C   C202      1.0  0.41017  0.89106  0.52126  1.0000
  C   C203      1.0  0.46266999999999986  0.9222599999999999  0.51358  1.0000
  C   C204      1.0  0.49300999999999984  0.9667699999999999  0.53188  1.0000
  C   C205      1.0  0.47163  0.97909  0.55733  1.0000
  C   C206      1.0  0.4841  0.90697  0.48896000000000006  1.0000
  C   C207      1.0  0.50091  0.8895200000000001  0.46883  1.0000
  C   C208      1.0  0.5187099999999999  0.8676799999999999  0.44828  1.0000
  C   C209      1.0  0.53369  0.84525  0.43068  1.0000
  C   C210      1.0  0.55071  0.81678  0.41295  1.0000
  C   C211      1.0  0.54036  0.80729  0.37999  1.0000
  C   C212      1.0  0.55652  0.7779  0.3635  1.0000
  C   C213      1.0  0.58308  0.75716  0.37933  1.0000
  C   C214      1.0  0.5935799999999998  0.76658  0.41207000000000005  1.0000
  C   C215      1.0  0.57785  0.7961  0.42869999999999997  1.0000
  C   C216      1.0  0.60064  0.72583  0.36162  1.0000
  C   C217      1.0  0.76969  0.71945  0.37312  1.0000
  C   C218      1.0  0.81355  0.73628  0.3957  1.0000
  C   C219      1.0  0.86271  0.7494900000000001  0.38479  1.0000
  C   C220      1.0  0.9033600000000002  0.7658800000000001  0.40604  1.0000
  C   C221      1.0  0.89583  0.7698200000000001  0.439  1.0000
  C   C222      1.0  0.84604  0.75579  0.44992  1.0000
  C   C223      1.0  0.8056699999999998  0.73916  0.42852000000000007  1.0000
  C   C224      1.0  0.9368599999999998  0.78779  0.46088000000000007  1.0000
  C   C225      1.0  0.9716999999999999  0.80442  0.48062  1.0000
  C   C226      1.0  0.010250000000000013  0.82366  0.50202  1.0000
  C   C227      1.0  0.045729999999999986  0.84227  0.52131  1.0000
  C   C228      1.0  0.08762000000000003  0.86443  0.54258  1.0000
  C   C229      1.0  0.12473999999999993  0.84879  0.54219  1.0000
  C   C230      1.0  0.16673000000000002  0.87172  0.56244  1.0000
  C   C231      1.0  0.17333999999999988  0.91104  0.58337  1.0000
  C   C232      1.0  0.13656999999999994  0.9266299999999998  0.58387  1.0000
  C   C233      1.0  0.09407  0.90352  0.56395  1.0000
  C   C234      1.0  0.21948999999999994  0.93571  0.60432  1.0000
  C   C235      1.0  0.72769  0.6166  0.27417  1.0000
  C   C236      1.0  0.75389  0.59715  0.25289  1.0000
  C   C237      1.0  0.73711  0.54452  0.25143  1.0000
  C   C238      1.0  0.76027  0.52613  0.23085  1.0000
  C   C239      1.0  0.80058  0.56005  0.21059000000000003  1.0000
  C   C240      1.0  0.8180999999999998  0.6131299999999998  0.21257  1.0000
  C   C241      1.0  0.79511  0.63125  0.23357  1.0000
  C   C242      1.0  0.8209799999999998  0.54019  0.18811  1.0000
  C   C243      1.0  0.83557  0.52066  0.16796  1.0000
  C   C244      1.0  0.85119  0.49877  0.146  1.0000
  C   C245      1.0  0.8652199999999998  0.47819999999999996  0.12622  1.0000
  C   C246      1.0  0.8833099999999998  0.45545  0.10419999999999999  1.0000
  C   C247      1.0  0.8969699999999999  0.41925  0.11471  1.0000
  C   C248      1.0  0.91818  0.39952  0.09361  1.0000
  C   C249      1.0  0.9255599999999998  0.41443  0.06139  1.0000
  C   C250      1.0  0.91046  0.44903  0.05059  1.0000
  C   C251      1.0  0.8899299999999998  0.46962  0.07164  1.0000
  C   C252      1.0  0.95007  0.39413  0.03936  1.0000
  C   C253      1.0  0.5620999999999998  0.60268  0.25985  1.0000
  C   C254      1.0  0.52738  0.58  0.23191  1.0000
  C   C255      1.0  0.51395  0.61058  0.2136  1.0000
  C   C256      1.0  0.48098999999999986  0.58986  0.18784  1.0000
  C   C257      1.0  0.45982  0.5374  0.18008  1.0000
  C   C258      1.0  0.474  0.50703  0.19836  1.0000
  C   C259      1.0  0.50757  0.52833  0.22387  1.0000
  C   C260      1.0  0.42322  0.51603  0.15543  1.0000
  C   C261      1.0  0.38899  0.49919  0.13529  1.0000
  C   C262      1.0  0.34939  0.48114000000000007  0.11473  1.0000
  C   C263      1.0  0.31198  0.46569  0.0971  1.0000
  C   C264      1.0  0.26658  0.44832  0.07925  1.0000
  C   C265      1.0  0.26762  0.4576  0.04612  1.0000
  C   C266      1.0  0.22218999999999997  0.44127999999999995  0.029450000000000004  1.0000
  C   C267      1.0  0.17486999999999997  0.41569000000000006  0.04534  1.0000
  C   C268      1.0  0.17363  0.40624  0.07824  1.0000
  C   C269      1.0  0.21872  0.422  0.09502  1.0000
  C   C270      1.0  0.126  0.39791  0.02764  1.0000
  C   C271      1.0  0.9498  0.23032  0.04013  1.0000
  C   C272      1.0  0.9226700000000001  0.18676000000000004  0.06285  1.0000
  C   C273      1.0  0.88661  0.13758  0.052050000000000006  1.0000
  C   C274      1.0  0.86247  0.09710000000000002  0.07342  1.0000
  C   C275      1.0  0.87414  0.10485  0.10635000000000001  1.0000
  C   C276      1.0  0.90991  0.15472000000000002  0.11714  1.0000
  C   C277      1.0  0.93358  0.19492  0.09562  1.0000
  C   C278      1.0  0.8512  0.06387  0.12828  1.0000
  C   C279      1.0  0.83293  0.028830000000000005  0.1479  1.0000
  C   C280      1.0  0.81352  0.99016  0.16922  1.0000
  C   C281      1.0  0.79651  0.95474  0.18856  1.0000
  C   C282      1.0  0.7766399999999998  0.9125900000000001  0.20964  1.0000
  C   C283      1.0  0.7239  0.87547  0.20899000000000004  1.0000
  C   C284      1.0  0.70468  0.83301  0.22885000000000003  1.0000
  C   C285      1.0  0.7372699999999998  0.8259  0.2496  1.0000
  C   C286      1.0  0.78958  0.8627699999999999  0.25047  1.0000
  C   C287      1.0  0.80905  0.90584  0.23106  1.0000
  C   C288      1.0  0.7157699999999998  0.7795200000000001  0.27035  1.0000
  C   C289      1.0  0.8892599999999998  0.27204  0.94097  1.0000
  C   C290      1.0  0.8432  0.24594  0.92  1.0000
  C   C291      1.0  0.80781  0.26332  0.91873  1.0000
  C   C292      1.0  0.76616  0.24079  0.8981899999999999  1.0000
  C   C293      1.0  0.7590799999999999  0.20036  0.8777900000000001  1.0000
  C   C294      1.0  0.79399  0.18199  0.87978  1.0000
  C   C295      1.0  0.83525  0.20441  0.9007099999999999  1.0000
  C   C296      1.0  0.71885  0.18049  0.8552300000000002  1.0000
  C   C297      1.0  0.6848699999999998  0.16588  0.8349599999999999  1.0000
  C   C298      1.0  0.64746  0.15015  0.8128699999999999  1.0000
  C   C299      1.0  0.61296  0.13597  0.79299  1.0000
  C   C300      1.0  0.57208  0.11764  0.7709199999999999  1.0000
  C   C301      1.0  0.52204  0.1034  0.78141  1.0000
  C   C302      1.0  0.48104999999999987  0.08169  0.76035  1.0000
  C   C303      1.0  0.48865  0.07436  0.72814  1.0000
  C   C304      1.0  0.53849  0.09025  0.7173  1.0000
  C   C305      1.0  0.57966  0.11127  0.73832  1.0000
  C   C306      1.0  0.44394  0.04926  0.70609  1.0000
  C   C307      1.0  0.04246  0.43741  0.92671  1.0000
  C   C308      1.0  0.054659999999999986  0.47242  0.89891  1.0000
  C   C309      1.0  0.09873  0.48615  0.8806  1.0000
  C   C310      1.0  0.11079  0.51923  0.8549000000000001  1.0000
  C   C311      1.0  0.07929000000000001  0.54023  0.84725  1.0000
  C   C312      1.0  0.03474999999999999  0.52583  0.8655800000000001  1.0000
  C   C313      1.0  0.022660000000000017  0.49211  0.89099  1.0000
  C   C314      1.0  0.09423999999999993  0.57685  0.82261  1.0000
  C   C315      1.0  0.11126000000000001  0.611  0.80242  1.0000
  C   C316      1.0  0.13260999999999998  0.65053  0.78178  1.0000
  C   C317      1.0  0.15459  0.68783  0.76405  1.0000
  C   C318      1.0  0.18264000000000005  0.73319  0.74616  1.0000
  C   C319      1.0  0.1915  0.73213  0.71312  1.0000
  C   C320      1.0  0.22055  0.77754  0.69643  1.0000
  C   C321      1.0  0.24163  0.82489  0.71223  1.0000
  C   C322      1.0  0.23279  0.82617  0.74503  1.0000
  C   C323      1.0  0.20352000000000006  0.78107  0.76182  1.0000
  C   C324      1.0  0.27277000000000007  0.87379  0.69456  1.0000
  C   C325      1.0  0.55419  0.95422  0.04935  1.0000
  C   C326      1.0  0.5113999999999999  0.9367399999999999  0.07268  1.0000
  C   C327      1.0  0.50506  0.97262  0.09053  1.0000
  C   C328      1.0  0.46691999999999995  0.95644  0.11355  1.0000
  C   C329      1.0  0.4335  0.90355  0.11887  1.0000
  C   C330      1.0  0.43931  0.86766  0.10024000000000001  1.0000
  C   C331      1.0  0.47804  0.88423  0.07769  1.0000
  C   C332      1.0  0.3952299999999999  0.88601  0.14259  1.0000
  C   C333      1.0  0.36174999999999996  0.86841  0.16321  1.0000
  C   C334      1.0  0.32447  0.84766  0.18536  1.0000
  C   C335      1.0  0.29019  0.82754  0.20534  1.0000
  C   C336      1.0  0.24866000000000005  0.80251  0.22665  1.0000
  C   C337      1.0  0.2542299999999999  0.81297  0.25972  1.0000
  C   C338      1.0  0.21232000000000006  0.7881100000000001  0.28002  1.0000
  C   C339      1.0  0.16389  0.75296  0.26782  1.0000
  C   C340      1.0  0.15813  0.74233  0.23493  1.0000
  C   C341      1.0  0.19983999999999993  0.76631  0.21461000000000002  1.0000
  C   C342      1.0  0.11791999999999991  0.7277899999999999  0.28884  1.0000
  C   C343      1.0  0.71605  0.93978  0.055560000000000005  1.0000
  C   C344      1.0  0.7345799999999997  0.9144799999999998  0.07806  1.0000
  C   C345      1.0  0.7873199999999999  0.93412  0.08252  1.0000
  C   C346      1.0  0.8045899999999999  0.9111000000000001  0.10396  1.0000
  C   C347      1.0  0.7690499999999999  0.8679499999999999  0.12170000000000002  1.0000
  C   C348      1.0  0.71603  0.84808  0.11698  1.0000
  C   C349      1.0  0.69918  0.87116  0.09527  1.0000
  C   C350      1.0  0.7866699999999998  0.84606  0.14445  1.0000
  C   C351      1.0  0.80319  0.82922  0.16508  1.0000
  C   C352      1.0  0.82342  0.81234  0.18725  1.0000
  C   C353      1.0  0.8438399999999998  0.7983500000000001  0.20707  1.0000
  C   C354      1.0  0.8691  0.78251  0.22851000000000002  1.0000
  C   C355      1.0  0.90938  0.77559  0.21713  1.0000
  C   C356      1.0  0.9337999999999999  0.75867  0.23764  1.0000
  C   C357      1.0  0.91878  0.74851  0.2698  1.0000
  C   C358      1.0  0.87941  0.7561699999999999  0.28129  1.0000
  C   C359      1.0  0.85473  0.77319  0.26094  1.0000
  C   C360      1.0  0.94441  0.72877  0.29104  1.0000
  C   C361      1.0  0.9352999999999996  0.56536  0.28055  1.0000
  C   C362      1.0  0.9098199999999997  0.5213  0.2583  1.0000
  C   C363      1.0  0.93176  0.52365  0.2284  1.0000
  C   C364      1.0  0.9104899999999998  0.48118  0.20852  1.0000
  C   C365      1.0  0.8657499999999999  0.43594  0.21801  1.0000
  C   C366      1.0  0.84268  0.43455  0.24765  1.0000
  C   C367      1.0  0.8651600000000002  0.47666  0.26777  1.0000
  C   C368      1.0  0.8450699999999999  0.39200999999999997  0.19858  1.0000
  C   C369      1.0  0.8282199999999997  0.3531  0.18222  1.0000
  C   C370      1.0  0.81149  0.31179  0.16328  1.0000
  C   C371      1.0  0.7976299999999997  0.27508  0.14525  1.0000
  C   C372      1.0  0.77984  0.23365  0.12383  1.0000
  C   C373      1.0  0.80907  0.20997  0.11694  1.0000
  C   C374      1.0  0.7909  0.16951  0.09546999999999999  1.0000
  C   C375      1.0  0.7435799999999998  0.15223  0.08025  1.0000
  C   C376      1.0  0.71442  0.17568  0.08697  1.0000
  C   C377      1.0  0.73201  0.21573000000000003  0.10859  1.0000
  C   C378      1.0  0.72365  0.10941  0.05687  1.0000
  C   C379      1.0  0.045190000000000036  0.59909  0.38204999999999995  1.0000
  C   C380      1.0  0.06310000000000004  0.57447  0.40569000000000005  1.0000
  C   C381      1.0  0.027350000000000048  0.53269  0.42394  1.0000
  C   C382      1.0  0.04363999999999999  0.51105  0.44712  1.0000
  C   C383      1.0  0.09655999999999999  0.53044  0.45225  1.0000
  C   C384      1.0  0.13233  0.57181  0.4333600000000001  1.0000
  C   C385      1.0  0.11565000000000002  0.59364  0.41062  1.0000
  C   C386      1.0  0.11415  0.50973  0.47592000000000007  1.0000
  C   C387      1.0  0.13160000000000005  0.4936  0.49646  1.0000
  C   C388      1.0  0.15208  0.47673  0.51855  1.0000
  C   C389      1.0  0.17192  0.46226  0.53853  1.0000
  C   C390      1.0  0.19682999999999998  0.44568  0.55987  1.0000
  C   C391      1.0  0.18635999999999997  0.44089  0.59296  1.0000
  C   C392      1.0  0.21134999999999993  0.42400999999999994  0.61329  1.0000
  C   C393      1.0  0.24661999999999998  0.41084000000000004  0.60113  1.0000
  C   C394      1.0  0.25722  0.41563  0.56825  1.0000
  C   C395      1.0  0.23308  0.4331  0.54785  1.0000
  C   C396      1.0  0.27212  0.39038  0.62211  1.0000
  C   C397      1.0  0.05846  0.77537  0.38897  1.0000
  C   C398      1.0  0.08373999999999988  0.8192299999999999  0.41150000000000003  1.0000
  C   C399      1.0  0.06455  0.85276  0.41568  1.0000
  C   C400      1.0  0.08772999999999996  0.89319  0.43704  1.0000
  C   C401      1.0  0.13059000000000004  0.9006  0.45505  1.0000
  C   C402      1.0  0.15000999999999998  0.86699  0.45058000000000004  1.0000
  C   C403      1.0  0.12684999999999988  0.82695  0.42893000000000003  1.0000
  C   C404      1.0  0.15256999999999996  0.9404  0.47765  1.0000
  C   C405      1.0  0.16958999999999996  0.97424  0.49799  1.0000
  C   C406      1.0  0.18691  0.011729999999999999  0.51993  1.0000
  C   C407      1.0  0.20163  0.0466  0.53951  1.0000
  C   C408      1.0  0.21804  0.08784999999999998  0.56095  1.0000
  C   C409      1.0  0.22576  0.13548  0.54977  1.0000
  C   C410      1.0  0.24241  0.17653  0.57053  1.0000
  C   C411      1.0  0.25175  0.17119  0.60276  1.0000
  C   C412      1.0  0.24369  0.12387  0.61403  1.0000
  C   C413      1.0  0.22695  0.08245  0.59344  1.0000
  C   C414      1.0  0.27103  0.21638  0.62423  1.0000
  C   C415      1.0  0.4348999999999999  0.37098  0.61411  1.0000
  C   C416      1.0  0.47920999999999997  0.38916  0.59216  1.0000
  C   C417      1.0  0.47746  0.40794  0.56182  1.0000
  C   C418      1.0  0.52048  0.42893  0.54241  1.0000
  C   C419      1.0  0.5656299999999999  0.43  0.55278  1.0000
  C   C420      1.0  0.5664199999999998  0.40907000000000004  0.58282  1.0000
  C   C421      1.0  0.5237  0.38953  0.60243  1.0000
  C   C422      1.0  0.60985  0.45287999999999995  0.53364  1.0000
  C   C423      1.0  0.64854  0.47451000000000004  0.51709  1.0000
  C   C424      1.0  0.6894  0.49862  0.49779999999999996  1.0000
  C   C425      1.0  0.7253699999999998  0.52109  0.47922  1.0000
  C   C426      1.0  0.766  0.54478  0.45730000000000004  1.0000
  C   C427      1.0  0.78882  0.5976  0.45032  1.0000
  C   C428      1.0  0.8289000000000001  0.6202300000000001  0.4285999999999999  1.0000
  C   C429      1.0  0.8465900000000001  0.5906  0.4133  1.0000
  C   C430      1.0  0.8237700000000001  0.53802  0.41996  1.0000
  C   C431      1.0  0.78407  0.5152  0.44179999999999997  1.0000
  C   C432      1.0  0.88946  0.61404  0.39002999999999993  1.0000
  C   C433      1.0  0.4005799999999999  0.44596  0.71604  1.0000
  C   C434      1.0  0.42557  0.48856  0.73949  1.0000
  C   C435      1.0  0.46778  0.4949  0.75737  1.0000
  C   C436      1.0  0.48970999999999987  0.53307  0.7803600000000002  1.0000
  C   C437      1.0  0.4701799999999999  0.56644  0.7856499999999998  1.0000
  C   C438      1.0  0.4283999999999999  0.56054  0.7670600000000001  1.0000
  C   C439      1.0  0.40626  0.5218  0.74453  1.0000
  C   C440      1.0  0.49082  0.60478  0.80931  1.0000
  C   C441      1.0  0.50643  0.63842  0.82979  1.0000
  C   C442      1.0  0.5227799999999998  0.67573  0.85189  1.0000
  C   C443      1.0  0.53685  0.71002  0.8718500000000001  1.0000
  C   C444      1.0  0.5536099999999998  0.7516  0.89312  1.0000
  C   C445      1.0  0.5584799999999999  0.74591  0.9262000000000001  1.0000
  C   C446      1.0  0.57588  0.7878400000000001  0.9464899999999999  1.0000
  C   C447      1.0  0.5894299999999998  0.83634  0.9343000000000001  1.0000
  C   C448      1.0  0.58457  0.84222  0.90142  1.0000
  C   C449      1.0  0.5665399999999998  0.80052  0.88107  1.0000
  C   C450      1.0  0.61003  0.88218  0.95536  1.0000
  C   C451      1.0  0.22348  0.28388  0.72226  1.0000
  C   C452      1.0  0.17955  0.26513  0.74476  1.0000
  C   C453      1.0  0.1466  0.21233  0.74911  1.0000
  C   C454      1.0  0.10613  0.1947  0.77045  1.0000
  C   C455      1.0  0.098  0.22986  0.78827  1.0000
  C   C456      1.0  0.13103000000000004  0.28296  0.78364  1.0000
  C   C457      1.0  0.17119  0.3002  0.76204  1.0000
  C   C458      1.0  0.05812000000000001  0.21184000000000003  0.81084  1.0000
  C   C459      1.0  0.024320000000000005  0.19506  0.8312200000000001  1.0000
  C   C460      1.0  0.98695  0.17483  0.85326  1.0000
  C   C461      1.0  0.95233  0.15454  0.8730000000000001  1.0000
  C   C462      1.0  0.91165  0.12956  0.89481  1.0000
  C   C463      1.0  0.8639499999999999  0.08911  0.8841700000000001  1.0000
  C   C464      1.0  0.82358  0.0646  0.9054  1.0000
  C   C465      1.0  0.82963  0.07981  0.93754  1.0000
  C   C466      1.0  0.87696  0.1197  0.94827  1.0000
  C   C467      1.0  0.91773  0.14432  0.9272400000000001  1.0000
  C   C468      1.0  0.78522  0.0538  0.9594800000000001  1.0000
  C   C469      1.0  0.6305299999999999  0.06453  0.9469700000000001  1.0000
  C   C470      1.0  0.61193  0.09004  0.92469  1.0000
  C   C471      1.0  0.59313  0.06872  0.8945500000000001  1.0000
  C   C472      1.0  0.57126  0.08958  0.8748400000000001  1.0000
  C   C473      1.0  0.56941  0.13348  0.88467  1.0000
  C   C474      1.0  0.59052  0.15609  0.9144999999999999  1.0000
  C   C475      1.0  0.61072  0.13396  0.93449  1.0000
  C   C476      1.0  0.54566  0.15395  0.86543  1.0000
  C   C477      1.0  0.52338  0.17073  0.8491900000000001  1.0000
  C   C478      1.0  0.49862  0.18726  0.83021  1.0000
  C   C479      1.0  0.47566  0.20085000000000003  0.8120700000000001  1.0000
  C   C480      1.0  0.4519699999999998  0.21849000000000002  0.79054  1.0000
  C   C481      1.0  0.39935  0.18861  0.7829800000000001  1.0000
  C   C482      1.0  0.37703000000000003  0.20689000000000002  0.76159  1.0000
  C   C483      1.0  0.4066499999999999  0.25496  0.74718  1.0000
  C   C484      1.0  0.45905  0.28461  0.75436  1.0000
  C   C485      1.0  0.48156000000000004  0.26692  0.77588  1.0000
  C   C486      1.0  0.38355  0.27514  0.72411  1.0000
  C   C487      1.0  0.045240000000000016  0.44636  0.61781  1.0000
  C   C488      1.0  0.06324  0.48899  0.59426  1.0000
  C   C489      1.0  0.027560000000000005  0.49507  0.57597  1.0000
  C   C490      1.0  0.04395  0.53297  0.55277  1.0000
  C   C491      1.0  0.09688000000000005  0.56641  0.54769  1.0000
  C   C492      1.0  0.13258999999999996  0.5608  0.56663  1.0000
  C   C493      1.0  0.11582000000000002  0.52234  0.5894  1.0000
  C   C494      1.0  0.11449000000000001  0.60462  0.52397  1.0000
  C   C495      1.0  0.13188000000000005  0.63818  0.50342  1.0000
  C   C496      1.0  0.15225  0.67549  0.48131  1.0000
  C   C497      1.0  0.17196  0.70978  0.46131  1.0000
  C   C498      1.0  0.19685999999999992  0.75131  0.44001  1.0000
  C   C499      1.0  0.18638000000000005  0.74569  0.40692  1.0000
  C   C500      1.0  0.21137000000000003  0.7875700000000001  0.38662  1.0000
  C   C501      1.0  0.2466  0.83593  0.39885000000000004  1.0000
  C   C502      1.0  0.25722  0.84173  0.43172000000000005  1.0000
  C   C503      1.0  0.23311  0.80009  0.45208  1.0000
  C   C504      1.0  0.27214999999999984  0.88182  0.37790000000000007  1.0000
  C   C505      1.0  0.05846999999999999  0.28324  0.61102  1.0000
  C   C506      1.0  0.08383  0.26466  0.5885  1.0000
  C   C507      1.0  0.06460999999999997  0.21192  0.58429  1.0000
  C   C508      1.0  0.08785  0.19467  0.56297  1.0000
  C   C509      1.0  0.13078  0.23009000000000002  0.54502  1.0000
  C   C510      1.0  0.15015  0.28311  0.54946  1.0000
  C   C511      1.0  0.12694  0.3  0.57107  1.0000
  C   C512      1.0  0.15280999999999997  0.21227  0.52247  1.0000
  C   C513      1.0  0.16984  0.19548  0.50211  1.0000
  C   C514      1.0  0.18715  0.17535  0.48014000000000007  1.0000
  C   C515      1.0  0.20181999999999994  0.15522999999999998  0.46052  1.0000
  C   C516      1.0  0.21816000000000002  0.13035  0.43906000000000006  1.0000
  C   C517      1.0  0.22585999999999995  0.09042  0.4502300000000001  1.0000
  C   C518      1.0  0.24245999999999998  0.06599  0.42946  1.0000
  C   C519      1.0  0.2517699999999999  0.08065  0.39722  1.0000
  C   C520      1.0  0.24370000000000003  0.11991000000000002  0.3859600000000001  1.0000
  C   C521      1.0  0.22701  0.14463  0.40656  1.0000
  C   C522      1.0  0.27108  0.05478  0.37575000000000003  1.0000
  C   C523      1.0  0.4348399999999999  0.06363  0.38552000000000003  1.0000
  C   C524      1.0  0.4792499999999999  0.08993  0.4073800000000001  1.0000
  C   C525      1.0  0.47736  0.06946  0.43775  1.0000
  C   C526      1.0  0.5202399999999998  0.09144  0.45728  1.0000
  C   C527      1.0  0.56548  0.13551  0.44701  1.0000
  C   C528      1.0  0.56636  0.15721000000000002  0.41694  1.0000
  C   C529      1.0  0.52378  0.13408  0.39720000000000005  1.0000
  C   C530      1.0  0.60966  0.15682  0.46624999999999994  1.0000
  C   C531      1.0  0.64836  0.17392  0.48282  1.0000
  C   C532      1.0  0.68925  0.19072  0.50212  1.0000
  C   C533      1.0  0.72523  0.20427  0.52071  1.0000
  C   C534      1.0  0.76588  0.22119  0.54265  1.0000
  C   C535      1.0  0.7887299999999998  0.19121  0.54966  1.0000
  C   C536      1.0  0.82878  0.20864  0.5714  1.0000
  C   C537      1.0  0.8464599999999999  0.25595  0.58672  1.0000
  C   C538      1.0  0.8236  0.28568  0.58006  1.0000
  C   C539      1.0  0.78393  0.26882  0.55819  1.0000
  C   C540      1.0  0.88937  0.27537  0.60997  1.0000
  C   C541      1.0  0.39916  0.95293  0.28398  1.0000
  C   C542      1.0  0.42429000000000006  0.9355100000000001  0.26054  1.0000
  C   C543      1.0  0.46646  0.97178  0.24283  1.0000
  C   C544      1.0  0.4888599999999999  0.9561  0.21983  1.0000
  C   C545      1.0  0.46978  0.90333  0.21436  1.0000
  C   C546      1.0  0.42803  0.86704  0.23278000000000001  1.0000
  C   C547      1.0  0.4054  0.88308  0.25534  1.0000
  C   C548      1.0  0.49076  0.88606  0.19065  1.0000
  C   C549      1.0  0.50641  0.86815  0.17012  1.0000
  C   C550      1.0  0.52291  0.84729  0.14804  1.0000
  C   C551      1.0  0.5371700000000001  0.8271600000000001  0.12812  1.0000
  C   C552      1.0  0.55379  0.80222  0.10684  1.0000
  C   C553      1.0  0.5587199999999999  0.81281  0.07376  1.0000
  C   C554      1.0  0.57581  0.78801  0.05345  1.0000
  C   C555      1.0  0.58908  0.75283  0.06563  1.0000
  C   C556      1.0  0.5842199999999997  0.7421200000000001  0.09851  1.0000
  C   C557      1.0  0.56649  0.76606  0.11888000000000001  1.0000
  C   C558      1.0  0.60983  0.72768  0.0446  1.0000
  C   C559      1.0  0.2233  0.93952  0.27767  1.0000
  C   C560      1.0  0.17942  0.91434  0.25517  1.0000
  C   C561      1.0  0.14646000000000003  0.93417  0.25079  1.0000
  C   C562      1.0  0.10597000000000008  0.9112300000000001  0.22948000000000002  1.0000
  C   C563      1.0  0.09785999999999996  0.86788  0.21177  1.0000
  C   C564      1.0  0.13092  0.84786  0.21639  1.0000
  C   C565      1.0  0.17113  0.87089  0.23794  1.0000
  C   C566      1.0  0.05797  0.84597  0.18925  1.0000
  C   C567      1.0  0.02421  0.829  0.16886  1.0000
  C   C568      1.0  0.9869  0.81196  0.14682  1.0000
  C   C569      1.0  0.95236  0.7978000000000001  0.12705  1.0000
  C   C570      1.0  0.91176  0.78222  0.10523  1.0000
  C   C571      1.0  0.8640899999999998  0.7750100000000001  0.11588999999999999  1.0000
  C   C572      1.0  0.82373  0.75914  0.09466  1.0000
  C   C573      1.0  0.8298  0.75  0.06251  1.0000
  C   C574      1.0  0.8771899999999998  0.75751  0.05177  1.0000
  C   C575      1.0  0.91795  0.77365  0.07282  1.0000
  C   C576      1.0  0.78537  0.73153  0.04054  1.0000
  C   C577      1.0  0.63038  0.566  0.05303  1.0000
  C   C578      1.0  0.61176  0.5219  0.07534  1.0000
  C   C579      1.0  0.59292  0.52431  0.10551  1.0000
  C   C580      1.0  0.57104  0.4815  0.12516  1.0000
  C   C581      1.0  0.5692299999999999  0.43578  0.11529000000000002  1.0000
  C   C582      1.0  0.59038  0.43439000000000005  0.08544  1.0000
  C   C583      1.0  0.61057  0.4768  0.06552  1.0000
  C   C584      1.0  0.54552  0.39156  0.13454  1.0000
  C   C585      1.0  0.5233  0.35259  0.15086  1.0000
  C   C586      1.0  0.4985299999999999  0.3113600000000001  0.16991  1.0000
  C   C587      1.0  0.47557  0.27485  0.1881  1.0000
  C   C588      1.0  0.45186  0.23341  0.20957  1.0000
  C   C589      1.0  0.3991999999999999  0.21056  0.21708  1.0000
  C   C590      1.0  0.37683  0.16985  0.23839000000000002  1.0000
  C   C591      1.0  0.40649  0.15141  0.25282  1.0000
  C   C592      1.0  0.45886  0.17418  0.24561  1.0000
  C   C593      1.0  0.48142  0.21449  0.22418000000000002  1.0000
  C   C594      1.0  0.38352  0.10818  0.2759  1.0000
  C   C595      1.0  0.5539199999999997  0.60029  0.95052  1.0000
  C   C596      1.0  0.5112  0.57482  0.9271000000000001  1.0000
  C   C597      1.0  0.50489  0.53257  0.9092300000000001  1.0000
  C   C598      1.0  0.46673  0.5106  0.8862100000000002  1.0000
  C   C599      1.0  0.43325  0.53001  0.8809  1.0000
  C   C600      1.0  0.43907  0.57175  0.89947  1.0000
  C   C601      1.0  0.4777999999999999  0.59392  0.9220200000000001  1.0000
  C   C602      1.0  0.39488  0.50912  0.8572600000000001  1.0000
  C   C603      1.0  0.36123  0.49305  0.83676  1.0000
  C   C604      1.0  0.32396  0.47641  0.81462  1.0000
  C   C605      1.0  0.28985  0.46226  0.7945199999999999  1.0000
  C   C606      1.0  0.24839  0.44586  0.77318  1.0000
  C   C607      1.0  0.25405  0.44105  0.7401  1.0000
  C   C608      1.0  0.21218999999999993  0.42413  0.71978  1.0000
  C   C609      1.0  0.16377999999999998  0.41094  0.73198  1.0000
  C   C610      1.0  0.15796  0.41573  0.7648700000000002  1.0000
  C   C611      1.0  0.1995699999999999  0.43325  0.78524  1.0000
  C   C612      1.0  0.11777000000000003  0.39021  0.71106  1.0000
  C   C613      1.0  0.7161  0.77646  0.94441  1.0000
  C   C614      1.0  0.73467  0.82038  0.92193  1.0000
  C   C615      1.0  0.78742  0.85339  0.9174200000000001  1.0000
  C   C616      1.0  0.80473  0.89371  0.89598  1.0000
  C   C617      1.0  0.7692900000000001  0.9015400000000001  0.87829  1.0000
  C   C618      1.0  0.7162600000000001  0.8685100000000001  0.8831  1.0000
  C   C619      1.0  0.69934  0.8285100000000001  0.9047800000000001  1.0000
  C   C620      1.0  0.78702  0.94113  0.85556  1.0000
  C   C621      1.0  0.80374  0.9746  0.835  1.0000
  C   C622      1.0  0.82402  0.01172  0.8128400000000001  1.0000
  C   C623      1.0  0.84438  0.04619  0.7930300000000001  1.0000
  C   C624      1.0  0.86947  0.08719  0.7714900000000001  1.0000
  C   C625      1.0  0.9097499999999998  0.13458  0.78262  1.0000
  C   C626      1.0  0.93412  0.17561  0.76187  1.0000
  C   C627      1.0  0.91902  0.1704  0.72973  1.0000
  C   C628      1.0  0.8793499999999997  0.12331  0.71852  1.0000
  C   C629      1.0  0.85482  0.08187  0.73908  1.0000
  C   C630      1.0  0.94501  0.21539  0.70823  1.0000
  C   C631      1.0  0.9357799999999997  0.37042  0.71938  1.0000
  C   C632      1.0  0.9100800000000001  0.38867000000000007  0.7417  1.0000
  C   C633      1.0  0.9316099999999999  0.40776  0.77175  1.0000
  C   C634      1.0  0.91026  0.42893  0.7916  1.0000
  C   C635      1.0  0.86572  0.42973  0.78202  1.0000
  C   C636      1.0  0.8429099999999999  0.4083  0.75229  1.0000
  C   C637      1.0  0.86556  0.38887000000000005  0.73213  1.0000
  C   C638      1.0  0.84512  0.45314  0.8014  1.0000
  C   C639      1.0  0.82836  0.47529  0.8177799999999998  1.0000
  C   C640      1.0  0.8116500000000001  0.49987  0.83676  1.0000
  C   C641      1.0  0.7977499999999997  0.52266  0.8548  1.0000
  C   C642      1.0  0.7799  0.54625  0.8762299999999998  1.0000
  C   C643      1.0  0.80911  0.59915  0.88312  1.0000
  C   C644      1.0  0.7908699999999999  0.62138  0.9045999999999998  1.0000
  C   C645      1.0  0.74352  0.59129  0.91979  1.0000
  C   C646      1.0  0.7144  0.53868  0.91306  1.0000
  C   C647      1.0  0.73205  0.51627  0.89144  1.0000
  C   C648      1.0  0.72358  0.61422  0.94314  1.0000
  O   O1        1.0  0.0057499999999999565  0.66659  0.01391  1.0000
  O   O2        1.0  0.94124  0.72096  0.98962  1.0000
  O   O3        1.0  0.9797599999999997  0.70546  0.94767  1.0000
  O   O4        1.0  0.6675200000000001  0.9170900000000001  0.73007  1.0000
  O   O5        1.0  0.7477299999999998  0.9775600000000001  0.71459  1.0000
  O   O6        1.0  0.9178999999999999  0.66593  0.05716  1.0000
  O   O7        1.0  0.8971999999999996  0.58429  0.04458  1.0000
  O   O8        1.0  0.45355  0.39962  0.32391  1.0000
  O   O9        1.0  0.39969  0.37286  0.28102  1.0000
  O   O10       1.0  0.9983699999999999  0.57857  0.06037  1.0000
  O   O11       1.0  0.07781  0.6495900000000001  0.06455  1.0000
  O   O12       1.0  0.27743  0.40639999999999993  0.3354  1.0000
  O   O13       1.0  0.29257999999999995  0.37717  0.28876  1.0000
  O   O14       1.0  0.3344099999999999  0.34013  0.34726  1.0000
  O   O15       1.0  0.27897  0.2206  0.32346  1.0000
  O   O16       1.0  0.29456  0.27414  0.28114  1.0000
  O   O17       1.0  0.08250999999999997  0.75218  0.0633  1.0000
  O   O18       1.0  0.022860000000000012  0.7725  0.04661  1.0000
  O   O19       1.0  0.33422  0.25215  0.39046  1.0000
  O   O20       1.0  0.4160299999999999  0.31296  0.37797  1.0000
  O   O21       1.0  0.60113  0.05572  0.65719  1.0000
  O   O22       1.0  0.62684  0.02714  0.61443  1.0000
  O   O23       1.0  0.42371999999999993  0.42060000000000003  0.3937  1.0000
  O   O24       1.0  0.35255  0.42863  0.39823000000000003  1.0000
  O   O25       1.0  0.59531  0.87159  0.66921  1.0000
  O   O26       1.0  0.6228800000000001  0.9155900000000001  0.62226  1.0000
  O   O27       1.0  0.66012  0.99482  0.68051  1.0000
  O   O28       1.0  0.77942  0.05825  0.65673  1.0000
  O   O29       1.0  0.7258499999999998  0.02052  0.61444  1.0000
  O   O30       1.0  0.24770999999999996  0.3325  0.39523  1.0000
  O   O31       1.0  0.22806  0.25225  0.37968  1.0000
  O   O32       1.0  0.74767  0.08255  0.72384  1.0000
  O   O33       1.0  0.68688  0.10355  0.71133  1.0000
  O   O34       1.0  0.94623  0.54662  0.99066  1.0000
  O   O35       1.0  0.97337  0.60044  0.94777  1.0000
  O   O36       1.0  0.57972  0.00346  0.72706  1.0000
  O   O37       1.0  0.57137  0.92408  0.73143  1.0000
  O   O38       1.0  0.12913  0.72526  0.00273  1.0000
  O   O39       1.0  0.08514999999999999  0.70701  0.9556100000000001  1.0000
  O   O40       1.0  0.33417  0.9940700000000001  0.65278  1.0000
  O   O41       1.0  0.27886  0.0582  0.67657  1.0000
  O   O42       1.0  0.29467  0.02031  0.71885  1.0000
  O   O43       1.0  0.08252  0.33032000000000006  0.9367000000000001  1.0000
  O   O44       1.0  0.022849999999999992  0.25034  0.95335  1.0000
  O   O45       1.0  0.33373  0.08138  0.60945  1.0000
  O   O46       1.0  0.4155999999999999  0.1028  0.62211  1.0000
  O   O47       1.0  0.60074  0.54499  0.34271  1.0000
  O   O48       1.0  0.62684  0.59924  0.38548  1.0000
  O   O49       1.0  0.4235399999999999  0.00326  0.60628  1.0000
  O   O50       1.0  0.35258  0.92396  0.60176  1.0000
  O   O51       1.0  0.5923099999999999  0.72072  0.33152  1.0000
  O   O52       1.0  0.62275  0.70667  0.37802  1.0000
  O   O53       1.0  0.65978  0.66523  0.31941  1.0000
  O   O54       1.0  0.77937  0.72108  0.34321  1.0000
  O   O55       1.0  0.72576  0.70504  0.38549  1.0000
  O   O56       1.0  0.24762000000000006  0.91515  0.60473  1.0000
  O   O57       1.0  0.22777  0.9756  0.62023  1.0000
  O   O58       1.0  0.74771  0.66523  0.27627  1.0000
  O   O59       1.0  0.6869  0.58339  0.28864  1.0000
  O   O60       1.0  0.9462000000000002  0.39964  0.00935  1.0000
  O   O61       1.0  0.97332  0.37294  0.05224000000000001  1.0000
  O   O62       1.0  0.57944  0.57611  0.27298  1.0000
  O   O63       1.0  0.57136  0.64728  0.2684  1.0000
  O   O64       1.0  0.12904999999999997  0.40384  0.9972900000000001  1.0000
  O   O65       1.0  0.08499999999999998  0.37801  0.04439  1.0000
  O   O66       1.0  0.005660000000000009  0.33912000000000003  0.9860499999999999  1.0000
  O   O67       1.0  0.94133  0.22027  0.0103  1.0000
  O   O68       1.0  0.9797599999999996  0.27428  0.05228  1.0000
  O   O69       1.0  0.66705  0.75214  0.27142  1.0000
  O   O70       1.0  0.7474  0.77043  0.28557  1.0000
  O   O71       1.0  0.91784  0.25195  0.94283  1.0000
  O   O72       1.0  0.8971799999999999  0.31293  0.95543  1.0000
  O   O73       1.0  0.4535  0.05392  0.6761  1.0000
  O   O74       1.0  0.3995599999999999  0.02481  0.71894  1.0000
  O   O75       1.0  0.99834  0.41984  0.93961  1.0000
  O   O76       1.0  0.07776000000000002  0.42818000000000006  0.93537  1.0000
  O   O77       1.0  0.27720999999999996  0.87086  0.66437  1.0000
  O   O78       1.0  0.29242  0.91488  0.71119  1.0000
  O   O79       1.0  0.66883  0.99978  0.0032700000000000003  1.0000
  O   O80       1.0  0.56493  0.92039  0.03953  1.0000
  O   O81       1.0  0.5768099999999998  0.0014099999999999998  0.04126  1.0000
  O   O82       1.0  0.07468000000000001  0.7037  0.27466  1.0000
  O   O83       1.0  0.12489999999999994  0.7321  0.31911  1.0000
  O   O84       1.0  0.66771  0.91747  0.05082  1.0000
  O   O85       1.0  0.74993  0.98197  0.0429  1.0000
  O   O86       1.0  0.93136  0.72147  0.32052  1.0000
  O   O87       1.0  0.9778899999999998  0.7206  0.27779  1.0000
  O   O88       1.0  0.92427  0.55555  0.31012  1.0000
  O   O89       1.0  0.9664600000000001  0.60896  0.26837  1.0000
  O   O90       1.0  0.68345  0.10068  0.04145  1.0000
  O   O91       1.0  0.74793  0.08491  0.05394  1.0000
  O   O92       1.0  0.99961  0.6687  0.33654  1.0000
  O   O93       1.0  0.07859000000000001  0.64322  0.37145  1.0000
  O   O94       1.0  0.9977100000000001  0.57411  0.37451  1.0000
  O   O95       1.0  0.29664  0.37176  0.60791  1.0000
  O   O96       1.0  0.26774  0.39295  0.65239  1.0000
  O   O97       1.0  0.08118000000000002  0.7497  0.38421000000000005  1.0000
  O   O98       1.0  0.01616000000000006  0.7667000000000002  0.37629  1.0000
  O   O99       1.0  0.27674  0.20983  0.65385  1.0000
  O   O100      1.0  0.28047  0.25852  0.61107  1.0000
  O   O101      1.0  0.44394  0.36876  0.64373  1.0000
  O   O102      1.0  0.3918099999999999  0.35979  0.60161  1.0000
  O   O103      1.0  0.8993  0.58315  0.3749  1.0000
  O   O104      1.0  0.9129199999999998  0.66285  0.38705999999999996  1.0000
  O   O105      1.0  0.33061000000000007  0.33114000000000005  0.66991  1.0000
  O   O106      1.0  0.35597  0.43491  0.70615  1.0000
  O   O107      1.0  0.42563  0.42385  0.70784  1.0000
  O   O108      1.0  0.62902  0.92543  0.9412  1.0000
  O   O109      1.0  0.60713  0.87503  0.98562  1.0000
  O   O110      1.0  0.24950999999999998  0.33224  0.71755  1.0000
  O   O111      1.0  0.23186  0.25006  0.70955  1.0000
  O   O112      1.0  0.79176  0.06843  0.98868  1.0000
  O   O113      1.0  0.7435299999999998  0.01828  0.94739  1.0000
  O   O114      1.0  0.6293999999999997  0.07376  0.97661  1.0000
  O   O115      1.0  0.64517  0.03508  0.9347700000000001  1.0000
  O   O116      1.0  0.41473  0.31649  0.70965  1.0000
  O   O117      1.0  0.33486  0.24989  0.72055  1.0000
  O   O118      1.0  0.9993299999999999  0.33085999999999993  0.66343  1.0000
  O   O119      1.0  0.07872  0.43571  0.62848  1.0000
  O   O120      1.0  0.99777  0.4237  0.62533  1.0000
  O   O121      1.0  0.29677999999999993  0.92494  0.3921  1.0000
  O   O122      1.0  0.26768000000000003  0.8747800000000001  0.34764  1.0000
  O   O123      1.0  0.08091999999999998  0.33161999999999997  0.61575  1.0000
  O   O124      1.0  0.016270000000000007  0.24945  0.62372  1.0000
  O   O125      1.0  0.27673  0.06699  0.34612  1.0000
  O   O126      1.0  0.28059  0.02216  0.38895  1.0000
  O   O127      1.0  0.44369  0.07418  0.35582  1.0000
  O   O128      1.0  0.3917999999999999  0.03217  0.39827000000000007  1.0000
  O   O129      1.0  0.89918  0.31609  0.62513  1.0000
  O   O130      1.0  0.91291  0.2501  0.61289  1.0000
  O   O131      1.0  0.32982  0.99895  0.33011  1.0000
  O   O132      1.0  0.35454999999999987  0.91932  0.2938  1.0000
  O   O133      1.0  0.42400999999999994  4.9999999999999996e-05  0.29221  1.0000
  O   O134      1.0  0.62883  0.70342  0.05875  1.0000
  O   O135      1.0  0.60715  0.73214  0.014340000000000002  1.0000
  O   O136      1.0  0.24927999999999995  0.91714  0.28238  1.0000
  O   O137      1.0  0.23162999999999995  0.98168  0.29041  1.0000
  O   O138      1.0  0.79191  0.72333  0.01135  1.0000
  O   O139      1.0  0.74361  0.7253199999999999  0.05258  1.0000
  O   O140      1.0  0.6292299999999997  0.55567  0.023380000000000005  1.0000
  O   O141      1.0  0.64517  0.61012  0.06524  1.0000
  O   O142      1.0  0.41468  0.09799  0.2904  1.0000
  O   O143      1.0  0.3348299999999999  0.08479  0.27945  1.0000
  O   O144      1.0  0.66887  0.66921  0.99666  1.0000
  O   O145      1.0  0.56458  0.64483  0.9603800000000001  1.0000
  O   O146      1.0  0.57659  0.57581  0.95872  1.0000
  O   O147      1.0  0.07460999999999997  0.37142  0.72533  1.0000
  O   O148      1.0  0.12461  0.39264  0.68079  1.0000
  O   O149      1.0  0.66776  0.7504  0.9491399999999999  1.0000
  O   O150      1.0  0.74995  0.76806  0.95707  1.0000
  O   O151      1.0  0.9307899999999998  0.20947  0.679  1.0000
  O   O152      1.0  0.98004  0.25689  0.72079  1.0000
  O   O153      1.0  0.9262799999999998  0.37135  0.68975  1.0000
  O   O154      1.0  0.96557  0.35623  0.73164  1.0000
  O   O155      1.0  0.6833  0.5828  0.95852  1.0000
  O   O156      1.0  0.74791  0.66299  0.9460699999999999  1.0000
