data_image0
_chemical_formula_structural       Mn24H264C312N64O72
_chemical_formula_sum              "Mn24 H264 C312 N64 O72"
_cell_length_a       18.11091
_cell_length_b       29.862689999999997
_cell_length_c       29.86367
_cell_angle_alpha    84.70892
_cell_angle_beta     72.30466
_cell_angle_gamma    72.32697999999999

_space_group_name_H-M_alt    "P 1"
_space_group_IT_number       1

loop_
  _space_group_symop_operation_xyz
  'x, y, z'

loop_
  _atom_site_type_symbol
  _atom_site_label
  _atom_site_symmetry_multiplicity
  _atom_site_fract_x
  _atom_site_fract_y
  _atom_site_fract_z
  _atom_site_occupancy
  Mn  Mn1       1.0  0.9110300000000002  0.8877199999999997  0.9664800000000002  1.0000
  Mn  Mn2       1.0  0.70873  0.00811  0.07390000000000002  1.0000
  Mn  Mn3       1.0  0.14940000000000014  0.9163299999999998  0.85957  1.0000
  Mn  Mn4       1.0  0.76556  0.61217  0.53357  1.0000
  Mn  Mn5       1.0  0.7905700000000004  0.49206  0.42608  1.0000
  Mn  Mn6       1.0  0.92544  0.5836599999999997  0.6404900000000001  1.0000
  Mn  Mn7       1.0  0.2987300000000001  0.96646  0.61221  1.0000
  Mn  Mn8       1.0  0.21668999999999994  0.07391  0.4920500000000001  1.0000
  Mn  Mn9       1.0  0.5657800000000001  0.8595999999999998  0.58368  1.0000
  Mn  Mn10      1.0  0.8777399999999999  0.53354  0.8877600000000002  1.0000
  Mn  Mn11      1.0  0.78273  0.42613  0.00794  1.0000
  Mn  Mn12      1.0  0.009089999999999926  0.64042  0.9162900000000003  1.0000
  Mn  Mn13      1.0  0.08896000000000001  0.11229  0.03352  1.0000
  Mn  Mn14      1.0  0.29126  0.9918999999999998  0.9261  1.0000
  Mn  Mn15      1.0  0.85059  0.08367  0.14043  1.0000
  Mn  Mn16      1.0  0.23443  0.3878299999999999  0.4664300000000001  1.0000
  Mn  Mn17      1.0  0.20943  0.50795  0.57392  1.0000
  Mn  Mn18      1.0  0.07455  0.41634  0.35951  1.0000
  Mn  Mn19      1.0  0.7012699999999997  0.03354  0.38779  1.0000
  Mn  Mn20      1.0  0.7833  0.92609  0.50795  1.0000
  Mn  Mn21      1.0  0.43422  0.1404  0.41632  1.0000
  Mn  Mn22      1.0  0.12225000000000005  0.4664699999999999  0.11224000000000003  1.0000
  Mn  Mn23      1.0  0.2172599999999999  0.57388  0.9920600000000003  1.0000
  Mn  Mn24      1.0  0.9909  0.3595799999999999  0.08371  1.0000
  H   H1        1.0  0.8262699999999997  0.8874499999999997  0.8430600000000003  1.0000
  H   H2        1.0  0.6901100000000001  0.9250499999999999  0.83161  1.0000
  H   H3        1.0  0.5779800000000002  0.97299  0.89596  1.0000
  H   H4        1.0  0.60583  0.98519  0.9701400000000001  1.0000
  H   H5        1.0  0.9269799999999999  0.94853  0.09926  1.0000
  H   H6        1.0  0.92905  0.8886699999999997  0.11241  1.0000
  H   H7        1.0  0.83581  0.9351  0.12932  1.0000
  H   H8        1.0  0.5722300000000001  0.9324199999999999  0.18536  1.0000
  H   H9        1.0  0.55882  0.9269499999999999  0.27101  1.0000
  H   H10       1.0  0.6331500000000002  0.9675999999999998  0.3046  1.0000
  H   H11       1.0  0.7182499999999999  0.013029999999999998  0.25157000000000007  1.0000
  H   H12       1.0  0.89142  0.09463999999999999  0.00314  1.0000
  H   H13       1.0  0.8212600000000001  0.13981  0.04216000000000001  1.0000
  H   H14       1.0  0.7970899999999999  0.12442999999999999  0.9927800000000002  1.0000
  H   H15       1.0  0.60271  0.06667  0.0073700000000000015  1.0000
  H   H16       1.0  0.47644000000000003  0.13149  0.010790000000000003  1.0000
  H   H17       1.0  0.56864  0.07640999999999998  0.14999000000000004  1.0000
  H   H18       1.0  0.44103999999999993  0.14159  0.15969  1.0000
  H   H19       1.0  0.32999  0.18281999999999995  0.12648  1.0000
  H   H20       1.0  0.38559999999999994  0.21603  0.08633000000000003  1.0000
  H   H21       1.0  0.3191100000000001  0.7824399999999998  0.7988000000000001  1.0000
  H   H22       1.0  0.30206000000000016  0.70189  0.80918  1.0000
  H   H23       1.0  0.17420999999999995  0.68907  0.86414  1.0000
  H   H24       1.0  0.06883000000000018  0.7561899999999998  0.90898  1.0000
  H   H25       1.0  0.9086100000000003  0.02825  0.92431  1.0000
  H   H26       1.0  0.8959499999999999  0.99467  0.97699  1.0000
  H   H27       1.0  0.9683299999999999  0.027139999999999994  0.96177  1.0000
  H   H28       1.0  0.04275999999999998  0.25124  0.10746000000000003  1.0000
  H   H29       1.0  0.16408999999999999  0.18123  0.09478  1.0000
  H   H30       1.0  0.18305999999999997  0.34021  0.04856  1.0000
  H   H31       1.0  0.31027000000000005  0.27439  0.03411  1.0000
  H   H32       1.0  0.31048  0.1474  0.058310000000000015  1.0000
  H   H33       1.0  0.36322999999999994  0.18316  0.019060000000000007  1.0000
  H   H34       1.0  0.55631  0.61252  0.65705  1.0000
  H   H35       1.0  0.44648999999999966  0.57488  0.66848  1.0000
  H   H36       1.0  0.44682999999999967  0.52695  0.6041300000000002  1.0000
  H   H37       1.0  0.5610599999999999  0.5148  0.52999  1.0000
  H   H38       1.0  0.97498  0.5515399999999999  0.4006400000000001  1.0000
  H   H39       1.0  0.93004  0.6114199999999997  0.3877  1.0000
  H   H40       1.0  0.9004500000000001  0.5649999999999997  0.37061  1.0000
  H   H41       1.0  0.6898500000000002  0.5677199999999998  0.3146700000000001  1.0000
  H   H42       1.0  0.7568300000000002  0.5730799999999998  0.22899000000000005  1.0000
  H   H43       1.0  0.90542  0.53233  0.19538  1.0000
  H   H44       1.0  0.9828  0.48691  0.24845000000000003  1.0000
  H   H45       1.0  0.98928  0.40531  0.4967400000000001  1.0000
  H   H46       1.0  0.0032000000000000257  0.3602399999999999  0.4576800000000001  1.0000
  H   H47       1.0  0.9144199999999998  0.37551  0.5071700000000001  1.0000
  H   H48       1.0  0.6766300000000002  0.4332399999999999  0.49265  1.0000
  H   H49       1.0  0.61847  0.36847  0.4892500000000001  1.0000
  H   H50       1.0  0.79507  0.42358  0.35005  1.0000
  H   H51       1.0  0.7422000000000001  0.35847  0.34033  1.0000
  H   H52       1.0  0.6393299999999998  0.3170899999999999  0.37352000000000013  1.0000
  H   H53       1.0  0.68797  0.2839199999999999  0.41367  1.0000
  H   H54       1.0  0.9004100000000002  0.7175299999999998  0.7009700000000002  1.0000
  H   H55       1.0  0.8129400000000001  0.79806  0.69075  1.0000
  H   H56       1.0  0.7271799999999998  0.8109199999999998  0.6358800000000002  1.0000
  H   H57       1.0  0.7339299999999997  0.7438  0.5910000000000002  1.0000
  H   H58       1.0  0.86135  0.4717299999999999  0.57586  1.0000
  H   H59       1.0  0.86781  0.5053099999999999  0.52317  1.0000
  H   H60       1.0  0.9574900000000001  0.4727599999999999  0.5383  1.0000
  H   H61       1.0  0.4015200000000001  0.24865999999999994  0.39242  1.0000
  H   H62       1.0  0.4400900000000001  0.3186899999999999  0.40515  1.0000
  H   H63       1.0  0.57186  0.1596  0.4511900000000001  1.0000
  H   H64       1.0  0.6186700000000002  0.22538  0.46583000000000013  1.0000
  H   H65       1.0  0.5160200000000001  0.3524699999999999  0.44166  1.0000
  H   H66       1.0  0.56528  0.31672999999999996  0.4809  1.0000
  H   H67       1.0  0.21383000000000002  0.84299  0.61251  1.0000
  H   H68       1.0  0.1152000000000001  0.83153  0.57496  1.0000
  H   H69       1.0  0.050980000000000004  0.8959099999999998  0.5271000000000001  1.0000
  H   H70       1.0  0.09100000000000008  0.9700999999999997  0.51494  1.0000
  H   H71       1.0  0.37549000000000005  0.09926999999999998  0.55147  1.0000
  H   H72       1.0  0.3176399999999999  0.11244  0.61133  1.0000
  H   H73       1.0  0.27085  0.12933999999999998  0.56493  1.0000
  H   H74       1.0  0.004329999999999905  0.18539999999999995  0.5677400000000002  1.0000
  H   H75       1.0  0.9856000000000001  0.27102  0.57317  1.0000
  H   H76       1.0  0.1006600000000001  0.3045699999999999  0.53245  1.0000
  H   H77       1.0  0.23115999999999992  0.25155  0.48692000000000013  1.0000
  H   H78       1.0  0.48613999999999996  0.003079999999999999  0.40533000000000013  1.0000
  H   H79       1.0  0.46091  0.04220999999999999  0.36029  1.0000
  H   H80       1.0  0.42144000000000004  0.9928  0.37565  1.0000
  H   H81       1.0  0.16934  0.00735  0.43325  1.0000
  H   H82       1.0  0.10772999999999999  0.01078  0.36851  1.0000
  H   H83       1.0  0.14507999999999996  0.14993999999999996  0.42352  1.0000
  H   H84       1.0  0.08247999999999998  0.15964999999999993  0.35842000000000007  1.0000
  H   H85       1.0  0.012849999999999993  0.12648  0.31715000000000004  1.0000
  H   H86       1.0  0.10165999999999996  0.08634999999999997  0.2839200000000001  1.0000
  H   H87       1.0  0.6013100000000001  0.7992599999999999  0.7174  1.0000
  H   H88       1.0  0.5036699999999997  0.8092699999999998  0.7980100000000002  1.0000
  H   H89       1.0  0.36295000000000005  0.8640999999999998  0.81107  1.0000
  H   H90       1.0  0.32442999999999994  0.90901  0.74404  1.0000
  H   H91       1.0  0.4370600000000001  0.92419  0.4718  1.0000
  H   H92       1.0  0.39073  0.9769199999999999  0.50529  1.0000
  H   H93       1.0  0.49562  0.96171  0.47281  1.0000
  H   H94       1.0  0.79401  0.10751999999999998  0.24870000000000006  1.0000
  H   H95       1.0  0.8452899999999999  0.09486999999999997  0.3187500000000001  1.0000
  H   H96       1.0  0.02327000000000001  0.04864  0.15966  1.0000
  H   H97       1.0  0.08470999999999995  0.03415  0.22547000000000006  1.0000
  H   H98       1.0  0.95774  0.05835  0.3525300000000001  1.0000
  H   H99       1.0  0.04629  0.01910999999999999  0.31676  1.0000
  H   H100      1.0  0.66929  0.65701  0.88745  1.0000
  H   H101      1.0  0.52163  0.66845  0.9249900000000001  1.0000
  H   H102      1.0  0.47397000000000017  0.6040499999999998  0.9729400000000002  1.0000
  H   H103      1.0  0.5760700000000001  0.52991  0.9850900000000001  1.0000
  H   H104      1.0  0.026689999999999995  0.40063999999999994  0.94844  1.0000
  H   H105      1.0  0.04176999999999997  0.38761  0.8885600000000002  1.0000
  H   H106      1.0  0.9654800000000001  0.37066  0.93504  1.0000
  H   H107      1.0  0.7576800000000001  0.31476  0.93234  1.0000
  H   H108      1.0  0.8299399999999999  0.22907999999999995  0.92691  1.0000
  H   H109      1.0  0.93774  0.19542999999999994  0.96766  1.0000
  H   H110      1.0  0.9695800000000001  0.24844999999999995  0.013220000000000004  1.0000
  H   H111      1.0  0.8945299999999998  0.49693  0.09464000000000002  1.0000
  H   H112      1.0  0.86333  0.45783  0.13969000000000004  1.0000
  H   H113      1.0  0.78978  0.5072  0.12436000000000003  1.0000
  H   H114      1.0  0.6099200000000001  0.4926299999999999  0.06669  1.0000
  H   H115      1.0  0.48706000000000016  0.48921  0.13153  1.0000
  H   H116      1.0  0.7186800000000001  0.3500299999999999  0.07632  1.0000
  H   H117      1.0  0.60081  0.34032  0.14151000000000002  1.0000
  H   H118      1.0  0.45636  0.37353999999999987  0.18291000000000004  1.0000
  H   H119      1.0  0.47185000000000005  0.41368999999999995  0.21607  1.0000
  H   H120      1.0  0.11733  0.7012499999999998  0.7825600000000003  1.0000
  H   H121      1.0  0.11123000000000012  0.6908099999999998  0.7019  1.0000
  H   H122      1.0  0.03878999999999988  0.63578  0.6888900000000002  1.0000
  H   H123      1.0  0.9778699999999998  0.5909999999999997  0.7559500000000002  1.0000
  H   H124      1.0  0.8329300000000002  0.57587  0.02828  1.0000
  H   H125      1.0  0.8729699999999998  0.5232  0.9947300000000002  1.0000
  H   H126      1.0  0.9301200000000001  0.5383699999999999  0.027220000000000008  1.0000
  H   H127      1.0  0.15016000000000004  0.39245999999999986  0.25135  1.0000
  H   H128      1.0  0.25870999999999994  0.40524  0.18132000000000006  1.0000
  H   H129      1.0  0.23148999999999997  0.45123  0.34038  1.0000
  H   H130      1.0  0.34402  0.46591  0.27454  1.0000
  H   H131      1.0  0.36856  0.44169  0.14751  1.0000
  H   H132      1.0  0.38206999999999997  0.48092  0.18326000000000006  1.0000
  H   H133      1.0  0.17372  0.11256  0.15694  1.0000
  H   H134      1.0  0.30988  0.07495  0.16839  1.0000
  H   H135      1.0  0.42201  0.027009999999999992  0.10404000000000002  1.0000
  H   H136      1.0  0.39417  0.014809999999999999  0.029860000000000008  1.0000
  H   H137      1.0  0.07302000000000003  0.05148  0.9007400000000002  1.0000
  H   H138      1.0  0.07094000000000009  0.11132999999999998  0.88759  1.0000
  H   H139      1.0  0.1641799999999999  0.06489999999999999  0.8706800000000001  1.0000
  H   H140      1.0  0.4277599999999999  0.06759  0.81464  1.0000
  H   H141      1.0  0.44117  0.07305999999999997  0.72899  1.0000
  H   H142      1.0  0.36683999999999994  0.0324  0.6954000000000001  1.0000
  H   H143      1.0  0.28175000000000017  0.98697  0.74843  1.0000
  H   H144      1.0  0.1085700000000002  0.9053599999999998  0.99686  1.0000
  H   H145      1.0  0.17872999999999994  0.8601899999999998  0.9578400000000002  1.0000
  H   H146      1.0  0.20290000000000008  0.8755799999999998  0.00722  1.0000
  H   H147      1.0  0.3972799999999998  0.93333  0.9926300000000002  1.0000
  H   H148      1.0  0.5235499999999996  0.86851  0.9892100000000003  1.0000
  H   H149      1.0  0.43135000000000007  0.92359  0.85001  1.0000
  H   H150      1.0  0.55895  0.8584199999999997  0.8403100000000002  1.0000
  H   H151      1.0  0.6699999999999999  0.8171799999999999  0.87352  1.0000
  H   H152      1.0  0.61439  0.7839799999999998  0.91367  1.0000
  H   H153      1.0  0.68089  0.21755999999999995  0.2012  1.0000
  H   H154      1.0  0.6979300000000004  0.2981099999999999  0.19082  1.0000
  H   H155      1.0  0.8257900000000001  0.3109299999999999  0.13586  1.0000
  H   H156      1.0  0.93117  0.24381  0.09102  1.0000
  H   H157      1.0  0.09138999999999999  0.9717499999999998  0.07569  1.0000
  H   H158      1.0  0.10405  0.005329999999999999  0.02301  1.0000
  H   H159      1.0  0.031670000000000045  0.97286  0.03823  1.0000
  H   H160      1.0  0.9572400000000002  0.74877  0.89254  1.0000
  H   H161      1.0  0.8359000000000001  0.8187699999999998  0.90522  1.0000
  H   H162      1.0  0.8169300000000003  0.65979  0.95144  1.0000
  H   H163      1.0  0.6897200000000007  0.72561  0.96589  1.0000
  H   H164      1.0  0.68952  0.8526  0.9416900000000002  1.0000
  H   H165      1.0  0.6367599999999999  0.8168399999999998  0.98094  1.0000
  H   H166      1.0  0.4436800000000002  0.3874799999999999  0.34295  1.0000
  H   H167      1.0  0.55351  0.42512  0.33152  1.0000
  H   H168      1.0  0.5531599999999999  0.4730499999999999  0.3958700000000001  1.0000
  H   H169      1.0  0.43893999999999994  0.4851999999999999  0.4700100000000001  1.0000
  H   H170      1.0  0.02500999999999995  0.4484699999999999  0.5993600000000001  1.0000
  H   H171      1.0  0.06995  0.38858  0.6123  1.0000
  H   H172      1.0  0.09954999999999996  0.4349999999999999  0.6293900000000002  1.0000
  H   H173      1.0  0.31015000000000015  0.4322799999999999  0.68533  1.0000
  H   H174      1.0  0.24316999999999994  0.42692  0.77101  1.0000
  H   H175      1.0  0.09456999999999996  0.46767  0.8046200000000002  1.0000
  H   H176      1.0  0.01720000000000002  0.51309  0.75155  1.0000
  H   H177      1.0  0.010710000000000029  0.59469  0.50326  1.0000
  H   H178      1.0  0.99679  0.6397599999999998  0.54232  1.0000
  H   H179      1.0  0.08556999999999997  0.62449  0.49283  1.0000
  H   H180      1.0  0.32336000000000004  0.5667699999999999  0.50734  1.0000
  H   H181      1.0  0.38152000000000014  0.63154  0.51075  1.0000
  H   H182      1.0  0.20492000000000002  0.57643  0.6499500000000001  1.0000
  H   H183      1.0  0.2577900000000001  0.6415299999999999  0.65967  1.0000
  H   H184      1.0  0.36066  0.68291  0.62648  1.0000
  H   H185      1.0  0.31202000000000013  0.7160799999999998  0.58633  1.0000
  H   H186      1.0  0.09959000000000003  0.28247  0.29903  1.0000
  H   H187      1.0  0.18706  0.20194  0.30925  1.0000
  H   H188      1.0  0.27281000000000005  0.18907999999999994  0.36412  1.0000
  H   H189      1.0  0.26606  0.2562  0.4090000000000001  1.0000
  H   H190      1.0  0.13864  0.52827  0.42414  1.0000
  H   H191      1.0  0.13218000000000005  0.49468999999999996  0.47683  1.0000
  H   H192      1.0  0.04249999999999996  0.52724  0.4617000000000001  1.0000
  H   H193      1.0  0.5984700000000001  0.7513399999999998  0.60758  1.0000
  H   H194      1.0  0.5599000000000002  0.6813099999999997  0.59485  1.0000
  H   H195      1.0  0.42813999999999997  0.8404  0.54881  1.0000
  H   H196      1.0  0.38132  0.7746199999999998  0.53417  1.0000
  H   H197      1.0  0.48398000000000013  0.64753  0.55834  1.0000
  H   H198      1.0  0.4347099999999999  0.68327  0.5191000000000001  1.0000
  H   H199      1.0  0.78616  0.15702  0.38749  1.0000
  H   H200      1.0  0.88479  0.16847  0.42504  1.0000
  H   H201      1.0  0.9490100000000001  0.10408999999999999  0.4729  1.0000
  H   H202      1.0  0.9090000000000001  0.029899999999999993  0.4850600000000001  1.0000
  H   H203      1.0  0.62451  0.9007299999999999  0.44853000000000004  1.0000
  H   H204      1.0  0.68235  0.8875599999999999  0.3886700000000001  1.0000
  H   H205      1.0  0.72914  0.87067  0.4350700000000001  1.0000
  H   H206      1.0  0.99566  0.8145999999999998  0.4322600000000001  1.0000
  H   H207      1.0  0.014389999999999962  0.72898  0.4268300000000001  1.0000
  H   H208      1.0  0.8993300000000002  0.6954299999999998  0.4675500000000001  1.0000
  H   H209      1.0  0.7688300000000001  0.7484599999999999  0.51308  1.0000
  H   H210      1.0  0.5138500000000001  0.9969199999999998  0.5946700000000003  1.0000
  H   H211      1.0  0.53909  0.9578  0.63971  1.0000
  H   H212      1.0  0.57856  0.00721  0.62435  1.0000
  H   H213      1.0  0.8306500000000001  0.9926499999999998  0.56675  1.0000
  H   H214      1.0  0.8922600000000002  0.98922  0.63149  1.0000
  H   H215      1.0  0.8549199999999998  0.8500599999999998  0.5764800000000002  1.0000
  H   H216      1.0  0.91751  0.8403499999999998  0.64158  1.0000
  H   H217      1.0  0.9871399999999998  0.87352  0.6828500000000002  1.0000
  H   H218      1.0  0.8983399999999999  0.91365  0.71608  1.0000
  H   H219      1.0  0.39869  0.20073999999999995  0.2826  1.0000
  H   H220      1.0  0.49633000000000005  0.19073  0.20199000000000003  1.0000
  H   H221      1.0  0.6370500000000001  0.13589999999999997  0.18893  1.0000
  H   H222      1.0  0.67556  0.09099  0.25596  1.0000
  H   H223      1.0  0.5629399999999999  0.07581  0.5282  1.0000
  H   H224      1.0  0.60926  0.02308  0.49471  1.0000
  H   H225      1.0  0.50437  0.03829  0.52719  1.0000
  H   H226      1.0  0.20599  0.89249  0.7513  1.0000
  H   H227      1.0  0.15470000000000003  0.9051399999999997  0.6812500000000002  1.0000
  H   H228      1.0  0.9767200000000001  0.95136  0.8403400000000002  1.0000
  H   H229      1.0  0.9152799999999999  0.96585  0.77453  1.0000
  H   H230      1.0  0.04225000000000005  0.94165  0.64747  1.0000
  H   H231      1.0  0.9537100000000001  0.9808899999999998  0.68324  1.0000
  H   H232      1.0  0.33069999999999994  0.34299  0.11255  1.0000
  H   H233      1.0  0.47837  0.33155  0.07501  1.0000
  H   H234      1.0  0.5260200000000002  0.39594999999999997  0.027060000000000008  1.0000
  H   H235      1.0  0.4239200000000001  0.4700899999999999  0.014910000000000001  1.0000
  H   H236      1.0  0.97331  0.59936  0.051560000000000016  1.0000
  H   H237      1.0  0.9582200000000001  0.61239  0.11144000000000001  1.0000
  H   H238      1.0  0.034520000000000134  0.6293399999999998  0.06496  1.0000
  H   H239      1.0  0.24231000000000016  0.6852399999999997  0.06766  1.0000
  H   H240      1.0  0.1700500000000001  0.7709199999999998  0.07309  1.0000
  H   H241      1.0  0.06225000000000005  0.80457  0.03234000000000001  1.0000
  H   H242      1.0  0.030410000000000156  0.7515599999999998  0.98678  1.0000
  H   H243      1.0  0.10546999999999995  0.50307  0.90536  1.0000
  H   H244      1.0  0.13665999999999995  0.54217  0.86031  1.0000
  H   H245      1.0  0.2102200000000001  0.4927999999999999  0.87564  1.0000
  H   H246      1.0  0.39007  0.50737  0.9333100000000002  1.0000
  H   H247      1.0  0.5129299999999999  0.5108  0.86847  1.0000
  H   H248      1.0  0.28131000000000017  0.6499699999999998  0.92368  1.0000
  H   H249      1.0  0.39918000000000003  0.6596799999999999  0.85849  1.0000
  H   H250      1.0  0.5436299999999997  0.6264599999999999  0.8170800000000003  1.0000
  H   H251      1.0  0.52814  0.58631  0.7839300000000002  1.0000
  H   H252      1.0  0.88267  0.2987599999999999  0.21744000000000005  1.0000
  H   H253      1.0  0.88877  0.30918999999999996  0.2981  1.0000
  H   H254      1.0  0.9611999999999999  0.36423  0.31111  1.0000
  H   H255      1.0  0.022120000000000025  0.409  0.24405  1.0000
  H   H256      1.0  0.16705999999999982  0.42413  0.9717200000000003  1.0000
  H   H257      1.0  0.12703  0.47681  0.005270000000000001  1.0000
  H   H258      1.0  0.06988000000000004  0.46163  0.97278  1.0000
  H   H259      1.0  0.84984  0.60754  0.74865  1.0000
  H   H260      1.0  0.74128  0.5947699999999999  0.81868  1.0000
  H   H261      1.0  0.7685  0.54877  0.65962  1.0000
  H   H262      1.0  0.65598  0.53409  0.72546  1.0000
  H   H263      1.0  0.6314399999999999  0.5583099999999999  0.8524900000000002  1.0000
  H   H264      1.0  0.61793  0.5190799999999999  0.81674  1.0000
  C   C1        1.0  0.79285  0.9138199999999997  0.91318  1.0000
  C   C2        1.0  0.7770000000000002  0.9087299999999998  0.8706300000000001  1.0000
  C   C3        1.0  0.7008799999999997  0.92991  0.8645200000000002  1.0000
  C   C4        1.0  0.6378499999999999  0.95718  0.9004600000000003  1.0000
  C   C5        1.0  0.6531100000000001  0.9637899999999998  0.94186  1.0000
  C   C6        1.0  0.72989  0.94294  0.94897  1.0000
  C   C7        1.0  0.74158  0.9529  0.9930500000000001  1.0000
  C   C8        1.0  0.88008  0.9172599999999997  0.056060000000000006  1.0000
  C   C9        1.0  0.89367  0.9225899999999998  0.10202  1.0000
  C   C10       1.0  0.6512999999999999  0.9763  0.16983  1.0000
  C   C11       1.0  0.6032600000000001  0.9501599999999998  0.20053  1.0000
  C   C12       1.0  0.59643  0.94724  0.24829000000000007  1.0000
  C   C13       1.0  0.6378000000000001  0.96979  0.26733  1.0000
  C   C14       1.0  0.6856399999999999  0.99529  0.23770000000000005  1.0000
  C   C15       1.0  0.6926200000000001  0.99969  0.18921  1.0000
  C   C16       1.0  0.73969  0.02983999999999999  0.1612  1.0000
  C   C17       1.0  0.78867  0.07542999999999998  0.049470000000000014  1.0000
  C   C18       1.0  0.82662  0.11078  0.020350000000000007  1.0000
  C   C19       1.0  0.56485  0.08435999999999999  0.04038  1.0000
  C   C20       1.0  0.4943  0.12077999999999998  0.04267000000000001  1.0000
  C   C21       1.0  0.546  0.08959999999999997  0.11996000000000001  1.0000
  C   C22       1.0  0.47480999999999995  0.12623  0.12507000000000001  1.0000
  C   C23       1.0  0.44719000000000003  0.14265  0.08581  1.0000
  C   C24       1.0  0.37045999999999996  0.1825  0.09054  1.0000
  C   C25       1.0  0.2039000000000001  0.81501  0.84761  1.0000
  C   C26       1.0  0.2647600000000001  0.77596  0.82288  1.0000
  C   C27       1.0  0.25461  0.7312599999999998  0.8289500000000001  1.0000
  C   C28       1.0  0.18369999999999986  0.72363  0.8598800000000002  1.0000
  C   C29       1.0  0.12380999999999986  0.76146  0.8846900000000002  1.0000
  C   C30       1.0  0.13210999999999998  0.80729  0.87956  1.0000
  C   C31       1.0  0.06597000000000011  0.8448499999999998  0.90734  1.0000
  C   C32       1.0  0.005579999999999994  0.9653399999999998  0.9209700000000001  1.0000
  C   C33       1.0  0.94045  0.00572  0.94792  1.0000
  C   C34       1.0  0.10326000000000003  0.25471  0.09091000000000003  1.0000
  C   C35       1.0  0.17155000000000006  0.21577999999999994  0.08413000000000002  1.0000
  C   C36       1.0  0.18137  0.30441  0.05813  1.0000
  C   C37       1.0  0.25234000000000006  0.26739999999999997  0.05031  1.0000
  C   C38       1.0  0.24841  0.22158  0.06289  1.0000
  C   C39       1.0  0.32458000000000004  0.18103  0.055090000000000014  1.0000
  C   C40       1.0  0.6197199999999999  0.58618  0.58687  1.0000
  C   C41       1.0  0.5560599999999996  0.5913  0.62942  1.0000
  C   C42       1.0  0.4950599999999999  0.5700799999999999  0.63554  1.0000
  C   C43       1.0  0.4953300000000001  0.5428199999999999  0.59962  1.0000
  C   C44       1.0  0.5586999999999995  0.53621  0.55823  1.0000
  C   C45       1.0  0.6217399999999998  0.55704  0.55112  1.0000
  C   C46       1.0  0.6876400000000001  0.54709  0.50705  1.0000
  C   C47       1.0  0.8536800000000001  0.58261  0.44396  1.0000
  C   C48       1.0  0.9184099999999998  0.57743  0.39796  1.0000
  C   C49       1.0  0.7970600000000002  0.52368  0.33021  1.0000
  C   C50       1.0  0.7538299999999999  0.54993  0.2994700000000001  1.0000
  C   C51       1.0  0.79196  0.55282  0.25172  1.0000
  C   C52       1.0  0.8749700000000002  0.5301799999999999  0.23267000000000002  1.0000
  C   C53       1.0  0.9185399999999999  0.50469  0.26234  1.0000
  C   C54       1.0  0.8812799999999997  0.50033  0.3108500000000001  1.0000
  C   C55       1.0  0.9305199999999999  0.47012  0.3387900000000001  1.0000
  C   C56       1.0  0.9134800000000001  0.42471  0.45054000000000005  1.0000
  C   C57       1.0  0.95774  0.3892499999999999  0.47956  1.0000
  C   C58       1.0  0.6894600000000001  0.4155599999999999  0.45965000000000006  1.0000
  C   C59       1.0  0.65754  0.37918  0.45736  1.0000
  C   C60       1.0  0.7555199999999997  0.41036  0.3800600000000001  1.0000
  C   C61       1.0  0.72599  0.37379  0.37495  1.0000
  C   C62       1.0  0.67547  0.3573399999999999  0.41421  1.0000
  C   C63       1.0  0.6434599999999999  0.31743  0.4094600000000001  1.0000
  C   C64       1.0  0.8664300000000003  0.6849699999999999  0.65236  1.0000
  C   C65       1.0  0.8635900000000001  0.7240499999999997  0.67695  1.0000
  C   C66       1.0  0.8147599999999999  0.76874  0.6709  1.0000
  C   C67       1.0  0.7670900000000003  0.7763599999999998  0.64004  1.0000
  C   C68       1.0  0.7700100000000001  0.7385299999999998  0.6152  1.0000
  C   C69       1.0  0.8190900000000001  0.6927099999999998  0.62034  1.0000
  C   C70       1.0  0.8185200000000001  0.65513  0.59254  1.0000
  C   C71       1.0  0.8922500000000001  0.53459  0.57908  1.0000
  C   C72       1.0  0.8943400000000001  0.4942399999999999  0.55219  1.0000
  C   C73       1.0  0.4489199999999999  0.24520999999999998  0.4089600000000001  1.0000
  C   C74       1.0  0.47146000000000005  0.28412  0.41578  1.0000
  C   C75       1.0  0.5439600000000001  0.19544  0.44169  1.0000
  C   C76       1.0  0.5700200000000001  0.23242999999999994  0.4495800000000001  1.0000
  C   C77       1.0  0.5328299999999999  0.27828  0.43706  1.0000
  C   C78       1.0  0.5605700000000001  0.31885  0.44488  1.0000
  C   C79       1.0  0.20661000000000002  0.91314  0.5861600000000002  1.0000
  C   C80       1.0  0.18582999999999977  0.87053  0.5912300000000003  1.0000
  C   C81       1.0  0.13085000000000013  0.8644399999999998  0.5701  1.0000
  C   C82       1.0  0.09511000000000015  0.9003899999999998  0.5428600000000001  1.0000
  C   C83       1.0  0.11704000000000002  0.94177  0.53623  1.0000
  C   C84       1.0  0.17295000000000005  0.94889  0.55701  1.0000
  C   C85       1.0  0.19455  0.9930099999999997  0.54712  1.0000
  C   C86       1.0  0.29734  0.05607  0.5827400000000001  1.0000
  C   C87       1.0  0.31621  0.10202999999999998  0.57741  1.0000
  C   C88       1.0  0.12727999999999992  0.16984  0.5237  1.0000
  C   C89       1.0  0.05315000000000006  0.20053999999999994  0.54994  1.0000
  C   C90       1.0  0.043509999999999986  0.24829  0.55287  1.0000
  C   C91       1.0  0.10748000000000002  0.26731  0.53025  1.0000
  C   C92       1.0  0.18078999999999995  0.23766  0.50468  1.0000
  C   C93       1.0  0.19204000000000002  0.18919  0.50027  1.0000
  C   C94       1.0  0.2692399999999999  0.16117  0.47008  1.0000
  C   C95       1.0  0.36411999999999994  0.04936999999999998  0.42481000000000013  1.0000
  C   C96       1.0  0.43737  0.020329999999999994  0.38931  1.0000
  C   C97       1.0  0.14914999999999998  0.04036  0.41557  1.0000
  C   C98       1.0  0.11494999999999994  0.04264999999999999  0.3792000000000001  1.0000
  C   C99       1.0  0.13558  0.11993  0.41033  1.0000
  C   C100      1.0  0.10094999999999998  0.12504  0.37375  1.0000
  C   C101      1.0  0.08975  0.08578  0.35733  1.0000
  C   C102      1.0  0.052960000000000014  0.09054  0.31746  1.0000
  C   C103      1.0  0.5183999999999997  0.84776  0.6850000000000003  1.0000
  C   C104      1.0  0.5403900000000003  0.8232499999999998  0.72404  1.0000
  C   C105      1.0  0.48556000000000027  0.8291999999999998  0.76875  1.0000
  C   C106      1.0  0.40691999999999995  0.86001  0.77646  1.0000
  C   C107      1.0  0.3848400000000002  0.8848799999999998  0.73867  1.0000
  C   C108      1.0  0.43898999999999994  0.87981  0.6928100000000003  1.0000
  C   C109      1.0  0.4105400000000001  0.9075199999999998  0.65521  1.0000
  C   C110      1.0  0.4710500000000001  0.92098  0.53469  1.0000
  C   C111      1.0  0.44632000000000016  0.9478699999999998  0.49429  1.0000
  C   C112      1.0  0.85798  0.09097999999999998  0.24526  1.0000
  C   C113      1.0  0.8873000000000001  0.08419  0.28418000000000004  1.0000
  C   C114      1.0  0.98583  0.0582  0.19549000000000005  1.0000
  C   C115      1.0  0.019769999999999975  0.050349999999999985  0.23249000000000006  1.0000
  C   C116      1.0  0.96999  0.06294  0.27833  1.0000
  C   C117      1.0  0.005530000000000012  0.05513  0.31889  1.0000
  C   C118      1.0  0.70609  0.58688  0.91382  1.0000
  C   C119      1.0  0.64764  0.6294399999999998  0.9087200000000002  1.0000
  C   C120      1.0  0.56537  0.63555  0.9298900000000002  1.0000
  C   C121      1.0  0.5383600000000001  0.59959  0.9571400000000002  1.0000
  C   C122      1.0  0.5951  0.55821  0.96376  1.0000
  C   C123      1.0  0.67901  0.55111  0.9429600000000001  1.0000
  C   C124      1.0  0.7349  0.50703  0.95289  1.0000
  C   C125      1.0  0.9365799999999999  0.44395  0.9172600000000002  1.0000
  C   C126      1.0  0.99606  0.39794  0.92253  1.0000
  C   C127      1.0  0.8208400000000003  0.3302199999999999  0.9764  1.0000
  C   C128      1.0  0.80383  0.2995299999999999  0.9501300000000003  1.0000
  C   C129      1.0  0.8448  0.25178  0.94722  1.0000
  C   C130      1.0  0.9051199999999999  0.23271  0.96986  1.0000
  C   C131      1.0  0.9231599999999999  0.26234  0.9954200000000001  1.0000
  C   C132      1.0  0.8815499999999998  0.31084  0.9998200000000002  1.0000
  C   C133      1.0  0.9004299999999998  0.33879  0.03007  1.0000
  C   C134      1.0  0.8382200000000001  0.4506099999999999  0.07524  1.0000
  C   C135      1.0  0.8469599999999999  0.47967999999999994  0.11066000000000001  1.0000
  C   C136      1.0  0.60512  0.45962999999999987  0.08438000000000002  1.0000
  C   C137      1.0  0.53683  0.4573199999999999  0.12079000000000001  1.0000
  C   C138      1.0  0.6659700000000001  0.3800599999999999  0.08956  1.0000
  C   C139      1.0  0.59987  0.37494  0.12618  1.0000
  C   C140      1.0  0.5329  0.4141899999999999  0.14265  1.0000
  C   C141      1.0  0.46090000000000003  0.40946  0.18256000000000003  1.0000
  C   C142      1.0  0.050919999999999965  0.6524799999999997  0.8149800000000003  1.0000
  C   C143      1.0  0.08728000000000001  0.6771299999999999  0.77596  1.0000
  C   C144      1.0  0.08357000000000009  0.6709799999999998  0.73121  1.0000
  C   C145      1.0  0.04371999999999992  0.64005  0.7235100000000002  1.0000
  C   C146      1.0  0.008509999999999848  0.61525  0.7613200000000002  1.0000
  C   C147      1.0  0.011430000000000013  0.6204299999999998  0.8071900000000002  1.0000
  C   C148      1.0  0.9731800000000002  0.59269  0.8448300000000002  1.0000
  C   C149      1.0  0.9268099999999999  0.57907  0.9653700000000001  1.0000
  C   C150      1.0  0.88846  0.55222  0.005760000000000001  1.0000
  C   C151      1.0  0.19409  0.409  0.25482000000000005  1.0000
  C   C152      1.0  0.2555599999999999  0.4158299999999999  0.21588000000000004  1.0000
  C   C153      1.0  0.2393699999999999  0.44173  0.3045600000000001  1.0000
  C   C154      1.0  0.30243  0.44963  0.26753000000000005  1.0000
  C   C155      1.0  0.3111  0.43711  0.22169000000000005  1.0000
  C   C156      1.0  0.3794600000000001  0.4449099999999999  0.18112000000000006  1.0000
  C   C157      1.0  0.20714  0.08618  0.08682  1.0000
  C   C158      1.0  0.223  0.09127  0.12937  1.0000
  C   C159      1.0  0.29911  0.07009999999999998  0.13548  1.0000
  C   C160      1.0  0.36214  0.04281999999999998  0.09954  1.0000
  C   C161      1.0  0.34688  0.036209999999999985  0.05814000000000001  1.0000
  C   C162      1.0  0.27011  0.05706999999999999  0.05103000000000001  1.0000
  C   C163      1.0  0.25841  0.04709999999999999  0.006950000000000001  1.0000
  C   C164      1.0  0.11990999999999985  0.08275  0.9439400000000002  1.0000
  C   C165      1.0  0.10632000000000005  0.07741  0.89798  1.0000
  C   C166      1.0  0.3487  0.0237  0.83017  1.0000
  C   C167      1.0  0.39673  0.04984999999999999  0.79946  1.0000
  C   C168      1.0  0.40355999999999986  0.05277  0.7517100000000002  1.0000
  C   C169      1.0  0.36218999999999985  0.030209999999999997  0.7326700000000003  1.0000
  C   C170      1.0  0.3143500000000001  0.004709999999999998  0.7623  1.0000
  C   C171      1.0  0.3073699999999998  0.00031  0.8107900000000002  1.0000
  C   C172      1.0  0.26031000000000015  0.9701599999999999  0.8388  1.0000
  C   C173      1.0  0.21131999999999992  0.92457  0.9505300000000002  1.0000
  C   C174      1.0  0.1733699999999999  0.8892199999999999  0.9796500000000002  1.0000
  C   C175      1.0  0.43513999999999997  0.91564  0.95962  1.0000
  C   C176      1.0  0.5056899999999994  0.87922  0.95733  1.0000
  C   C177      1.0  0.45399000000000006  0.9103999999999998  0.8800400000000002  1.0000
  C   C178      1.0  0.5251799999999999  0.87377  0.8749300000000002  1.0000
  C   C179      1.0  0.5528  0.8573499999999997  0.9141900000000002  1.0000
  C   C180      1.0  0.62953  0.8175  0.90946  1.0000
  C   C181      1.0  0.79609  0.18498999999999993  0.15239  1.0000
  C   C182      1.0  0.7352400000000001  0.22405  0.17712000000000006  1.0000
  C   C183      1.0  0.74538  0.26875  0.17105000000000006  1.0000
  C   C184      1.0  0.8163  0.27638  0.14012000000000002  1.0000
  C   C185      1.0  0.87618  0.23853999999999995  0.11531  1.0000
  C   C186      1.0  0.86788  0.19272  0.12044  1.0000
  C   C187      1.0  0.93403  0.15516  0.09266000000000003  1.0000
  C   C188      1.0  0.99442  0.034659999999999996  0.07903  1.0000
  C   C189      1.0  0.059540000000000065  0.9942899999999998  0.05208  1.0000
  C   C190      1.0  0.8967299999999998  0.7452899999999998  0.9090900000000001  1.0000
  C   C191      1.0  0.82845  0.7842199999999998  0.91587  1.0000
  C   C192      1.0  0.8186299999999996  0.69559  0.9418700000000002  1.0000
  C   C193      1.0  0.7476500000000003  0.7325999999999998  0.94969  1.0000
  C   C194      1.0  0.7515800000000001  0.7784199999999998  0.93711  1.0000
  C   C195      1.0  0.6754199999999998  0.8189699999999998  0.9449100000000002  1.0000
  C   C196      1.0  0.38027  0.41382999999999986  0.4131300000000001  1.0000
  C   C197      1.0  0.44392999999999994  0.4087  0.37058  1.0000
  C   C198      1.0  0.50493  0.42992  0.3644600000000001  1.0000
  C   C199      1.0  0.5046600000000001  0.45718999999999993  0.40038  1.0000
  C   C200      1.0  0.44129000000000007  0.46378999999999987  0.4417700000000001  1.0000
  C   C201      1.0  0.37825000000000003  0.4429599999999999  0.44888000000000006  1.0000
  C   C202      1.0  0.31235999999999997  0.45291999999999993  0.49295  1.0000
  C   C203      1.0  0.14631000000000008  0.41738999999999987  0.55604  1.0000
  C   C204      1.0  0.08158000000000006  0.42258  0.60204  1.0000
  C   C205      1.0  0.20293000000000003  0.4763199999999999  0.66979  1.0000
  C   C206      1.0  0.2461600000000001  0.4500699999999999  0.70053  1.0000
  C   C207      1.0  0.2080300000000001  0.4471799999999999  0.74828  1.0000
  C   C208      1.0  0.12501999999999985  0.46982  0.7673300000000002  1.0000
  C   C209      1.0  0.08144999999999991  0.49530999999999986  0.7376600000000002  1.0000
  C   C210      1.0  0.11871000000000002  0.49967  0.68915  1.0000
  C   C211      1.0  0.06946999999999992  0.5298799999999999  0.6612100000000002  1.0000
  C   C212      1.0  0.08650999999999992  0.57529  0.5494600000000001  1.0000
  C   C213      1.0  0.04225  0.61075  0.52044  1.0000
  C   C214      1.0  0.31053  0.5844499999999999  0.54035  1.0000
  C   C215      1.0  0.3424499999999999  0.62082  0.54264  1.0000
  C   C216      1.0  0.24446999999999988  0.58964  0.61994  1.0000
  C   C217      1.0  0.2739999999999999  0.62621  0.62505  1.0000
  C   C218      1.0  0.3245199999999999  0.64266  0.5857900000000003  1.0000
  C   C219      1.0  0.35652999999999996  0.68257  0.59054  1.0000
  C   C220      1.0  0.13357  0.31502999999999987  0.3476400000000001  1.0000
  C   C221      1.0  0.1364  0.2759499999999999  0.32305  1.0000
  C   C222      1.0  0.18522999999999995  0.23126  0.3291  1.0000
  C   C223      1.0  0.23290999999999998  0.22363999999999998  0.35996  1.0000
  C   C224      1.0  0.22997999999999982  0.2614699999999999  0.3848000000000001  1.0000
  C   C225      1.0  0.1808999999999999  0.30729  0.3796600000000001  1.0000
  C   C226      1.0  0.18147000000000016  0.3448699999999999  0.40746  1.0000
  C   C227      1.0  0.10774  0.46541  0.42092  1.0000
  C   C228      1.0  0.10565999999999996  0.50576  0.4478100000000001  1.0000
  C   C229      1.0  0.5510700000000001  0.7547899999999997  0.59104  1.0000
  C   C230      1.0  0.5285400000000001  0.71588  0.58422  1.0000
  C   C231      1.0  0.45603000000000005  0.80456  0.55831  1.0000
  C   C232      1.0  0.42997000000000013  0.7675699999999999  0.55041  1.0000
  C   C233      1.0  0.46716  0.72172  0.56294  1.0000
  C   C234      1.0  0.43942999999999993  0.68115  0.55512  1.0000
  C   C235      1.0  0.79338  0.08686  0.4138400000000001  1.0000
  C   C236      1.0  0.8141600000000001  0.12948  0.40877  1.0000
  C   C237      1.0  0.8691499999999999  0.13556  0.42990000000000006  1.0000
  C   C238      1.0  0.9048900000000001  0.09960999999999999  0.45714  1.0000
  C   C239      1.0  0.88296  0.05823  0.4637700000000001  1.0000
  C   C240      1.0  0.8270399999999999  0.051119999999999985  0.44299000000000005  1.0000
  C   C241      1.0  0.80544  0.006989999999999998  0.45288  1.0000
  C   C242      1.0  0.7026600000000001  0.9439299999999999  0.41726000000000013  1.0000
  C   C243      1.0  0.6837900000000001  0.89797  0.42259000000000013  1.0000
  C   C244      1.0  0.8727100000000001  0.8301599999999998  0.4763000000000001  1.0000
  C   C245      1.0  0.94684  0.79946  0.45006  1.0000
  C   C246      1.0  0.95649  0.75172  0.44713  1.0000
  C   C247      1.0  0.8925100000000002  0.7326999999999998  0.4697500000000001  1.0000
  C   C248      1.0  0.81921  0.76234  0.4953200000000001  1.0000
  C   C249      1.0  0.8079500000000001  0.8108099999999998  0.49973  1.0000
  C   C250      1.0  0.7307600000000002  0.8388299999999997  0.52992  1.0000
  C   C251      1.0  0.6358800000000001  0.9506299999999998  0.57519  1.0000
  C   C252      1.0  0.56262  0.9796799999999998  0.6106900000000001  1.0000
  C   C253      1.0  0.8508400000000003  0.9596499999999998  0.58443  1.0000
  C   C254      1.0  0.8850399999999998  0.9573499999999998  0.6208000000000001  1.0000
  C   C255      1.0  0.8644099999999999  0.8800799999999999  0.58967  1.0000
  C   C256      1.0  0.8990400000000001  0.87496  0.62625  1.0000
  C   C257      1.0  0.9102400000000004  0.91422  0.64267  1.0000
  C   C258      1.0  0.9470400000000001  0.90946  0.68254  1.0000
  C   C259      1.0  0.4815900000000001  0.15224  0.315  1.0000
  C   C260      1.0  0.4596000000000001  0.17675  0.27596000000000004  1.0000
  C   C261      1.0  0.51443  0.17079999999999995  0.23125000000000007  1.0000
  C   C262      1.0  0.59308  0.13999  0.22354  1.0000
  C   C263      1.0  0.61516  0.11511999999999997  0.26133  1.0000
  C   C264      1.0  0.561  0.1202  0.30719  1.0000
  C   C265      1.0  0.58945  0.09247999999999998  0.34479  1.0000
  C   C266      1.0  0.52894  0.07901999999999998  0.46531  1.0000
  C   C267      1.0  0.5536799999999998  0.05212999999999999  0.5057100000000001  1.0000
  C   C268      1.0  0.14200999999999994  0.90902  0.75474  1.0000
  C   C269      1.0  0.11268999999999996  0.9158099999999998  0.7158200000000002  1.0000
  C   C270      1.0  0.014160000000000015  0.9417999999999999  0.80451  1.0000
  C   C271      1.0  0.98022  0.9496599999999997  0.7675100000000002  1.0000
  C   C272      1.0  0.03001000000000006  0.9370599999999998  0.72167  1.0000
  C   C273      1.0  0.9944700000000001  0.94487  0.68111  1.0000
  C   C274      1.0  0.29390000000000005  0.4131199999999999  0.08618000000000003  1.0000
  C   C275      1.0  0.35235000000000005  0.3705599999999999  0.09128000000000001  1.0000
  C   C276      1.0  0.4346200000000001  0.3644499999999999  0.07011  1.0000
  C   C277      1.0  0.4616400000000001  0.4004099999999999  0.04286  1.0000
  C   C278      1.0  0.40488999999999997  0.4418  0.03624  1.0000
  C   C279      1.0  0.3209900000000001  0.4488899999999999  0.057040000000000014  1.0000
  C   C280      1.0  0.26510000000000006  0.49296999999999996  0.04711000000000001  1.0000
  C   C281      1.0  0.06341000000000001  0.5560499999999999  0.08274  1.0000
  C   C282      1.0  0.003929999999999945  0.60206  0.07746000000000003  1.0000
  C   C283      1.0  0.17915000000000006  0.6697799999999999  0.023600000000000006  1.0000
  C   C284      1.0  0.19615999999999997  0.70047  0.04987  1.0000
  C   C285      1.0  0.15519000000000002  0.7482299999999998  0.052780000000000014  1.0000
  C   C286      1.0  0.09487000000000002  0.76729  0.030140000000000007  1.0000
  C   C287      1.0  0.07683000000000008  0.7376599999999999  0.00458  1.0000
  C   C288      1.0  0.1184400000000001  0.6891599999999998  0.00018000000000000004  1.0000
  C   C289      1.0  0.09955999999999994  0.66121  0.96993  1.0000
  C   C290      1.0  0.1617700000000001  0.54939  0.92476  1.0000
  C   C291      1.0  0.15303000000000005  0.5203299999999998  0.88934  1.0000
  C   C292      1.0  0.39486999999999994  0.54037  0.91562  1.0000
  C   C293      1.0  0.4631699999999998  0.54268  0.8792000000000002  1.0000
  C   C294      1.0  0.33402000000000004  0.6199399999999998  0.9104400000000001  1.0000
  C   C295      1.0  0.40012000000000014  0.6250599999999997  0.87382  1.0000
  C   C296      1.0  0.4670900000000001  0.58582  0.85735  1.0000
  C   C297      1.0  0.5391000000000001  0.5905399999999997  0.81744  1.0000
  C   C298      1.0  0.94907  0.34752  0.18502000000000005  1.0000
  C   C299      1.0  0.9127100000000001  0.32287  0.22404  1.0000
  C   C300      1.0  0.9164199999999999  0.3290199999999999  0.26879000000000003  1.0000
  C   C301      1.0  0.95627  0.35996  0.27649  1.0000
  C   C302      1.0  0.99148  0.38474999999999987  0.23868000000000006  1.0000
  C   C303      1.0  0.9885599999999999  0.37956999999999996  0.19281  1.0000
  C   C304      1.0  0.026810000000000035  0.4073099999999999  0.15517000000000006  1.0000
  C   C305      1.0  0.07317999999999997  0.42092999999999997  0.03463000000000001  1.0000
  C   C306      1.0  0.11154000000000003  0.4477799999999999  0.99424  1.0000
  C   C307      1.0  0.8058999999999997  0.5909999999999997  0.74518  1.0000
  C   C308      1.0  0.74444  0.58417  0.78412  1.0000
  C   C309      1.0  0.76062  0.55827  0.69544  1.0000
  C   C310      1.0  0.69756  0.55037  0.73247  1.0000
  C   C311      1.0  0.6888999999999996  0.56289  0.7783100000000001  1.0000
  C   C312      1.0  0.62053  0.55509  0.81888  1.0000
  N   N1        1.0  0.8122000000000001  0.9314899999999998  0.0026000000000000007  1.0000
  N   N2        1.0  0.8136199999999999  0.94328  0.04663  1.0000
  N   N3        1.0  0.74188  0.0385  0.11598000000000003  1.0000
  N   N4        1.0  0.78068  0.07238999999999997  0.09485000000000003  1.0000
  N   N5        1.0  0.59037  0.06851999999999998  0.07837  1.0000
  N   N6        1.0  0.06896999999999999  0.8893399999999999  0.9019100000000002  1.0000
  N   N7        1.0  0.0012200000000000548  0.9219999999999998  0.9303300000000001  1.0000
  N   N8        1.0  0.10750000000000005  0.2984099999999999  0.07770000000000002  1.0000
  N   N9        1.0  0.7463799999999997  0.56849  0.49746  1.0000
  N   N10       1.0  0.80348  0.5568  0.4533500000000001  1.0000
  N   N11       1.0  0.8961399999999999  0.4614799999999999  0.3840300000000001  1.0000
  N   N12       1.0  0.94762  0.42745999999999995  0.40509  1.0000
  N   N13       1.0  0.7372799999999995  0.43136  0.4216800000000001  1.0000
  N   N14       1.0  0.86038  0.6106  0.59817  1.0000
  N   N15       1.0  0.8536500000000001  0.5779299999999998  0.56983  1.0000
  N   N16       1.0  0.48372000000000004  0.20149  0.42210000000000003  1.0000
  N   N17       1.0  0.24361000000000002  0.00262  0.56852  1.0000
  N   N18       1.0  0.25647999999999993  0.046749999999999986  0.55693  1.0000
  N   N19       1.0  0.28021999999999997  0.11591  0.46150000000000013  1.0000
  N   N20       1.0  0.3529  0.0948  0.42755  1.0000
  N   N21       1.0  0.15895  0.07833  0.43137  1.0000
  N   N22       1.0  0.45824  0.90198  0.61071  1.0000
  N   N23       1.0  0.42319000000000007  0.9302899999999998  0.57801  1.0000
  N   N24       1.0  0.9059600000000001  0.07781999999999997  0.20154  1.0000
  N   N25       1.0  0.8150799999999998  0.4974499999999999  0.9315100000000002  1.0000
  N   N26       1.0  0.86057  0.4533599999999999  0.94317  1.0000
  N   N27       1.0  0.8577500000000001  0.3840999999999999  0.038460000000000015  1.0000
  N   N28       1.0  0.87519  0.40516999999999986  0.07246  1.0000
  N   N29       1.0  0.66874  0.42165999999999987  0.06853  1.0000
  N   N30       1.0  0.9708099999999998  0.59819  0.88932  1.0000
  N   N31       1.0  0.9313399999999998  0.5699  0.92206  1.0000
  N   N32       1.0  0.18517999999999998  0.42211  0.29854  1.0000
  N   N33       1.0  0.18779999999999983  0.06851  0.9974000000000002  1.0000
  N   N34       1.0  0.18636999999999984  0.056719999999999986  0.9533700000000003  1.0000
  N   N35       1.0  0.2581100000000002  0.9615099999999998  0.88402  1.0000
  N   N36       1.0  0.21931999999999988  0.92762  0.9051500000000002  1.0000
  N   N37       1.0  0.4096300000000001  0.9314799999999998  0.92163  1.0000
  N   N38       1.0  0.9310200000000001  0.11066  0.09809  1.0000
  N   N39       1.0  0.99877  0.07799999999999997  0.06967000000000001  1.0000
  N   N40       1.0  0.8924900000000002  0.7015899999999998  0.9223000000000002  1.0000
  N   N41       1.0  0.25362  0.4315199999999999  0.5025400000000001  1.0000
  N   N42       1.0  0.19651  0.44319999999999987  0.54665  1.0000
  N   N43       1.0  0.10385000000000004  0.53852  0.61597  1.0000
  N   N44       1.0  0.052369999999999965  0.57255  0.59491  1.0000
  N   N45       1.0  0.2627099999999999  0.56864  0.5783200000000001  1.0000
  N   N46       1.0  0.13962000000000002  0.38941  0.40183  1.0000
  N   N47       1.0  0.1463400000000001  0.4220699999999999  0.43017  1.0000
  N   N48       1.0  0.51627  0.79852  0.5779000000000002  1.0000
  N   N49       1.0  0.7563900000000001  0.9973799999999998  0.43148  1.0000
  N   N50       1.0  0.7435099999999998  0.95325  0.44307000000000013  1.0000
  N   N51       1.0  0.7197799999999999  0.88409  0.5385  1.0000
  N   N52       1.0  0.6470900000000002  0.9052  0.57245  1.0000
  N   N53       1.0  0.8410400000000001  0.9216699999999998  0.56863  1.0000
  N   N54       1.0  0.54176  0.09802  0.38929  1.0000
  N   N55       1.0  0.57681  0.06971  0.4219900000000001  1.0000
  N   N56       1.0  0.09403000000000004  0.92218  0.79846  1.0000
  N   N57       1.0  0.18491  0.50255  0.06849  1.0000
  N   N58       1.0  0.13942  0.54664  0.05683  1.0000
  N   N59       1.0  0.14223999999999992  0.6158999999999999  0.96154  1.0000
  N   N60       1.0  0.12479999999999983  0.59483  0.9275400000000003  1.0000
  N   N61       1.0  0.33125  0.57834  0.93147  1.0000
  N   N62       1.0  0.029179999999999994  0.40182  0.11068000000000003  1.0000
  N   N63       1.0  0.06865000000000007  0.43009999999999987  0.07794000000000002  1.0000
  N   N64       1.0  0.81481  0.57789  0.70146  1.0000
  O   O1        1.0  0.8661900000000002  0.8904399999999998  0.91714  1.0000
  O   O2        1.0  0.68374  0.98237  0.02233  1.0000
  O   O3        1.0  0.9354700000000001  0.88596  0.025600000000000008  1.0000
  O   O4        1.0  0.655  0.97725  0.12453  1.0000
  O   O5        1.0  0.7773999999999999  0.04924  0.18075  1.0000
  O   O6        1.0  0.7631  0.04858999999999999  0.028970000000000006  1.0000
  O   O7        1.0  0.21820000000000003  0.85666  0.83933  1.0000
  O   O8        1.0  0.0039000000000000944  0.8348699999999998  0.9374500000000002  1.0000
  O   O9        1.0  0.06629999999999979  0.97404  0.8883300000000002  1.0000
  O   O10       1.0  0.6737499999999998  0.6095099999999998  0.5828400000000002  1.0000
  O   O11       1.0  0.6885899999999999  0.51762  0.4777500000000001  1.0000
  O   O12       1.0  0.8476700000000001  0.61375  0.4744800000000001  1.0000
  O   O13       1.0  0.7559099999999999  0.52255  0.37545  1.0000
  O   O14       1.0  0.007180000000000031  0.4506699999999999  0.31919  1.0000
  O   O15       1.0  0.8409500000000004  0.4520999999999999  0.4711  1.0000
  O   O16       1.0  0.9138699999999996  0.6433  0.6608  1.0000
  O   O17       1.0  0.77706  0.66508  0.56228  1.0000
  O   O18       1.0  0.92913  0.52589  0.61165  1.0000
  O   O19       1.0  0.25607999999999986  0.9172599999999997  0.6097700000000003  1.0000
  O   O20       1.0  0.16607999999999998  0.022329999999999992  0.51768  1.0000
  O   O21       1.0  0.32185  0.025459999999999993  0.61382  1.0000
  O   O22       1.0  0.13186999999999996  0.12454999999999997  0.52266  1.0000
  O   O23       1.0  0.32624999999999993  0.18076  0.4505800000000001  1.0000
  O   O24       1.0  0.31194  0.028889999999999992  0.45208  1.0000
  O   O25       1.0  0.5740500000000001  0.8390499999999997  0.64328  1.0000
  O   O26       1.0  0.33854999999999996  0.93761  0.66514  1.0000
  O   O27       1.0  0.5404600000000005  0.8883299999999997  0.52602  1.0000
  O   O28       1.0  0.7834100000000002  0.5828199999999998  0.8903500000000002  1.0000
  O   O29       1.0  0.70632  0.47771  0.9823200000000002  1.0000
  O   O30       1.0  0.9616799999999998  0.47443  0.8860400000000003  1.0000
  O   O31       1.0  0.7786700000000001  0.37547  0.97752  1.0000
  O   O32       1.0  0.95718  0.3191799999999999  0.04979  1.0000
  O   O33       1.0  0.7929200000000001  0.4711399999999999  0.047960000000000017  1.0000
  O   O34       1.0  0.05626999999999991  0.66096  0.85669  1.0000
  O   O35       1.0  0.9412699999999999  0.56258  0.8349  1.0000
  O   O36       1.0  0.9554699999999999  0.61146  0.974  1.0000
  O   O37       1.0  0.13379999999999997  0.10956  0.08286000000000002  1.0000
  O   O38       1.0  0.31625  0.017629999999999996  0.97767  1.0000
  O   O39       1.0  0.06452999999999985  0.11404  0.9743900000000002  1.0000
  O   O40       1.0  0.34499  0.02275  0.87547  1.0000
  O   O41       1.0  0.22258999999999982  0.95076  0.8192500000000003  1.0000
  O   O42       1.0  0.23689  0.9514199999999998  0.97103  1.0000
  O   O43       1.0  0.7818  0.14334  0.16067  1.0000
  O   O44       1.0  0.9961000000000001  0.16512999999999997  0.06255  1.0000
  O   O45       1.0  0.9337  0.025959999999999993  0.11167  1.0000
  O   O46       1.0  0.32624  0.39048999999999995  0.4171600000000001  1.0000
  O   O47       1.0  0.3114  0.48239  0.52225  1.0000
  O   O48       1.0  0.15232  0.38625  0.52552  1.0000
  O   O49       1.0  0.2440799999999999  0.4774499999999999  0.6245500000000003  1.0000
  O   O50       1.0  0.99281  0.54933  0.68081  1.0000
  O   O51       1.0  0.15905  0.5479  0.5289  1.0000
  O   O52       1.0  0.08612000000000003  0.3567  0.3392  1.0000
  O   O53       1.0  0.22293999999999994  0.33493  0.43772  1.0000
  O   O54       1.0  0.07086000000000008  0.47410999999999986  0.38835  1.0000
  O   O55       1.0  0.74392  0.08274  0.39023000000000013  1.0000
  O   O56       1.0  0.83391  0.9776699999999998  0.48232  1.0000
  O   O57       1.0  0.67814  0.9745499999999999  0.38618  1.0000
  O   O58       1.0  0.86812  0.87545  0.47734  1.0000
  O   O59       1.0  0.6737500000000003  0.8192399999999997  0.54942  1.0000
  O   O60       1.0  0.68806  0.9711099999999999  0.54792  1.0000
  O   O61       1.0  0.42593999999999993  0.16094999999999995  0.35672  1.0000
  O   O62       1.0  0.66145  0.06239  0.3348600000000001  1.0000
  O   O63       1.0  0.45954  0.11167  0.4739800000000001  1.0000
  O   O64       1.0  0.21658  0.41718  0.10965000000000003  1.0000
  O   O65       1.0  0.29367  0.52229  0.01768  1.0000
  O   O66       1.0  0.038309999999999976  0.52557  0.11396  1.0000
  O   O67       1.0  0.22131999999999996  0.62453  0.022480000000000003  1.0000
  O   O68       1.0  0.0428199999999999  0.6808199999999999  0.9502000000000003  1.0000
  O   O69       1.0  0.20706999999999995  0.52886  0.95204  1.0000
  O   O70       1.0  0.94373  0.33903999999999995  0.14331  1.0000
  O   O71       1.0  0.05873000000000001  0.43742  0.1651  1.0000
  O   O72       1.0  0.04453000000000004  0.3885399999999999  0.026000000000000006  1.0000
