data_image0
_chemical_formula_structural       Cu32H144C304N32O128
_chemical_formula_sum              "Cu32 H144 C304 N32 O128"
_cell_length_a       25.5045
_cell_length_b       25.5155
_cell_length_c       32.66386
_cell_angle_alpha    112.97517
_cell_angle_beta     112.98772999999998
_cell_angle_gamma    89.99551

_symmetry_space_group_name_H-M    'P 1'
_symmetry_Int_Tables_number       1

loop_
  _symmetry_equiv_pos_as_xyz
  'x,y,z'

loop_
  _atom_site_type_symbol
  _atom_site_label
  _atom_site_symmetry_multiplicity
  _atom_site_fract_x
  _atom_site_fract_y
  _atom_site_fract_z
  _atom_site_occupancy
  Cu  Cu1       1.0  0.35458  0.57903  0.25182000000000004  1.0000
  Cu  Cu2       1.0  0.8991800000000001  0.17161  0.25194  1.0000
  Cu  Cu3       1.0  0.17181999999999994  0.35454999999999987  0.75228  1.0000
  Cu  Cu4       1.0  0.57926  0.89887  0.7519  1.0000
  Cu  Cu5       1.0  0.6455600000000001  0.82832  0.7476000000000002  1.0000
  Cu  Cu6       1.0  0.10144000000000011  0.42078  0.7484300000000002  1.0000
  Cu  Cu7       1.0  0.82851  0.10102  0.24791000000000002  1.0000
  Cu  Cu8       1.0  0.42104  0.6452399999999999  0.24814000000000003  1.0000
  Cu  Cu9       1.0  0.6453300000000002  0.42097999999999997  0.7481700000000001  1.0000
  Cu  Cu10      1.0  0.10081  0.82847  0.7480500000000001  1.0000
  Cu  Cu11      1.0  0.8282800000000001  0.64547  0.24778000000000003  1.0000
  Cu  Cu12      1.0  0.42073  0.10109999999999998  0.24816000000000002  1.0000
  Cu  Cu13      1.0  0.35446  0.17165  0.25232  1.0000
  Cu  Cu14      1.0  0.89881  0.57926  0.25167000000000006  1.0000
  Cu  Cu15      1.0  0.17150000000000004  0.89902  0.75206  1.0000
  Cu  Cu16      1.0  0.57903  0.3547299999999999  0.7519  1.0000
  Cu  Cu17      1.0  0.25919  0.8039399999999999  0.51901  1.0000
  Cu  Cu18      1.0  0.22822000000000003  0.7027099999999998  0.45679  1.0000
  Cu  Cu19      1.0  0.25928  0.2163399999999999  0.51915  1.0000
  Cu  Cu20      1.0  0.22793000000000002  0.25436  0.45641  1.0000
  Cu  Cu21      1.0  0.21619  0.25942  0.01913  1.0000
  Cu  Cu22      1.0  0.25441  0.22785  0.95661  1.0000
  Cu  Cu23      1.0  0.80423  0.25922999999999996  0.01922  1.0000
  Cu  Cu24      1.0  0.7032200000000001  0.2282300000000001  0.9570600000000002  1.0000
  Cu  Cu25      1.0  0.7404600000000001  0.7836899999999999  0.4807200000000001  1.0000
  Cu  Cu26      1.0  0.772  0.7456799999999999  0.54346  1.0000
  Cu  Cu27      1.0  0.7408600000000001  0.19601  0.4809800000000001  1.0000
  Cu  Cu28      1.0  0.77179  0.2972  0.54321  1.0000
  Cu  Cu29      1.0  0.78392  0.7407299999999999  0.98093  1.0000
  Cu  Cu30      1.0  0.7456399999999999  0.7721099999999999  0.04346  1.0000
  Cu  Cu31      1.0  0.19581000000000007  0.7408199999999999  0.98083  1.0000
  Cu  Cu32      1.0  0.29689  0.77179  0.04289  1.0000
  H   H1        1.0  0.31769  0.6981799999999999  0.36971  1.0000
  H   H2        1.0  0.36361  0.61836  0.5147  1.0000
  H   H3        1.0  0.52842  0.6642299999999998  0.64159  1.0000
  H   H4        1.0  0.42934000000000005  0.7954899999999999  0.6197600000000001  1.0000
  H   H5        1.0  0.4132900000000001  0.5460999999999999  0.48210000000000003  1.0000
  H   H6        1.0  0.34204  0.8815799999999998  0.45525  1.0000
  H   H7        1.0  0.41449  0.81541  0.34855  1.0000
  H   H8        1.0  0.4898500000000001  0.9064799999999998  0.4224700000000001  1.0000
  H   H9        1.0  0.053359999999999956  0.17032  0.37036  1.0000
  H   H10       1.0  0.15214  0.39741  0.51536  1.0000
  H   H11       1.0  0.11167999999999995  0.47797  0.64093  1.0000
  H   H12       1.0  0.18858000000000005  0.32486999999999994  0.6200800000000001  1.0000
  H   H13       1.0  0.0701  0.4374599999999999  0.48211000000000004  1.0000
  H   H14       1.0  0.11380000000000004  0.07341000000000007  0.4568800000000001  1.0000
  H   H15       1.0  0.93513  0.0322  0.34938  1.0000
  H   H16       1.0  0.9332300000000002  0.016310000000000022  0.4232700000000001  1.0000
  H   H17       1.0  0.17106000000000016  0.31756  0.8705000000000003  1.0000
  H   H18       1.0  0.39687  0.36346999999999996  0.01417  1.0000
  H   H19       1.0  0.47823  0.5281499999999999  0.14121  1.0000
  H   H20       1.0  0.32487  0.42974  0.11936  1.0000
  H   H21       1.0  0.43719  0.41288  0.98175  1.0000
  H   H22       1.0  0.07300999999999999  0.34195000000000003  0.95599  1.0000
  H   H23       1.0  0.0328300000000001  0.41467999999999994  0.8495400000000001  1.0000
  H   H24       1.0  0.016240000000000004  0.49006  0.92373  1.0000
  H   H25       1.0  0.6991799999999999  0.05252999999999996  0.87035  1.0000
  H   H26       1.0  0.61873  0.15208999999999998  0.015450000000000004  1.0000
  H   H27       1.0  0.66395  0.11169999999999998  0.14103  1.0000
  H   H28       1.0  0.79606  0.18907999999999994  0.12030000000000002  1.0000
  H   H29       1.0  0.54607  0.06978000000000001  0.98232  1.0000
  H   H30       1.0  0.88291  0.11280999999999991  0.95606  1.0000
  H   H31       1.0  0.81577  0.9340899999999999  0.8489100000000002  1.0000
  H   H32       1.0  0.90714  0.9322899999999998  0.92301  1.0000
  H   H33       1.0  0.68241  0.8293299999999998  0.62974  1.0000
  H   H34       1.0  0.6365900000000002  0.6034  0.48587000000000014  1.0000
  H   H35       1.0  0.47199  0.52141  0.35870000000000013  1.0000
  H   H36       1.0  0.56997  0.675  0.3805000000000001  1.0000
  H   H37       1.0  0.5870700000000002  0.5625799999999999  0.5182  1.0000
  H   H38       1.0  0.65801  0.9268999999999997  0.54393  1.0000
  H   H39       1.0  0.58556  0.9677199999999996  0.65067  1.0000
  H   H40       1.0  0.51031  0.9841399999999998  0.57685  1.0000
  H   H41       1.0  0.94731  0.3008900000000001  0.6297000000000003  1.0000
  H   H42       1.0  0.84782  0.3813199999999999  0.48444  1.0000
  H   H43       1.0  0.88798  0.33601000000000003  0.3587100000000001  1.0000
  H   H44       1.0  0.81123  0.20400999999999997  0.3799900000000001  1.0000
  H   H45       1.0  0.93005  0.45391999999999993  0.51761  1.0000
  H   H46       1.0  0.88732  0.11728  0.54417  1.0000
  H   H47       1.0  0.06591000000000008  0.18439999999999998  0.65165  1.0000
  H   H48       1.0  0.06806  0.09322  0.57777  1.0000
  H   H49       1.0  0.8294900000000002  0.9470199999999999  0.12948  1.0000
  H   H50       1.0  0.60284  0.8479299999999997  0.98468  1.0000
  H   H51       1.0  0.52233  0.88899  0.8594800000000002  1.0000
  H   H52       1.0  0.67522  0.8115899999999999  0.87984  1.0000
  H   H53       1.0  0.5627  0.9300999999999999  0.01804  1.0000
  H   H54       1.0  0.92662  0.8861199999999999  0.04316000000000001  1.0000
  H   H55       1.0  0.9674800000000001  0.06497  0.15003  1.0000
  H   H56       1.0  0.98334  0.06664  0.07619  1.0000
  H   H57       1.0  0.30183  0.6825099999999998  0.13039  1.0000
  H   H58       1.0  0.38195  0.63646  0.98552  1.0000
  H   H59       1.0  0.3358400000000001  0.47178  0.8586000000000003  1.0000
  H   H60       1.0  0.20462999999999992  0.57088  0.88039  1.0000
  H   H61       1.0  0.45419  0.5868799999999998  0.01809  1.0000
  H   H62       1.0  0.11828  0.65787  0.04468  1.0000
  H   H63       1.0  0.18463000000000004  0.58518  0.15117000000000005  1.0000
  H   H64       1.0  0.09336000000000001  0.51001  0.07719000000000002  1.0000
  H   H65       1.0  0.6823400000000001  0.3017  0.6302600000000003  1.0000
  H   H66       1.0  0.63647  0.3816999999999999  0.48534  1.0000
  H   H67       1.0  0.4716100000000001  0.33575000000000005  0.3584900000000001  1.0000
  H   H68       1.0  0.57071  0.20452000000000004  0.3802600000000001  1.0000
  H   H69       1.0  0.58675  0.45393  0.51797  1.0000
  H   H70       1.0  0.6577900000000001  0.11822000000000003  0.5447  1.0000
  H   H71       1.0  0.58544  0.18464999999999998  0.65144  1.0000
  H   H72       1.0  0.51014  0.09352  0.57775  1.0000
  H   H73       1.0  0.94668  0.8295699999999999  0.6295  1.0000
  H   H74       1.0  0.8477700000000001  0.60246  0.48455  1.0000
  H   H75       1.0  0.88811  0.52187  0.3589500000000001  1.0000
  H   H76       1.0  0.8114500000000001  0.67508  0.37985000000000013  1.0000
  H   H77       1.0  0.9297  0.56252  0.51788  1.0000
  H   H78       1.0  0.88621  0.9267499999999999  0.54321  1.0000
  H   H79       1.0  0.06493999999999994  0.9676599999999997  0.65052  1.0000
  H   H80       1.0  0.06686000000000002  0.9837499999999998  0.57684  1.0000
  H   H81       1.0  0.82937  0.6825399999999999  0.12991  1.0000
  H   H82       1.0  0.6035400000000002  0.63658  0.9860100000000003  1.0000
  H   H83       1.0  0.5218800000000001  0.47200000000000003  0.8588500000000002  1.0000
  H   H84       1.0  0.67519  0.5704299999999999  0.8806  1.0000
  H   H85       1.0  0.56294  0.5871299999999999  0.01829  1.0000
  H   H86       1.0  0.92674  0.65786  0.043830000000000015  1.0000
  H   H87       1.0  0.96746  0.58518  0.15037  1.0000
  H   H88       1.0  0.98403  0.51007  0.07651  1.0000
  H   H89       1.0  0.30081  0.9475999999999999  0.12961  1.0000
  H   H90       1.0  0.38136  0.84797  0.98453  1.0000
  H   H91       1.0  0.33604000000000017  0.8883199999999999  0.8589400000000003  1.0000
  H   H92       1.0  0.20398000000000005  0.81097  0.87974  1.0000
  H   H93       1.0  0.45392  0.9302199999999999  0.017700000000000004  1.0000
  H   H94       1.0  0.11706000000000003  0.88727  0.04393000000000001  1.0000
  H   H95       1.0  0.18408000000000005  0.06590000000000001  0.15113000000000004  1.0000
  H   H96       1.0  0.09288  0.06781999999999999  0.07707000000000003  1.0000
  H   H97       1.0  0.31763  0.17052999999999993  0.37015  1.0000
  H   H98       1.0  0.36336  0.39698  0.51423  1.0000
  H   H99       1.0  0.52807  0.4783899999999999  0.64136  1.0000
  H   H100      1.0  0.42966000000000015  0.32496  0.6193700000000002  1.0000
  H   H101      1.0  0.4129  0.4374499999999999  0.48193  1.0000
  H   H102      1.0  0.34193  0.07315999999999998  0.45611  1.0000
  H   H103      1.0  0.41438  0.032029999999999975  0.34937  1.0000
  H   H104      1.0  0.48971  0.01586000000000004  0.4233400000000001  1.0000
  H   H105      1.0  0.05272  0.69911  0.37027  1.0000
  H   H106      1.0  0.15208  0.6186599999999999  0.51555  1.0000
  H   H107      1.0  0.11199000000000006  0.6640199999999998  0.64131  1.0000
  H   H108      1.0  0.18900000000000006  0.7959499999999998  0.6201200000000001  1.0000
  H   H109      1.0  0.06987000000000004  0.54614  0.48244000000000004  1.0000
  H   H110      1.0  0.11269999999999995  0.8827499999999999  0.45597  1.0000
  H   H111      1.0  0.9341300000000001  0.81562  0.34845  1.0000
  H   H112      1.0  0.9319700000000001  0.9068  0.4222800000000001  1.0000
  H   H113      1.0  0.1705299999999999  0.05307999999999997  0.87047  1.0000
  H   H114      1.0  0.39718999999999993  0.15201999999999996  0.01535  1.0000
  H   H115      1.0  0.47778000000000004  0.11128999999999997  0.1407  1.0000
  H   H116      1.0  0.32484  0.18859  0.12024000000000003  1.0000
  H   H117      1.0  0.43732  0.06995000000000003  0.98201  1.0000
  H   H118      1.0  0.07339000000000014  0.11387000000000011  0.9568200000000002  1.0000
  H   H119      1.0  0.03263000000000008  0.9350299999999999  0.8499300000000001  1.0000
  H   H120      1.0  0.016569999999999984  0.9333299999999998  0.92372  1.0000
  H   H121      1.0  0.69833  0.3177799999999999  0.86984  1.0000
  H   H122      1.0  0.6181  0.36357  0.014580000000000003  1.0000
  H   H123      1.0  0.6642  0.52834  0.14137  1.0000
  H   H124      1.0  0.79547  0.42931  0.11968000000000002  1.0000
  H   H125      1.0  0.54589  0.4130399999999999  0.98193  1.0000
  H   H126      1.0  0.8818900000000001  0.34214999999999995  0.95537  1.0000
  H   H127      1.0  0.8155200000000002  0.41490999999999995  0.8489200000000001  1.0000
  H   H128      1.0  0.90701  0.4902799999999999  0.92314  1.0000
  H   H129      1.0  0.47547000000000006  0.5650699999999997  0.62947  1.0000
  H   H130      1.0  0.15448000000000014  0.5650400000000001  0.6296500000000003  1.0000
  H   H131      1.0  0.5648600000000001  0.4750199999999999  0.12922000000000003  1.0000
  H   H132      1.0  0.5649300000000002  0.15433  0.12957000000000002  1.0000
  H   H133      1.0  0.52473  0.4349999999999999  0.37062  1.0000
  H   H134      1.0  0.8455799999999998  0.43488999999999994  0.37034  1.0000
  H   H135      1.0  0.43515  0.8457599999999998  0.87048  1.0000
  H   H136      1.0  0.43528  0.52524  0.87084  1.0000
  H   H137      1.0  0.32228  0.9489499999999997  0.39913  1.0000
  H   H138      1.0  0.07618000000000004  0.9488099999999999  0.39892  1.0000
  H   H139      1.0  0.94901  0.32254  0.89895  1.0000
  H   H140      1.0  0.94909  0.0763199999999999  0.89949  1.0000
  H   H141      1.0  0.67762  0.051000000000000004  0.60081  1.0000
  H   H142      1.0  0.9238900000000002  0.05122000000000007  0.6011300000000003  1.0000
  H   H143      1.0  0.05096000000000001  0.9238499999999998  0.10065000000000002  1.0000
  H   H144      1.0  0.050910000000000004  0.67743  0.10075000000000002  1.0000
  C   C1        1.0  0.37677000000000005  0.7015199999999999  0.31699000000000005  1.0000
  C   C2        1.0  0.48351  0.7341699999999999  0.6349600000000001  1.0000
  C   C3        1.0  0.36825  0.7517999999999998  0.35612  1.0000
  C   C4        1.0  0.33577  0.7421299999999998  0.3793400000000001  1.0000
  C   C5        1.0  0.32654999999999995  0.7889299999999999  0.41499000000000014  1.0000
  C   C6        1.0  0.2938  0.7776099999999998  0.44103  1.0000
  C   C7        1.0  0.33764  0.72435  0.53466  1.0000
  C   C8        1.0  0.39177  0.70838  0.56368  1.0000
  C   C9        1.0  0.39805  0.6504  0.54792  1.0000
  C   C10       1.0  0.44662  0.6343199999999998  0.57626  1.0000
  C   C11       1.0  0.48983000000000015  0.6759599999999998  0.6198100000000002  1.0000
  C   C12       1.0  0.43444000000000005  0.7504299999999998  0.60734  1.0000
  C   C13       1.0  0.42614  0.5334  0.51209  1.0000
  C   C14       1.0  0.34885  0.84575  0.42699  1.0000
  C   C15       1.0  0.38061000000000006  0.8549400000000001  0.40309000000000006  1.0000
  C   C16       1.0  0.39089000000000007  0.8084099999999997  0.36797  1.0000
  C   C17       1.0  0.45586000000000004  0.9319399999999998  0.41806000000000004  1.0000
  C   C18       1.0  0.53066  0.7799499999999998  0.6801  1.0000
  C   C19       1.0  0.9415900000000001  0.11390000000000003  0.3170300000000001  1.0000
  C   C20       1.0  0.15021000000000007  0.4016700000000001  0.6349700000000001  1.0000
  C   C21       1.0  0.9889900000000001  0.10313  0.35656  1.0000
  C   C22       1.0  0.04466000000000002  0.13610000000000008  0.3800000000000001  1.0000
  C   C23       1.0  0.08932000000000002  0.12534000000000006  0.4161100000000001  1.0000
  C   C24       1.0  0.14802000000000004  0.1627799999999999  0.44221  1.0000
  C   C25       1.0  0.19615  0.31042999999999993  0.53506  1.0000
  C   C26       1.0  0.17109000000000002  0.35575  0.56391  1.0000
  C   C27       1.0  0.14994  0.3983099999999999  0.5482  1.0000
  C   C28       1.0  0.12944  0.44273999999999997  0.57625  1.0000
  C   C29       1.0  0.12902000000000002  0.4446300000000001  0.6195800000000001  1.0000
  C   C30       1.0  0.17159000000000002  0.3575499999999999  0.6074900000000001  1.0000
  C   C31       1.0  0.08679999999999999  0.48002  0.51225  1.0000
  C   C32       1.0  0.07890999999999997  0.08082  0.42838  1.0000
  C   C33       1.0  0.02332  0.047619999999999975  0.40416  1.0000
  C   C34       1.0  0.9780800000000001  0.058679999999999996  0.36868  1.0000
  C   C35       1.0  0.9623100000000001  0.98598  0.41859  1.0000
  C   C36       1.0  0.14820000000000005  0.40128999999999987  0.68021  1.0000
  C   C37       1.0  0.11507000000000014  0.37662  0.8178100000000003  1.0000
  C   C38       1.0  0.40168  0.48340999999999995  0.13465  1.0000
  C   C39       1.0  0.10387  0.3681499999999999  0.85693  1.0000
  C   C40       1.0  0.13666999999999996  0.33557  0.88008  1.0000
  C   C41       1.0  0.12546000000000013  0.32646000000000003  0.9157700000000002  1.0000
  C   C42       1.0  0.1629700000000001  0.29398  0.94202  1.0000
  C   C43       1.0  0.31074  0.33779  0.03418  1.0000
  C   C44       1.0  0.35577  0.3918899999999999  0.06314  1.0000
  C   C45       1.0  0.39805  0.39800999999999986  0.04736  1.0000
  C   C46       1.0  0.44255  0.44649  0.07573000000000002  1.0000
  C   C47       1.0  0.44469  0.48962  0.11941  1.0000
  C   C48       1.0  0.35758  0.43454  0.10691  1.0000
  C   C49       1.0  0.47979  0.42597  0.01182  1.0000
  C   C50       1.0  0.08062000000000001  0.34876999999999997  0.92775  1.0000
  C   C51       1.0  0.04763000000000008  0.38059  0.9038600000000002  1.0000
  C   C52       1.0  0.05915000000000001  0.39089  0.86881  1.0000
  C   C53       1.0  0.98595  0.45610999999999996  0.9188300000000001  1.0000
  C   C54       1.0  0.40157  0.5303099999999998  0.18014000000000002  1.0000
  C   C55       1.0  0.7021200000000002  0.9411599999999999  0.8168100000000003  1.0000
  C   C56       1.0  0.73419  0.15014999999999998  0.13495000000000001  1.0000
  C   C57       1.0  0.75254  0.98832  0.85647  1.0000
  C   C58       1.0  0.74313  0.04402000000000005  0.87996  1.0000
  C   C59       1.0  0.79016  0.08864000000000005  0.9157200000000002  1.0000
  C   C60       1.0  0.77935  0.1477  0.9417  1.0000
  C   C61       1.0  0.72551  0.19638999999999998  0.03521  1.0000
  C   C62       1.0  0.70899  0.17150999999999994  0.06414  1.0000
  C   C63       1.0  0.6507299999999999  0.15019999999999997  0.048410000000000016  1.0000
  C   C64       1.0  0.63435  0.12962  0.07642  1.0000
  C   C65       1.0  0.67584  0.12901999999999997  0.11963000000000003  1.0000
  C   C66       1.0  0.75082  0.17193999999999998  0.10768000000000003  1.0000
  C   C67       1.0  0.5333  0.08663  0.01226  1.0000
  C   C68       1.0  0.8468600000000002  0.07796000000000007  0.9278100000000002  1.0000
  C   C69       1.0  0.8557300000000001  0.02223000000000009  0.9038300000000002  1.0000
  C   C70       1.0  0.80903  0.9771499999999999  0.86847  1.0000
  C   C71       1.0  0.9326100000000003  0.96188  0.9186500000000002  1.0000
  C   C72       1.0  0.77975  0.14752999999999997  0.17992000000000002  1.0000
  C   C73       1.0  0.62346  0.88505  0.68228  1.0000
  C   C74       1.0  0.5165100000000001  0.5980999999999999  0.3652100000000001  1.0000
  C   C75       1.0  0.6319  0.8965099999999999  0.64326  1.0000
  C   C76       1.0  0.6644400000000001  0.8636899999999997  0.6201200000000001  1.0000
  C   C77       1.0  0.67358  0.8746899999999997  0.58437  1.0000
  C   C78       1.0  0.70615  0.8370499999999997  0.5583  1.0000
  C   C79       1.0  0.66192  0.6893999999999999  0.4657600000000001  1.0000
  C   C80       1.0  0.6079300000000001  0.64424  0.4367900000000001  1.0000
  C   C81       1.0  0.60198  0.6019699999999999  0.4525900000000001  1.0000
  C   C82       1.0  0.5536200000000002  0.55733  0.42419000000000007  1.0000
  C   C83       1.0  0.51041  0.5551  0.3804800000000001  1.0000
  C   C84       1.0  0.56525  0.6423299999999998  0.39298  1.0000
  C   C85       1.0  0.57408  0.52003  0.4881000000000001  1.0000
  C   C86       1.0  0.6512700000000001  0.91946  0.57228  1.0000
  C   C87       1.0  0.61955  0.9525599999999999  0.59621  1.0000
  C   C88       1.0  0.6092500000000001  0.94125  0.6313800000000003  1.0000
  C   C89       1.0  0.54419  0.014410000000000034  0.5816300000000001  1.0000
  C   C90       1.0  0.46958  0.59838  0.3198  1.0000
  C   C91       1.0  0.058779999999999916  0.29815  0.68353  1.0000
  C   C92       1.0  0.84984  0.26576  0.36503000000000013  1.0000
  C   C93       1.0  0.011680000000000045  0.24767999999999987  0.64388  1.0000
  C   C94       1.0  0.95596  0.2570200000000001  0.6202400000000001  1.0000
  C   C95       1.0  0.91138  0.20994999999999997  0.58446  1.0000
  C   C96       1.0  0.85236  0.22062999999999994  0.55825  1.0000
  C   C97       1.0  0.80382  0.2747899999999999  0.46505000000000013  1.0000
  C   C98       1.0  0.82859  0.29111  0.4359400000000001  1.0000
  C   C99       1.0  0.8498100000000001  0.34930000000000005  0.4515400000000001  1.0000
  C   C100      1.0  0.87032  0.36557999999999996  0.4234400000000001  1.0000
  C   C101      1.0  0.8708100000000002  0.3240900000000001  0.3801900000000001  1.0000
  C   C102      1.0  0.8282400000000001  0.24922999999999998  0.39246  1.0000
  C   C103      1.0  0.9131700000000003  0.46658999999999995  0.4876200000000001  1.0000
  C   C104      1.0  0.9221200000000002  0.15332000000000004  0.5724900000000002  1.0000
  C   C105      1.0  0.97785  0.14453  0.59662  1.0000
  C   C106      1.0  0.022900000000000115  0.1912300000000001  0.6320400000000003  1.0000
  C   C107      1.0  0.03833999999999999  0.06771999999999995  0.58196  1.0000
  C   C108      1.0  0.8523000000000001  0.22014  0.32001  1.0000
  C   C109      1.0  0.88614  0.05872000000000003  0.18262000000000006  1.0000
  C   C110      1.0  0.59859  0.8503499999999998  0.86527  1.0000
  C   C111      1.0  0.89665  0.011230000000000004  0.14303  1.0000
  C   C112      1.0  0.8637  0.9555899999999998  0.11978000000000003  1.0000
  C   C113      1.0  0.87456  0.9108199999999999  0.08386  1.0000
  C   C114      1.0  0.8372  0.8521199999999998  0.05805  1.0000
  C   C115      1.0  0.6896800000000001  0.80387  0.9649800000000001  1.0000
  C   C116      1.0  0.64442  0.8289699999999998  0.93608  1.0000
  C   C117      1.0  0.60191  0.8501699999999998  0.95185  1.0000
  C   C118      1.0  0.5575  0.8708199999999998  0.92394  1.0000
  C   C119      1.0  0.55567  0.87153  0.88073  1.0000
  C   C120      1.0  0.6426400000000001  0.8286599999999998  0.8925400000000001  1.0000
  C   C121      1.0  0.52014  0.91339  0.9879100000000002  1.0000
  C   C122      1.0  0.9190300000000001  0.9211099999999999  0.07147  1.0000
  C   C123      1.0  0.95208  0.97674  0.09541000000000001  1.0000
  C   C124      1.0  0.941  0.02204  0.13079  1.0000
  C   C125      1.0  0.013710000000000007  0.037600000000000015  0.08088000000000002  1.0000
  C   C126      1.0  0.59866  0.8524999999999999  0.8199900000000001  1.0000
  C   C127      1.0  0.29839000000000004  0.6233199999999999  0.18305000000000005  1.0000
  C   C128      1.0  0.26595  0.51667  0.86521  1.0000
  C   C129      1.0  0.24817000000000003  0.6317399999999997  0.14381000000000002  1.0000
  C   C130      1.0  0.25786  0.6643199999999998  0.12065000000000001  1.0000
  C   C131      1.0  0.21101999999999996  0.6734099999999997  0.08491  1.0000
  C   C132      1.0  0.22219  0.70606  0.0587  1.0000
  C   C133      1.0  0.27579  0.66252  0.96539  1.0000
  C   C134      1.0  0.2918199999999999  0.60839  0.93648  1.0000
  C   C135      1.0  0.34984000000000004  0.6020899999999999  0.95228  1.0000
  C   C136      1.0  0.36589999999999995  0.5535399999999999  0.92394  1.0000
  C   C137      1.0  0.32420000000000004  0.51038  0.88038  1.0000
  C   C138      1.0  0.24972000000000008  0.56578  0.8928  1.0000
  C   C139      1.0  0.46691000000000016  0.57398  0.9881200000000002  1.0000
  C   C140      1.0  0.15418  0.65103  0.07288  1.0000
  C   C141      1.0  0.14499000000000004  0.61923  0.09675000000000003  1.0000
  C   C142      1.0  0.19156000000000004  0.6089299999999997  0.13184  1.0000
  C   C143      1.0  0.06792999999999998  0.54397  0.08169  1.0000
  C   C144      1.0  0.22014000000000009  0.46954999999999997  0.8200800000000001  1.0000
  C   C145      1.0  0.6232000000000002  0.29848  0.68293  1.0000
  C   C146      1.0  0.5165100000000001  0.26585  0.36509000000000014  1.0000
  C   C147      1.0  0.6317400000000001  0.24813999999999994  0.64383  1.0000
  C   C148      1.0  0.6642000000000001  0.25776  0.6205900000000001  1.0000
  C   C149      1.0  0.67342  0.21090999999999993  0.58496  1.0000
  C   C150      1.0  0.70615  0.22219999999999998  0.5588800000000002  1.0000
  C   C151      1.0  0.6624300000000001  0.27564  0.46539000000000014  1.0000
  C   C152      1.0  0.6082900000000001  0.29161  0.4363700000000001  1.0000
  C   C153      1.0  0.6020500000000002  0.3496099999999999  0.4521200000000001  1.0000
  C   C154      1.0  0.55348  0.3657  0.4238100000000001  1.0000
  C   C155      1.0  0.51024  0.3240799999999999  0.3802600000000001  1.0000
  C   C156      1.0  0.56562  0.24957999999999997  0.39268  1.0000
  C   C157      1.0  0.5739400000000001  0.46665  0.4879900000000001  1.0000
  C   C158      1.0  0.65103  0.15410999999999997  0.57294  1.0000
  C   C159      1.0  0.61931  0.14497999999999994  0.59689  1.0000
  C   C160      1.0  0.6090200000000002  0.19155000000000008  0.6319800000000002  1.0000
  C   C161      1.0  0.5441200000000002  0.06805000000000004  0.5820700000000001  1.0000
  C   C162      1.0  0.46932000000000007  0.22005999999999995  0.31999  1.0000
  C   C163      1.0  0.05842999999999994  0.88617  0.68297  1.0000
  C   C164      1.0  0.84979  0.5983099999999999  0.36503000000000013  1.0000
  C   C165      1.0  0.011039999999999998  0.8968299999999998  0.64338  1.0000
  C   C166      1.0  0.95537  0.86382  0.6198900000000002  1.0000
  C   C167      1.0  0.91069  0.8746199999999997  0.58381  1.0000
  C   C168      1.0  0.85194  0.8371999999999998  0.55771  1.0000
  C   C169      1.0  0.80374  0.68952  0.4649300000000001  1.0000
  C   C170      1.0  0.8287400000000001  0.6441799999999999  0.43602000000000013  1.0000
  C   C171      1.0  0.84996  0.6016499999999999  0.4517400000000001  1.0000
  C   C172      1.0  0.8704500000000002  0.55721  0.4236900000000001  1.0000
  C   C173      1.0  0.87085  0.5552699999999999  0.3803400000000001  1.0000
  C   C174      1.0  0.82835  0.64241  0.39247  1.0000
  C   C175      1.0  0.9130700000000002  0.51998  0.4877300000000001  1.0000
  C   C176      1.0  0.9211  0.91923  0.57164  1.0000
  C   C177      1.0  0.97672  0.9523799999999998  0.59582  1.0000
  C   C178      1.0  0.021960000000000122  0.94126  0.6312600000000003  1.0000
  C   C179      1.0  0.03776999999999999  0.01407  0.58149  1.0000
  C   C180      1.0  0.85188  0.59873  0.31982  1.0000
  C   C181      1.0  0.88539  0.62342  0.18244  1.0000
  C   C182      1.0  0.5984099999999999  0.5166499999999999  0.86539  1.0000
  C   C183      1.0  0.89653  0.6318899999999997  0.14327000000000004  1.0000
  C   C184      1.0  0.8636000000000004  0.6644099999999998  0.12011000000000002  1.0000
  C   C185      1.0  0.8746100000000001  0.6734999999999998  0.08433000000000003  1.0000
  C   C186      1.0  0.83704  0.70603  0.05812000000000001  1.0000
  C   C187      1.0  0.6892000000000001  0.6624099999999998  0.96573  1.0000
  C   C188      1.0  0.6443700000000001  0.60816  0.93685  1.0000
  C   C189      1.0  0.60217  0.60207  0.95272  1.0000
  C   C190      1.0  0.5576000000000001  0.5536599999999999  0.92435  1.0000
  C   C191      1.0  0.55544  0.51051  0.88067  1.0000
  C   C192      1.0  0.64253  0.5655199999999999  0.89307  1.0000
  C   C193      1.0  0.5203200000000001  0.5741  0.9882300000000003  1.0000
  C   C194      1.0  0.9193  0.65106  0.07216  1.0000
  C   C195      1.0  0.95242  0.61929  0.09601  1.0000
  C   C196      1.0  0.94108  0.60901  0.13117  1.0000
  C   C197      1.0  0.01427  0.54397  0.08128  1.0000
  C   C198      1.0  0.5985100000000001  0.46962  0.8199600000000001  1.0000
  C   C199      1.0  0.2978900000000001  0.05888000000000003  0.18307000000000007  1.0000
  C   C200      1.0  0.26582  0.8499499999999999  0.86509  1.0000
  C   C201      1.0  0.24742  0.011720000000000001  0.1435  1.0000
  C   C202      1.0  0.25683  0.9560199999999999  0.11999000000000003  1.0000
  C   C203      1.0  0.20981  0.9113899999999999  0.08420000000000002  1.0000
  C   C204      1.0  0.22054  0.8523299999999998  0.05812000000000001  1.0000
  C   C205      1.0  0.27462999999999993  0.8035699999999999  0.96479  1.0000
  C   C206      1.0  0.29108  0.82847  0.93584  1.0000
  C   C207      1.0  0.34932  0.84982  0.95158  1.0000
  C   C208      1.0  0.36567000000000005  0.87045  0.92358  1.0000
  C   C209      1.0  0.32417  0.8710399999999998  0.88037  1.0000
  C   C210      1.0  0.24923000000000003  0.8281099999999999  0.8923400000000001  1.0000
  C   C211      1.0  0.4667000000000001  0.9134100000000002  0.9877700000000003  1.0000
  C   C212      1.0  0.15312  0.9220899999999997  0.07218  1.0000
  C   C213      1.0  0.14426  0.97781  0.09619  1.0000
  C   C214      1.0  0.19093  0.022890000000000004  0.13159  1.0000
  C   C215      1.0  0.06739  0.03818  0.08136  1.0000
  C   C216      1.0  0.22026  0.85255  0.8201200000000001  1.0000
  C   C217      1.0  0.3765  0.11440000000000002  0.31749000000000005  1.0000
  C   C218      1.0  0.4833000000000001  0.40184000000000003  0.6347400000000001  1.0000
  C   C219      1.0  0.36805  0.10319999999999996  0.35663  1.0000
  C   C220      1.0  0.33558000000000004  0.13617999999999997  0.37980000000000014  1.0000
  C   C221      1.0  0.32644  0.12532000000000001  0.4156200000000001  1.0000
  C   C222      1.0  0.2939  0.16304  0.44171  1.0000
  C   C223      1.0  0.33761  0.3109099999999999  0.53406  1.0000
  C   C224      1.0  0.39178  0.35589  0.56318  1.0000
  C   C225      1.0  0.3979  0.3982199999999999  0.54746  1.0000
  C   C226      1.0  0.44637  0.4427199999999999  0.57586  1.0000
  C   C227      1.0  0.48953000000000013  0.44485  0.6195300000000001  1.0000
  C   C228      1.0  0.43444000000000005  0.35769999999999996  0.60697  1.0000
  C   C229      1.0  0.42595  0.48002  0.51199  1.0000
  C   C230      1.0  0.3487  0.08055999999999999  0.42776  1.0000
  C   C231      1.0  0.38040000000000007  0.047369999999999995  0.40386  1.0000
  C   C232      1.0  0.3907  0.058550000000000005  0.36864  1.0000
  C   C233      1.0  0.4557999999999999  0.9855999999999998  0.41853  1.0000
  C   C234      1.0  0.53031  0.4016  0.68015  1.0000
  C   C235      1.0  0.9412400000000001  0.7018599999999998  0.3166800000000001  1.0000
  C   C236      1.0  0.15020000000000003  0.7342599999999999  0.6350300000000001  1.0000
  C   C237      1.0  0.98836  0.7523399999999998  0.35625  1.0000
  C   C238      1.0  0.044110000000000066  0.743  0.3798100000000001  1.0000
  C   C239      1.0  0.08869000000000009  0.79007  0.41560000000000014  1.0000
  C   C240      1.0  0.14771  0.7793699999999998  0.44181  1.0000
  C   C241      1.0  0.19621  0.7252  0.53499  1.0000
  C   C242      1.0  0.17147000000000004  0.7088699999999999  0.56411  1.0000
  C   C243      1.0  0.15015999999999996  0.6507  0.54847  1.0000
  C   C244      1.0  0.12967  0.63445  0.57659  1.0000
  C   C245      1.0  0.1291800000000001  0.6759400000000001  0.6198400000000002  1.0000
  C   C246      1.0  0.1719000000000001  0.75075  0.6076400000000001  1.0000
  C   C247      1.0  0.08673000000000002  0.53344  0.5124  1.0000
  C   C248      1.0  0.07793000000000004  0.8466999999999999  0.4276  1.0000
  C   C249      1.0  0.02221000000000001  0.8555  0.40345000000000003  1.0000
  C   C250      1.0  0.97715  0.8087999999999999  0.36806  1.0000
  C   C251      1.0  0.9617  0.93231  0.41809  1.0000
  C   C252      1.0  0.14775999999999995  0.7798599999999998  0.68006  1.0000
  C   C253      1.0  0.11383000000000006  0.9413499999999999  0.8172900000000002  1.0000
  C   C254      1.0  0.40153000000000005  0.14997  0.13491  1.0000
  C   C255      1.0  0.10337000000000002  0.9888399999999999  0.8569  1.0000
  C   C256      1.0  0.13631  0.04449000000000001  0.88017  1.0000
  C   C257      1.0  0.12548000000000015  0.0892200000000001  0.9161300000000002  1.0000
  C   C258      1.0  0.16279999999999992  0.14795  0.94196  1.0000
  C   C259      1.0  0.31037  0.19611999999999993  0.035010000000000006  1.0000
  C   C260      1.0  0.35559  0.17105  0.06394  1.0000
  C   C261      1.0  0.39812  0.14983999999999995  0.0482  1.0000
  C   C262      1.0  0.44255  0.12924999999999998  0.07615  1.0000
  C   C263      1.0  0.44444  0.12872  0.11945  1.0000
  C   C264      1.0  0.35743  0.17153999999999994  0.10755000000000003  1.0000
  C   C265      1.0  0.47988000000000003  0.08666  0.012140000000000001  1.0000
  C   C266      1.0  0.08096999999999997  0.07890999999999998  0.92848  1.0000
  C   C267      1.0  0.04792000000000003  0.023280000000000026  0.9045100000000001  1.0000
  C   C268      1.0  0.05905000000000001  0.9779999999999999  0.86916  1.0000
  C   C269      1.0  0.9862600000000002  0.9624199999999999  0.9190600000000002  1.0000
  C   C270      1.0  0.40148  0.14806  0.18029  1.0000
  C   C271      1.0  0.7016600000000001  0.37668  0.8169900000000002  1.0000
  C   C272      1.0  0.73411  0.4834599999999999  0.13475  1.0000
  C   C273      1.0  0.75196  0.36835999999999997  0.85629  1.0000
  C   C274      1.0  0.7423  0.33589999999999987  0.87953  1.0000
  C   C275      1.0  0.7891700000000003  0.32672  0.9152100000000002  1.0000
  C   C276      1.0  0.77797  0.29398999999999986  0.94134  1.0000
  C   C277      1.0  0.7243200000000001  0.33748  0.0347  1.0000
  C   C278      1.0  0.70827  0.39164  0.06356  1.0000
  C   C279      1.0  0.65025  0.39794  0.04779  1.0000
  C   C280      1.0  0.6341900000000001  0.44653999999999994  0.07607  1.0000
  C   C281      1.0  0.6758700000000001  0.48974  0.11961  1.0000
  C   C282      1.0  0.75036  0.4343199999999999  0.10720000000000003  1.0000
  C   C283      1.0  0.53318  0.4260099999999999  0.011910000000000002  1.0000
  C   C284      1.0  0.84601  0.3490599999999999  0.9272  1.0000
  C   C285      1.0  0.8551900000000001  0.3809  0.9033500000000002  1.0000
  C   C286      1.0  0.80859  0.3912  0.86827  1.0000
  C   C287      1.0  0.93235  0.45622000000000007  0.9185300000000002  1.0000
  C   C288      1.0  0.77997  0.53057  0.17985000000000004  1.0000
  C   C289      1.0  0.46527000000000013  0.5458099999999999  0.5907700000000001  1.0000
  C   C290      1.0  0.12553000000000003  0.54587  0.5910600000000001  1.0000
  C   C291      1.0  0.54568  0.4653599999999999  0.09061  1.0000
  C   C292      1.0  0.54574  0.1255  0.09094  1.0000
  C   C293      1.0  0.53494  0.4542299999999999  0.4093300000000001  1.0000
  C   C294      1.0  0.87444  0.45413000000000003  0.4089500000000001  1.0000
  C   C295      1.0  0.45431  0.8746  0.9091  1.0000
  C   C296      1.0  0.45446  0.5348199999999999  0.90943  1.0000
  C   C297      1.0  0.36848  0.9546  0.41054  1.0000
  C   C298      1.0  0.041830000000000034  0.9549599999999998  0.41089000000000003  1.0000
  C   C299      1.0  0.9549  0.3687899999999999  0.91072  1.0000
  C   C300      1.0  0.95529  0.04193000000000003  0.91139  1.0000
  C   C301      1.0  0.6314500000000001  0.0453400000000001  0.5895200000000003  1.0000
  C   C302      1.0  0.9582300000000002  0.04507000000000009  0.5891500000000002  1.0000
  C   C303      1.0  0.04468  0.9580499999999997  0.08851  1.0000
  C   C304      1.0  0.04516  0.6312199999999998  0.08914  1.0000
  N   N1        1.0  0.44934  0.5744199999999999  0.56083  1.0000
  N   N2        1.0  0.4015500000000001  0.9124200000000001  0.4128  1.0000
  N   N3        1.0  0.11183000000000004  0.48738999999999993  0.5609000000000001  1.0000
  N   N4        1.0  0.01180999999999998  1.9999999999977535e-05  0.4139  1.0000
  N   N5        1.0  0.48717000000000005  0.44924  0.06046  1.0000
  N   N6        1.0  0.9999  0.40178  0.91358  1.0000
  N   N7        1.0  0.57436  0.11171  0.06099000000000001  1.0000
  N   N8        1.0  0.9131300000000001  0.010919999999999987  0.91353  1.0000
  N   N9        1.0  0.55103  0.5126899999999999  0.43946  1.0000
  N   N10       1.0  0.59841  0.0002799999999999988  0.58649  1.0000
  N   N11       1.0  0.88822  0.42553999999999986  0.43891  1.0000
  N   N12       1.0  0.98922  0.08718999999999998  0.587  1.0000
  N   N13       1.0  0.51281  0.8883999999999999  0.93928  1.0000
  N   N14       1.0  0.9996900000000001  0.9882  0.08567  1.0000
  N   N15       1.0  0.42583999999999994  0.5507499999999999  0.93938  1.0000
  N   N16       1.0  0.08746999999999999  0.5982499999999998  0.08701  1.0000
  N   N17       1.0  0.55076  0.42562000000000005  0.43926000000000004  1.0000
  N   N18       1.0  0.59839  0.08752000000000003  0.5872500000000002  1.0000
  N   N19       1.0  0.8880900000000002  0.5125999999999998  0.43908  1.0000
  N   N20       1.0  0.98827  3.000000000000111e-05  0.58618  1.0000
  N   N21       1.0  0.51296  0.55095  0.9396  1.0000
  N   N22       1.0  0.0001800000000000172  0.5982  0.08628000000000002  1.0000
  N   N23       1.0  0.42567  0.8883799999999997  0.93904  1.0000
  N   N24       1.0  0.08687  0.9891299999999997  0.08647000000000002  1.0000
  N   N25       1.0  0.44913000000000003  0.4873499999999999  0.56061  1.0000
  N   N26       1.0  0.40156  0.9996999999999999  0.41366  1.0000
  N   N27       1.0  0.11174000000000008  0.57448  0.5611200000000001  1.0000
  N   N28       1.0  0.010840000000000018  0.9128599999999998  0.41308  1.0000
  N   N29       1.0  0.4872300000000001  0.11166999999999998  0.06079000000000001  1.0000
  N   N30       1.0  0.00026999999999997404  0.011779999999999995  0.91421  1.0000
  N   N31       1.0  0.57426  0.44931000000000004  0.06064  1.0000
  N   N32       1.0  0.91271  0.40187  0.91305  1.0000
  O   O1        1.0  0.35432  0.65128  0.30778  1.0000
  O   O2        1.0  0.29625  0.8200999999999999  0.4794000000000001  1.0000
  O   O3        1.0  0.2671500000000001  0.72574  0.4224500000000001  1.0000
  O   O4        1.0  0.3021600000000001  0.6832399999999998  0.4944600000000001  1.0000
  O   O5        1.0  0.33138  0.77684  0.5528  1.0000
  O   O6        1.0  0.57868  0.76426  0.69857  1.0000
  O   O7        1.0  0.5188500000000001  0.83066  0.6952  1.0000
  O   O8        1.0  0.40539  0.7136999999999999  0.29635000000000006  1.0000
  O   O9        1.0  0.9555900000000002  0.15342999999999998  0.30659  1.0000
  O   O10       1.0  0.18426000000000003  0.15864000000000006  0.4804900000000001  1.0000
  O   O11       1.0  0.15585000000000004  0.1961  0.4235900000000001  1.0000
  O   O12       1.0  0.19263000000000008  0.31179  0.4953100000000001  1.0000
  O   O13       1.0  0.2192600000000001  0.27533  0.5528400000000001  1.0000
  O   O14       1.0  0.11959000000000006  0.4361999999999999  0.69924  1.0000
  O   O15       1.0  0.17441000000000004  0.36505  0.69491  1.0000
  O   O16       1.0  0.89181  0.08232999999999997  0.29741  1.0000
  O   O17       1.0  0.15609000000000006  0.3541199999999999  0.80862  1.0000
  O   O18       1.0  0.15881999999999993  0.29637  0.98037  1.0000
  O   O19       1.0  0.19631  0.26742  0.92349  1.0000
  O   O20       1.0  0.3121399999999999  0.30172  0.99441  1.0000
  O   O21       1.0  0.27582  0.33217999999999986  0.05205000000000001  1.0000
  O   O22       1.0  0.43655  0.57792  0.19927  1.0000
  O   O23       1.0  0.36529  0.5187699999999998  0.19478  1.0000
  O   O24       1.0  0.08223999999999995  0.40521  0.79712  1.0000
  O   O25       1.0  0.65208  0.9549799999999998  0.8073800000000001  1.0000
  O   O26       1.0  0.82219  0.1839699999999999  0.97948  1.0000
  O   O27       1.0  0.72738  0.15572  0.92353  1.0000
  O   O28       1.0  0.68451  0.19264999999999993  0.99534  1.0000
  O   O29       1.0  0.77835  0.21939999999999996  0.052870000000000014  1.0000
  O   O30       1.0  0.76405  0.11718  0.19778000000000004  1.0000
  O   O31       1.0  0.8304000000000001  0.17500999999999994  0.19563  1.0000
  O   O32       1.0  0.71404  0.8917899999999997  0.796  1.0000
  O   O33       1.0  0.6459500000000001  0.84387  0.6911600000000001  1.0000
  O   O34       1.0  0.70376  0.8409699999999998  0.51986  1.0000
  O   O35       1.0  0.73268  0.8038199999999998  0.57701  1.0000
  O   O36       1.0  0.69815  0.68799  0.50547  1.0000
  O   O37       1.0  0.66734  0.72441  0.44792  1.0000
  O   O38       1.0  0.42186  0.56361  0.30081000000000013  1.0000
  O   O39       1.0  0.48129000000000005  0.6344999999999997  0.30509  1.0000
  O   O40       1.0  0.5949400000000002  0.91776  0.7031100000000002  1.0000
  O   O41       1.0  0.045029999999999994  0.3481999999999999  0.69284  1.0000
  O   O42       1.0  0.81626  0.17774  0.52042  1.0000
  O   O43       1.0  0.84419  0.27255  0.5763  1.0000
  O   O44       1.0  0.80718  0.31601  0.50468  1.0000
  O   O45       1.0  0.78113  0.22190999999999997  0.44766  1.0000
  O   O46       1.0  0.8827900000000002  0.23575000000000004  0.3022200000000001  1.0000
  O   O47       1.0  0.82468  0.16955999999999993  0.30431  1.0000
  O   O48       1.0  0.10815000000000012  0.28625000000000006  0.7044300000000002  1.0000
  O   O49       1.0  0.8467400000000002  0.044780000000000014  0.19325000000000006  1.0000
  O   O50       1.0  0.84125  0.8159299999999999  0.019740000000000008  1.0000
  O   O51       1.0  0.8041  0.8442199999999997  0.07683  1.0000
  O   O52       1.0  0.6880899999999999  0.80727  0.004610000000000001  1.0000
  O   O53       1.0  0.7249000000000001  0.7807900000000001  0.9473600000000002  1.0000
  O   O54       1.0  0.5637700000000002  0.8813399999999999  0.8012600000000002  1.0000
  O   O55       1.0  0.6344800000000003  0.8260000000000001  0.8048500000000002  1.0000
  O   O56       1.0  0.91779  0.1084  0.2021  1.0000
  O   O57       1.0  0.3487  0.64551  0.19212  1.0000
  O   O58       1.0  0.17966  0.7035099999999997  0.02032  1.0000
  O   O59       1.0  0.27396  0.73292  0.07727000000000003  1.0000
  O   O60       1.0  0.31686999999999993  0.6981199999999999  0.00557  1.0000
  O   O61       1.0  0.22322000000000014  0.66859  0.9472500000000001  1.0000
  O   O62       1.0  0.23584000000000005  0.42173999999999995  0.80114  1.0000
  O   O63       1.0  0.16931000000000007  0.48123999999999995  0.8053800000000001  1.0000
  O   O64       1.0  0.28612  0.5950299999999998  0.20390000000000005  1.0000
  O   O65       1.0  0.64565  0.34872000000000003  0.6921400000000001  1.0000
  O   O66       1.0  0.70367  0.17973999999999993  0.52049  1.0000
  O   O67       1.0  0.7328800000000001  0.27404  0.5775  1.0000
  O   O68       1.0  0.69788  0.3167299999999999  0.50562  1.0000
  O   O69       1.0  0.66869  0.22315999999999994  0.44722  1.0000
  O   O70       1.0  0.42128999999999994  0.23573  0.3014900000000001  1.0000
  O   O71       1.0  0.48115  0.16935999999999996  0.30493  1.0000
  O   O72       1.0  0.59463  0.28630000000000005  0.7036100000000002  1.0000
  O   O73       1.0  0.044469999999999926  0.8466099999999999  0.69338  1.0000
  O   O74       1.0  0.81568  0.8413699999999997  0.51948  1.0000
  O   O75       1.0  0.84415  0.8037799999999999  0.57627  1.0000
  O   O76       1.0  0.80729  0.6881399999999998  0.50468  1.0000
  O   O77       1.0  0.78048  0.72453  0.4471  1.0000
  O   O78       1.0  0.88071  0.5639899999999999  0.3009100000000001  1.0000
  O   O79       1.0  0.82549  0.63484  0.30506  1.0000
  O   O80       1.0  0.1081900000000001  0.9178399999999998  0.7026800000000002  1.0000
  O   O81       1.0  0.8443600000000001  0.6458899999999997  0.19165  1.0000
  O   O82       1.0  0.8410799999999999  0.70361  0.01972000000000001  1.0000
  O   O83       1.0  0.80384  0.7327  0.07675  1.0000
  O   O84       1.0  0.68793  0.6982  0.00564  1.0000
  O   O85       1.0  0.72385  0.6684600000000002  0.9477500000000002  1.0000
  O   O86       1.0  0.56344  0.42207  0.80082  1.0000
  O   O87       1.0  0.6347600000000001  0.4811099999999999  0.8052900000000002  1.0000
  O   O88       1.0  0.91815  0.5947299999999999  0.20305  1.0000
  O   O89       1.0  0.34793  0.04509999999999999  0.19239  1.0000
  O   O90       1.0  0.17765  0.81608  0.02038  1.0000
  O   O91       1.0  0.27254  0.8443099999999998  0.07617  1.0000
  O   O92       1.0  0.31576  0.80727  0.004590000000000002  1.0000
  O   O93       1.0  0.22181000000000017  0.7806099999999999  0.9472500000000001  1.0000
  O   O94       1.0  0.2359600000000001  0.8829099999999999  0.8022700000000003  1.0000
  O   O95       1.0  0.16960000000000008  0.82507  0.8043800000000002  1.0000
  O   O96       1.0  0.28599  0.10825999999999998  0.20389  1.0000
  O   O97       1.0  0.3539  0.15543000000000004  0.3083900000000001  1.0000
  O   O98       1.0  0.2962800000000001  0.1592  0.4801800000000001  1.0000
  O   O99       1.0  0.26737  0.19623  0.4229600000000001  1.0000
  O   O100      1.0  0.30185000000000006  0.31206  0.4940900000000001  1.0000
  O   O101      1.0  0.3315500000000001  0.27622  0.5520000000000002  1.0000
  O   O102      1.0  0.57794  0.43651999999999974  0.69921  1.0000
  O   O103      1.0  0.51871  0.36547  0.69489  1.0000
  O   O104      1.0  0.40525000000000005  0.08183999999999997  0.29685  1.0000
  O   O105      1.0  0.95499  0.6518099999999998  0.30743  1.0000
  O   O106      1.0  0.18380000000000007  0.82224  0.4796800000000001  1.0000
  O   O107      1.0  0.15588000000000002  0.7274699999999997  0.4237000000000001  1.0000
  O   O108      1.0  0.19281000000000004  0.6839999999999998  0.4953300000000001  1.0000
  O   O109      1.0  0.21897000000000005  0.7780700000000002  0.5524700000000001  1.0000
  O   O110      1.0  0.11697999999999995  0.7642799999999997  0.69765  1.0000
  O   O111      1.0  0.17568  0.8303699999999998  0.69596  1.0000
  O   O112      1.0  0.89188  0.71375  0.2957600000000001  1.0000
  O   O113      1.0  0.15312999999999993  0.9552799999999999  0.80656  1.0000
  O   O114      1.0  0.15875  0.18411  0.98027  1.0000
  O   O115      1.0  0.19596  0.1558199999999999  0.92321  1.0000
  O   O116      1.0  0.3118499999999999  0.19249000000000005  0.99529  1.0000
  O   O117      1.0  0.27524  0.21938  0.052670000000000015  1.0000
  O   O118      1.0  0.43644  0.11942  0.19923  1.0000
  O   O119      1.0  0.36540000000000006  0.17434999999999995  0.19518  1.0000
  O   O120      1.0  0.08221  0.89167  0.7979  1.0000
  O   O121      1.0  0.65134  0.35441999999999996  0.80786  1.0000
  O   O122      1.0  0.82045  0.29653  0.97974  1.0000
  O   O123      1.0  0.7262  0.26711  0.92274  1.0000
  O   O124      1.0  0.68329  0.30187  0.99449  1.0000
  O   O125      1.0  0.77689  0.3314199999999999  0.052900000000000016  1.0000
  O   O126      1.0  0.76427  0.57835  0.19889  1.0000
  O   O127      1.0  0.8308199999999999  0.5188999999999999  0.19439000000000003  1.0000
  O   O128      1.0  0.71391  0.40497  0.79615  1.0000
