data_image0
_chemical_formula_structural       La8Cu8H192C304N24O80
_chemical_formula_sum              "La8 Cu8 H192 C304 N24 O80"
_cell_length_a       11.53778
_cell_length_b       27.16462
_cell_length_c       34.90961
_cell_angle_alpha    90.25723999999998
_cell_angle_beta     90.07524000000001
_cell_angle_gamma    89.94281

_symmetry_space_group_name_H-M    'P 1'
_symmetry_Int_Tables_number       1

loop_
  _symmetry_equiv_pos_as_xyz
  'x,y,z'

loop_
  _atom_site_type_symbol
  _atom_site_label
  _atom_site_symmetry_multiplicity
  _atom_site_fract_x
  _atom_site_fract_y
  _atom_site_fract_z
  _atom_site_occupancy
  La  La1       1.0  0.55778  0.24927999999999995  0.6986699999999999  1.0000
  La  La2       1.0  0.08933  0.74757  0.69779  1.0000
  La  La3       1.0  0.05832000000000001  0.25079  0.80225  1.0000
  La  La4       1.0  0.44224  0.7507199999999999  0.30133  1.0000
  La  La5       1.0  0.9416900000000001  0.74921  0.19775  1.0000
  La  La6       1.0  0.4103200000000001  0.24757999999999994  0.19813999999999998  1.0000
  La  La7       1.0  0.5897  0.75242  0.80186  1.0000
  La  La8       1.0  0.91068  0.25243  0.3022099999999999  1.0000
  Cu  Cu1       1.0  0.10162  0.75075  0.81323  1.0000
  Cu  Cu2       1.0  0.39827  0.25072999999999995  0.31395  1.0000
  Cu  Cu3       1.0  0.07716  0.24728999999999995  0.6864  1.0000
  Cu  Cu4       1.0  0.57737  0.25273  0.8143699999999998  1.0000
  Cu  Cu5       1.0  0.8984000000000002  0.24925  0.18677  1.0000
  Cu  Cu6       1.0  0.42265  0.7472699999999998  0.18563  1.0000
  Cu  Cu7       1.0  0.60174  0.7492699999999998  0.68605  1.0000
  Cu  Cu8       1.0  0.9228600000000001  0.7527099999999998  0.3136  1.0000
  H   H1        1.0  0.72519  0.73914  0.54744  1.0000
  H   H2        1.0  0.22459  0.16892999999999994  0.31145  1.0000
  H   H3        1.0  0.5727  0.9210399999999997  0.3481799999999999  1.0000
  H   H4        1.0  0.37892000000000003  0.30925999999999987  0.57543  1.0000
  H   H5        1.0  0.22822  0.07834  0.30688  1.0000
  H   H6        1.0  0.9438800000000002  0.48379  0.72776  1.0000
  H   H7        1.0  0.27155  0.57851  0.8069  1.0000
  H   H8        1.0  0.39854  0.3322599999999999  0.81108  1.0000
  H   H9        1.0  0.13636  0.75638  0.36316  1.0000
  H   H10       1.0  0.42404  0.51629  0.72627  1.0000
  H   H11       1.0  0.4079  0.5841199999999999  0.69128  1.0000
  H   H12       1.0  0.74624  0.5805399999999998  0.77354  1.0000
  H   H13       1.0  0.78317  0.5762999999999998  0.69429  1.0000
  H   H14       1.0  0.22036000000000003  0.9155599999999998  0.18199  1.0000
  H   H15       1.0  0.65254  0.20454999999999998  0.56082  1.0000
  H   H16       1.0  0.85379  0.7547699999999999  0.93408  1.0000
  H   H17       1.0  0.63646  0.74371  0.13662  1.0000
  H   H18       1.0  0.21354  0.33312999999999987  0.30963  1.0000
  H   H19       1.0  0.40544  0.08266999999999997  0.8077499999999999  1.0000
  H   H20       1.0  0.08303  0.9240699999999997  0.23027  1.0000
  H   H21       1.0  0.9169800000000001  0.07592999999999998  0.7697299999999998  1.0000
  H   H22       1.0  0.92504  0.98427  0.77407  1.0000
  H   H23       1.0  0.25079  0.9955499999999999  0.83427  1.0000
  H   H24       1.0  0.9260000000000002  0.006429999999999998  0.65922  1.0000
  H   H25       1.0  0.69134  0.25508  0.95382  1.0000
  H   H26       1.0  0.26855  0.32467  0.6798799999999999  1.0000
  H   H27       1.0  0.10161000000000002  0.41521999999999987  0.18075999999999995  1.0000
  H   H28       1.0  0.77965  0.08444  0.8180099999999998  1.0000
  H   H29       1.0  0.12207  0.29571  0.49773  1.0000
  H   H30       1.0  0.77179  0.9216599999999998  0.6931199999999997  1.0000
  H   H31       1.0  0.9265600000000002  0.8264499999999998  0.81408  1.0000
  H   H32       1.0  0.58539  0.5753299999999999  0.26946  1.0000
  H   H33       1.0  0.19685000000000002  0.80141  0.56126  1.0000
  H   H34       1.0  0.72317  0.9890899999999999  0.72791  1.0000
  H   H35       1.0  0.84614  0.18951999999999994  0.99606  1.0000
  H   H36       1.0  0.30867  0.7449199999999998  0.046179999999999985  1.0000
  H   H37       1.0  0.44432  0.01624  0.77226  1.0000
  H   H38       1.0  0.74088  0.8298399999999998  0.31602  1.0000
  H   H39       1.0  0.89523  0.07689999999999997  0.69196  1.0000
  H   H40       1.0  0.34565  0.31056999999999996  0.50462  1.0000
  H   H41       1.0  0.8207500000000001  0.24309999999999998  0.56731  1.0000
  H   H42       1.0  0.77034  0.42011999999999994  0.81251  1.0000
  H   H43       1.0  0.34748000000000007  0.79545  0.43918  1.0000
  H   H44       1.0  0.7747800000000001  0.23931  0.04786  1.0000
  H   H45       1.0  0.80863  0.75502  0.45333999999999997  1.0000
  H   H46       1.0  0.07401  0.9935699999999997  0.34078  1.0000
  H   H47       1.0  0.75095  0.24064  0.11858  1.0000
  H   H48       1.0  0.4149  0.79949  0.9267799999999999  1.0000
  H   H49       1.0  0.90885  0.91624  0.8089399999999999  1.0000
  H   H50       1.0  0.7296200000000002  0.9201899999999997  0.31264999999999993  1.0000
  H   H51       1.0  0.58512  0.20051  0.07322  1.0000
  H   H52       1.0  0.84768  0.70438  0.05995999999999999  1.0000
  H   H53       1.0  0.71601  0.07649  0.19425  1.0000
  H   H54       1.0  0.62161  0.20530999999999994  0.48993  1.0000
  H   H55       1.0  0.25653  0.98887  0.15369  1.0000
  H   H56       1.0  0.25681  0.08061  0.15851  1.0000
  H   H57       1.0  0.06349  0.48716999999999994  0.14848  1.0000
  H   H58       1.0  0.21684  0.4237  0.30571  1.0000
  H   H59       1.0  0.7494600000000001  0.5038999999999999  0.66621  1.0000
  H   H60       1.0  0.83701  0.19469999999999996  0.50955  1.0000
  H   H61       1.0  0.92919  0.91452  0.66234  1.0000
  H   H62       1.0  0.60147  0.6677399999999999  0.18892  1.0000
  H   H63       1.0  0.86365  0.24361999999999998  0.63684  1.0000
  H   H64       1.0  0.23764  0.08722999999999997  0.8302499999999998  1.0000
  H   H65       1.0  0.30314  0.3015299999999999  0.06151000000000001  1.0000
  H   H66       1.0  0.8984000000000002  0.58478  0.81924  1.0000
  H   H67       1.0  0.62109  0.69074  0.42457  1.0000
  H   H68       1.0  0.77542  0.83107  0.6885499999999998  1.0000
  H   H69       1.0  0.3784  0.7946899999999999  0.51007  1.0000
  H   H70       1.0  0.72847  0.4214899999999999  0.1931  1.0000
  H   H71       1.0  0.8786700000000001  0.7050999999999997  0.9891499999999999  1.0000
  H   H72       1.0  0.41548  0.82458  0.67936  1.0000
  H   H73       1.0  0.07318  0.57902  0.15231999999999996  1.0000
  H   H74       1.0  0.15387  0.8104799999999998  0.00394  1.0000
  H   H75       1.0  0.12064  0.8093399999999997  0.07474  1.0000
  H   H76       1.0  0.66335  0.69459  0.00927  1.0000
  H   H77       1.0  0.57598  0.48370999999999986  0.27373  1.0000
  H   H78       1.0  0.40911000000000003  0.17312999999999995  0.81213  1.0000
  H   H79       1.0  0.16301  0.8052999999999998  0.49045  1.0000
  H   H80       1.0  0.72106  0.5846299999999999  0.31806  1.0000
  H   H81       1.0  0.7432  0.9193899999999998  0.84149  1.0000
  H   H82       1.0  0.27896  0.41537  0.68194  1.0000
  H   H83       1.0  0.3534900000000001  0.7450899999999999  0.56512  1.0000
  H   H84       1.0  0.73146  0.6753299999999998  0.3201199999999999  1.0000
  H   H85       1.0  0.7594000000000001  0.32988  0.81636  1.0000
  H   H86       1.0  0.24427000000000001  0.91876  0.72647  1.0000
  H   H87       1.0  0.27483  0.26086  0.45256  1.0000
  H   H88       1.0  0.71286  0.16709999999999994  0.19042  1.0000
  H   H89       1.0  0.25055  0.4961  0.33379  1.0000
  H   H90       1.0  0.42588  0.67382  0.68599  1.0000
  H   H91       1.0  0.32059  0.25688  0.93288  1.0000
  H   H92       1.0  0.74922  0.00445  0.16572999999999996  1.0000
  H   H93       1.0  0.42731  0.07896  0.65182  1.0000
  H   H94       1.0  0.73493  0.4122699999999999  0.67027  1.0000
  H   H95       1.0  0.05243  0.4244299999999999  0.2673799999999999  1.0000
  H   H96       1.0  0.24698  0.01072  0.72269  1.0000
  H   H97       1.0  0.15233  0.29562  0.94004  1.0000
  H   H98       1.0  0.57414  0.32618  0.31401  1.0000
  H   H99       1.0  0.22967  0.57988  0.18749  1.0000
  H   H100      1.0  0.75303  0.9892799999999998  0.27731  1.0000
  H   H101      1.0  0.23081000000000002  0.8248699999999998  0.17954  1.0000
  H   H102      1.0  0.10162  0.8320899999999999  0.31053  1.0000
  H   H103      1.0  0.6968800000000002  0.69847  0.93849  1.0000
  H   H104      1.0  0.8031600000000001  0.19859  0.4387399999999999  1.0000
  H   H105      1.0  0.17927000000000004  0.7568999999999999  0.43269  1.0000
  H   H106      1.0  0.56919  0.41393  0.16282  1.0000
  H   H107      1.0  0.27039000000000013  0.07981  0.68735  1.0000
  H   H108      1.0  0.75768  0.4194799999999999  0.34125  1.0000
  H   H109      1.0  0.33666  0.3054099999999999  0.99073  1.0000
  H   H110      1.0  0.43611000000000005  0.9870499999999998  0.64869  1.0000
  H   H111      1.0  0.74874  0.7405899999999997  0.61819  1.0000
  H   H112      1.0  0.07082  0.08547999999999997  0.33766  1.0000
  H   H113      1.0  0.74349  0.011129999999999998  0.84631  1.0000
  H   H114      1.0  0.22524  0.7606899999999998  0.95214  1.0000
  H   H115      1.0  0.59458  0.9173299999999998  0.19225  1.0000
  H   H116      1.0  0.78647  0.6668699999999997  0.69037  1.0000
  H   H117      1.0  0.09512  0.58253  0.30776  1.0000
  H   H118      1.0  0.64652  0.25490999999999997  0.43488  1.0000
  H   H119      1.0  0.79186  0.58084  0.23173  1.0000
  H   H120      1.0  0.78029  0.75206  0.38291  1.0000
  H   H121      1.0  0.93652  0.51283  0.85152  1.0000
  H   H122      1.0  0.3781900000000001  0.79583  0.99733  1.0000
  H   H123      1.0  0.24233  0.58052  0.65875  1.0000
  H   H124      1.0  0.67943  0.7431199999999998  0.06712  1.0000
  H   H125      1.0  0.7692  0.17513  0.8204599999999999  1.0000
  H   H126      1.0  0.21972  0.24794  0.6170899999999998  1.0000
  H   H127      1.0  0.08506999999999999  0.29936999999999997  0.4271099999999999  1.0000
  H   H128      1.0  0.71957  0.25206  0.88339  1.0000
  H   H129      1.0  0.75574  0.08124  0.27353  1.0000
  H   H130      1.0  0.39868  0.91532  0.68086  1.0000
  H   H131      1.0  0.284  0.9235099999999998  0.80575  1.0000
  H   H132      1.0  0.7257  0.33088999999999996  0.18924  1.0000
  H   H133      1.0  0.91494  0.70063  0.57289  1.0000
  H   H134      1.0  0.24906  0.7593599999999998  0.88142  1.0000
  H   H135      1.0  0.57397  0.50588  0.15968  1.0000
  H   H136      1.0  0.39519  0.4232099999999999  0.8080699999999997  1.0000
  H   H137      1.0  0.8779500000000001  0.70429  0.50227  1.0000
  H   H138      1.0  0.90856  0.32693  0.68834  1.0000
  H   H139      1.0  0.76238  0.91277  0.16975  1.0000
  H   H140      1.0  0.28715  0.8329  0.8095799999999997  1.0000
  H   H141      1.0  0.22332000000000002  0.51088  0.7724  1.0000
  H   H142      1.0  0.94758  0.57557  0.7326199999999999  1.0000
  H   H143      1.0  0.8793700000000001  0.19065999999999997  0.92526  1.0000
  H   H144      1.0  0.07497  0.015729999999999997  0.22592999999999994  1.0000
  H   H145      1.0  0.25262  0.51138  0.22260999999999995  1.0000
  H   H146      1.0  0.5639  0.01295  0.35131  1.0000
  H   H147      1.0  0.09146  0.67307  0.3116599999999999  1.0000
  H   H148      1.0  0.08559  0.32453  0.17999  1.0000
  H   H149      1.0  0.36355  0.25628999999999996  0.86338  1.0000
  H   H150      1.0  0.24275  0.4887999999999999  0.6538  1.0000
  H   H151      1.0  0.3916  0.7487499999999999  0.63488  1.0000
  H   H152      1.0  0.27431  0.66911  0.81076  1.0000
  H   H153      1.0  0.58453  0.17541999999999996  0.32063999999999987  1.0000
  H   H154      1.0  0.65436  0.68943  0.49538  1.0000
  H   H155      1.0  0.5909  0.8268699999999998  0.18785999999999994  1.0000
  H   H156      1.0  0.12134  0.2948999999999999  0.01085  1.0000
  H   H157      1.0  0.59212  0.41588  0.30872  1.0000
  H   H158      1.0  0.20815  0.41914999999999997  0.76827  1.0000
  H   H159      1.0  0.28044  0.7479399999999998  0.11661  1.0000
  H   H160      1.0  0.29093  0.91906  0.26863999999999993  1.0000
  H   H161      1.0  0.27684  0.01091  0.27209  1.0000
  H   H162      1.0  0.8919500000000001  0.7511499999999998  0.86433  1.0000
  H   H163      1.0  0.60482  0.57679  0.19193  1.0000
  H   H164      1.0  0.09116000000000002  0.08376  0.19106  1.0000
  H   H165      1.0  0.25377  0.41946  0.22646  1.0000
  H   H166      1.0  0.41462  0.42467  0.73054  1.0000
  H   H167      1.0  0.26508  0.58773  0.32973  1.0000
  H   H168      1.0  0.25128  0.25941  0.38181  1.0000
  H   H169      1.0  0.62182  0.20417  0.00267  1.0000
  H   H170      1.0  0.10478  0.9230999999999998  0.30803999999999987  1.0000
  H   H171      1.0  0.60842  0.2512499999999999  0.3651199999999999  1.0000
  H   H172      1.0  0.42604  0.49412  0.84032  1.0000
  H   H173      1.0  0.89839  0.16790999999999995  0.68947  1.0000
  H   H174      1.0  0.25913  0.17016  0.6839799999999998  1.0000
  H   H175      1.0  0.9048900000000001  0.41746  0.69224  1.0000
  H   H176      1.0  0.056130000000000006  0.51621  0.2722399999999999  1.0000
  H   H177      1.0  0.43082  0.58607  0.83718  1.0000
  H   H178      1.0  0.10807  0.24884999999999993  0.13566  1.0000
  H   H179      1.0  0.60133  0.08467999999999998  0.31914  1.0000
  H   H180      1.0  0.07346  0.17355  0.18592  1.0000
  H   H181      1.0  0.55127  0.07557999999999998  0.23274999999999998  1.0000
  H   H182      1.0  0.44874000000000014  0.92442  0.7672499999999999  1.0000
  H   H183      1.0  0.7766900000000001  0.4891199999999999  0.2276  1.0000
  H   H184      1.0  0.7572600000000002  0.5112  0.3462  1.0000
  H   H185      1.0  0.74739  0.4886199999999999  0.77739  1.0000
  H   H186      1.0  0.9268300000000002  0.42097999999999997  0.84768  1.0000
  H   H187      1.0  0.24062  0.6701199999999998  0.18363999999999994  1.0000
  H   H188      1.0  0.55569  0.9837599999999997  0.22773999999999994  1.0000
  H   H189      1.0  0.19138  0.24498  0.54666  1.0000
  H   H190      1.0  0.91442  0.6754699999999998  0.82001  1.0000
  H   H191      1.0  0.14623  0.24523  0.06592  1.0000
  H   H192      1.0  0.7090800000000002  0.08093999999999997  0.7313599999999999  1.0000
  C   C1        1.0  0.52111  0.64676  0.18825  1.0000
  C   C2        1.0  0.88406  0.7546199999999997  0.43463  1.0000
  C   C3        1.0  0.66918  0.43594999999999995  0.68296  1.0000
  C   C4        1.0  0.8056200000000001  0.6022499999999997  0.3166999999999999  1.0000
  C   C5        1.0  0.09543  0.9289499999999998  0.80691  1.0000
  C   C6        1.0  0.08685000000000001  0.27202  0.9528099999999999  1.0000
  C   C7        1.0  0.08883  0.9830999999999999  0.80438  1.0000
  C   C8        1.0  0.40658  0.9796299999999998  0.19018  1.0000
  C   C9        1.0  0.9898700000000001  0.4442099999999999  0.28497  1.0000
  C   C10       1.0  0.9937700000000002  0.00646  0.7867  1.0000
  C   C11       1.0  0.7218100000000001  0.7523199999999998  0.2661199999999999  1.0000
  C   C12       1.0  0.40731  0.9253999999999998  0.18759999999999993  1.0000
  C   C13       1.0  0.81436  0.9026399999999998  0.31205  1.0000
  C   C14       1.0  0.97813  0.09578999999999997  0.68987  1.0000
  C   C15       1.0  0.010950000000000001  0.6522399999999998  0.31248  1.0000
  C   C16       1.0  0.96337  0.75344  0.88478  1.0000
  C   C17       1.0  0.51827  0.74196  0.50777  1.0000
  C   C18       1.0  0.67951  0.9413  0.82609  1.0000
  C   C19       1.0  0.05281  0.27396999999999994  0.48491  1.0000
  C   C20       1.0  0.4199800000000001  0.01852  0.31181  1.0000
  C   C21       1.0  0.36731  0.74645  0.10427  1.0000
  C   C22       1.0  0.4967  0.3489199999999999  0.3116599999999999  1.0000
  C   C23       1.0  0.58748  0.51694  0.6958599999999998  1.0000
  C   C24       1.0  0.80718  0.75167  0.7317899999999998  1.0000
  C   C25       1.0  0.10915  0.7818999999999998  0.50829  1.0000
  C   C26       1.0  0.67787  0.5095999999999999  0.7907599999999999  1.0000
  C   C27       1.0  0.65908  0.00849  0.71075  1.0000
  C   C28       1.0  0.01221  0.60127  0.31045  1.0000
  C   C29       1.0  0.39065  0.28198999999999996  0.00861  1.0000
  C   C30       1.0  0.50238  0.43616  0.17646  1.0000
  C   C31       1.0  0.20209  0.9038599999999998  0.8077  1.0000
  C   C32       1.0  0.01815  0.755  0.49138  1.0000
  C   C33       1.0  0.56661  0.74393  0.1155  1.0000
  C   C34       1.0  0.91316  0.7279799999999997  0.04719  1.0000
  C   C35       1.0  0.44461000000000006  0.8601299999999997  0.30366  1.0000
  C   C36       1.0  0.87153  0.22010999999999997  0.45229  1.0000
  C   C37       1.0  0.3745  0.74848  0.72987  1.0000
  C   C38       1.0  0.13281  0.24649999999999994  0.60473  1.0000
  C   C39       1.0  0.006250000000000001  0.9935399999999998  0.2133  1.0000
  C   C40       1.0  0.00376  0.06356  0.32386  1.0000
  C   C41       1.0  0.07783  0.74751  0.61356  1.0000
  C   C42       1.0  0.5188  0.25741  0.57225  1.0000
  C   C43       1.0  0.58452  0.64327  0.8007  1.0000
  C   C44       1.0  0.96329  0.24225999999999995  0.05027  1.0000
  C   C45       1.0  0.09535  0.58325  0.69617  1.0000
  C   C46       1.0  0.60936  0.71801  0.99139  1.0000
  C   C47       1.0  0.94629  0.6398199999999998  0.19696999999999998  1.0000
  C   C48       1.0  0.79792  0.09613999999999998  0.1923  1.0000
  C   C49       1.0  0.4961  0.51268  0.82537  1.0000
  C   C50       1.0  0.69174  0.25171  0.23229999999999998  1.0000
  C   C51       1.0  0.59609  0.9166999999999998  0.80394  1.0000
  C   C52       1.0  0.12848  0.77989  0.5477  1.0000
  C   C53       1.0  0.6326999999999999  0.25355  0.8957299999999998  1.0000
  C   C54       1.0  0.87444  0.7519899999999998  0.76957  1.0000
  C   C55       1.0  0.18025000000000002  0.14832999999999993  0.68612  1.0000
  C   C56       1.0  0.69051  0.90188  0.68984  1.0000
  C   C57       1.0  0.82281  0.00998  0.29081  1.0000
  C   C58       1.0  0.5927  0.0746  0.8124  1.0000
  C   C59       1.0  0.56906  0.71338  0.4437599999999999  1.0000
  C   C60       1.0  0.35141  0.25982999999999995  0.43441  1.0000
  C   C61       1.0  0.58944  0.7430099999999998  0.07642  1.0000
  C   C62       1.0  0.47814  0.40431  0.81028  1.0000
  C   C63       1.0  0.90799  0.5746399999999999  0.31241  1.0000
  C   C64       1.0  0.51101  0.9442199999999997  0.7849599999999998  1.0000
  C   C65       1.0  0.93112  0.21339999999999995  0.9444899999999999  1.0000
  C   C66       1.0  0.98932  0.4415599999999999  0.8308  1.0000
  C   C67       1.0  0.43096000000000007  0.28662  0.55624  1.0000
  C   C68       1.0  0.56934  0.22866999999999998  0.50849  1.0000
  C   C69       1.0  0.0040500000000000015  0.84909  0.81172  1.0000
  C   C70       1.0  0.50597  0.3996399999999999  0.3086899999999999  1.0000
  C   C71       1.0  0.58718  0.58827  0.8043999999999998  1.0000
  C   C72       1.0  0.41300000000000003  0.77185  0.45203  1.0000
  C   C73       1.0  0.65509  0.74943  0.22835999999999995  1.0000
  C   C74       1.0  0.15863  0.4915199999999999  0.78925  1.0000
  C   C75       1.0  0.48963  0.15223999999999993  0.81281  1.0000
  C   C76       1.0  0.07769  0.08676999999999999  0.79937  1.0000
  C   C77       1.0  0.15065  0.44046  0.78667  1.0000
  C   C78       1.0  0.18978  0.3466  0.68213  1.0000
  C   C79       1.0  0.51835  0.74494  0.0083  1.0000
  C   C80       1.0  0.9182  0.14335  0.30075  1.0000
  C   C81       1.0  0.08743  0.78682  0.01609  1.0000
  C   C82       1.0  0.5158  0.1015  0.31748  1.0000
  C   C83       1.0  0.67606  0.4870099999999999  0.68062  1.0000
  C   C84       1.0  0.82222  0.98729  0.18027  1.0000
  C   C85       1.0  0.80763  0.35076  0.18814999999999998  1.0000
  C   C86       1.0  0.84139  0.50848  0.21075  1.0000
  C   C87       1.0  0.56612  0.08494999999999997  0.69242  1.0000
  C   C88       1.0  0.41679  0.5694799999999999  0.18962  1.0000
  C   C89       1.0  0.056960000000000004  0.24500999999999995  0.076  1.0000
  C   C90       1.0  0.99185  0.6526199999999998  0.818  1.0000
  C   C91       1.0  0.49405  0.60036  0.69131  1.0000
  C   C92       1.0  0.41401  0.51529  0.19118  1.0000
  C   C93       1.0  0.8493600000000001  0.55954  0.21332999999999994  1.0000
  C   C94       1.0  0.8369400000000001  0.24173999999999995  0.1056  1.0000
  C   C95       1.0  0.49578000000000005  0.0073  0.66705  1.0000
  C   C96       1.0  0.9962500000000001  0.9364399999999998  0.67614  1.0000
  C   C97       1.0  0.50776  0.50609  0.28643999999999986  1.0000
  C   C98       1.0  0.32215  0.43925  0.21161999999999995  1.0000
  C   C99       1.0  0.30951  0.09812  0.31016  1.0000
  C   C100      1.0  0.30675  0.14914  0.31235  1.0000
  C   C101      1.0  0.9973800000000002  0.756  0.44967  1.0000
  C   C102      1.0  0.9956400000000001  0.9876099999999998  0.6742999999999999  1.0000
  C   C103      1.0  0.4899200000000001  0.05847999999999998  0.66881  1.0000
  C   C104      1.0  0.52188  0.5956899999999999  0.18972  1.0000
  C   C105      1.0  0.9818600000000001  0.245  0.50862  1.0000
  C   C106      1.0  0.17804  0.5074199999999999  0.6713  1.0000
  C   C107      1.0  0.49226000000000003  0.49391  0.71356  1.0000
  C   C108      1.0  0.58322  0.43052  0.8103799999999999  1.0000
  C   C109      1.0  0.08518  0.91166  0.69547  1.0000
  C   C110      1.0  0.37159  0.27997999999999995  0.04803  1.0000
  C   C111      1.0  0.32113  0.007499999999999998  0.17124  1.0000
  C   C112      1.0  0.48121  0.7425899999999998  0.42775  1.0000
  C   C113      1.0  0.50331  0.6510799999999999  0.68834  1.0000
  C   C114      1.0  0.08325  0.0695  0.68965  1.0000
  C   C115      1.0  0.67786  0.56075  0.7883799999999997  1.0000
  C   C116      1.0  0.33722  0.25838999999999995  0.39490999999999987  1.0000
  C   C117      1.0  0.15547  0.7502  0.27075  1.0000
  C   C118      1.0  0.90297  0.36156  0.30038  1.0000
  C   C119      1.0  0.0798  0.51856  0.81186  1.0000
  C   C120      1.0  0.59776  0.8615299999999999  0.80041  1.0000
  C   C121      1.0  0.30828  0.74829  0.7677  1.0000
  C   C122      1.0  0.82376  0.061139999999999986  0.28841  1.0000
  C   C123      1.0  0.0026300000000000004  0.24399999999999997  0.55033  1.0000
  C   C124      1.0  0.7012300000000001  0.59603  0.6924399999999998  1.0000
  C   C125      1.0  0.08928000000000001  0.7569799999999998  0.42329  1.0000
  C   C126      1.0  0.0731  0.14197  0.79696  1.0000
  C   C127      1.0  0.09203  0.42535999999999996  0.68759  1.0000
  C   C128      1.0  0.42351  0.24767999999999996  0.11400999999999999  1.0000
  C   C129      1.0  0.89086  0.21808999999999995  0.4917  1.0000
  C   C130      1.0  0.4975  0.74394  0.04997999999999998  1.0000
  C   C131      1.0  0.43341  0.25607  0.8844999999999997  1.0000
  C   C132      1.0  0.02189  0.9042099999999997  0.3101299999999999  1.0000
  C   C133      1.0  0.48656  0.4428199999999999  0.71628  1.0000
  C   C134      1.0  0.9307500000000001  0.72852  0.007729999999999999  1.0000
  C   C135      1.0  0.29562  0.3528999999999999  0.30981  1.0000
  C   C136      1.0  0.01125  0.9424299999999999  0.21597  1.0000
  C   C137      1.0  0.5101  0.94152  0.33118999999999993  1.0000
  C   C138      1.0  0.57504  0.4133099999999999  0.70107  1.0000
  C   C139      1.0  0.8099700000000001  0.40178999999999987  0.18992999999999993  1.0000
  C   C140      1.0  0.59449  0.5710899999999999  0.6933  1.0000
  C   C141      1.0  0.43068  0.77133  0.49151  1.0000
  C   C142      1.0  0.44281  0.74482  0.57525  1.0000
  C   C143      1.0  0.20513  0.85278  0.80979  1.0000
  C   C144      1.0  0.85127  0.24035  0.06611  1.0000
  C   C145      1.0  0.98181  0.24209  0.00846  1.0000
  C   C146      1.0  0.0083  0.5046899999999999  0.71194  1.0000
  C   C147      1.0  0.4619  0.7426499999999998  0.38505  1.0000
  C   C148      1.0  0.82843  0.9362099999999998  0.18254  1.0000
  C   C149      1.0  0.82197  0.49258  0.3287  1.0000
  C   C150      1.0  0.00816  0.34738  0.182  1.0000
  C   C151      1.0  0.41229000000000005  0.28688  0.51677  1.0000
  C   C152      1.0  0.03237  0.27642  0.44568  1.0000
  C   C153      1.0  0.42986  0.6418699999999998  0.29621  1.0000
  C   C154      1.0  0.68036  0.35166  0.81414  1.0000
  C   C155      1.0  0.9917200000000002  0.49531  0.28806  1.0000
  C   C156      1.0  0.53242  0.22355  0.05465  1.0000
  C   C157      1.0  0.68565  0.4026  0.81209  1.0000
  C   C158      1.0  0.4676  0.77645  0.94535  1.0000
  C   C159      1.0  0.6486  0.74017  0.56559  1.0000
  C   C160      1.0  0.51161  0.8987099999999999  0.18947  1.0000
  C   C161      1.0  0.17873  0.5585999999999999  0.67407  1.0000
  C   C162      1.0  0.92219  0.25248999999999994  0.38644  1.0000
  C   C163      1.0  0.9125800000000002  0.21317999999999998  0.9839099999999998  1.0000
  C   C164      1.0  0.18565  0.09735999999999997  0.68795  1.0000
  C   C165      1.0  0.31437  0.5973999999999998  0.1879  1.0000
  C   C166      1.0  0.5765  0.7523199999999998  0.88599  1.0000
  C   C167      1.0  0.48901  0.05578  0.21504  1.0000
  C   C168      1.0  0.92691  0.8580299999999997  0.20304  1.0000
  C   C169      1.0  0.8102400000000001  0.6533999999999998  0.31786999999999993  1.0000
  C   C170      1.0  0.69508  0.10213  0.81674  1.0000
  C   C171      1.0  0.11595  0.24537999999999996  0.56537  1.0000
  C   C172      1.0  0.67888  0.9924999999999999  0.82876  1.0000
  C   C173      1.0  0.91676  0.9304999999999998  0.31035  1.0000
  C   C174      1.0  0.49099  0.00469  0.21197  1.0000
  C   C175      1.0  0.1772  0.9900199999999998  0.70919  1.0000
  C   C176      1.0  0.51345  0.55718  0.28372  1.0000
  C   C177      1.0  0.99596  0.15090999999999996  0.18828  1.0000
  C   C178      1.0  0.41284  0.4117299999999999  0.19559999999999994  1.0000
  C   C179      1.0  0.17780000000000004  0.01271  0.81973  1.0000
  C   C180      1.0  0.91119  0.016899999999999995  0.19562  1.0000
  C   C181      1.0  0.69327  0.85086  0.6876499999999998  1.0000
  C   C182      1.0  0.50731  0.15252  0.31848  1.0000
  C   C183      1.0  0.5554  0.13987  0.69634  1.0000
  C   C184      1.0  0.79488  0.14722  0.19020999999999993  1.0000
  C   C185      1.0  0.50902  0.99531  0.78803  1.0000
  C   C186      1.0  0.46303000000000005  0.7464099999999998  0.61449  1.0000
  C   C187      1.0  0.96764  0.72358  0.55432  1.0000
  C   C188      1.0  0.44739  0.7739999999999998  0.98457  1.0000
  C   C189      1.0  0.05372  0.36017999999999994  0.8030299999999998  1.0000
  C   C190      1.0  0.9142500000000001  0.9847299999999998  0.3089599999999999  1.0000
  C   C191      1.0  0.65152  0.059569999999999984  0.71302  1.0000
  C   C192      1.0  0.9045800000000002  0.07104999999999999  0.19308999999999996  1.0000
  C   C193      1.0  0.0182  0.75791  0.99154  1.0000
  C   C194      1.0  0.03673  0.75774  0.94973  1.0000
  C   C195      1.0  0.2782  0.24767999999999996  0.73388  1.0000
  C   C196      1.0  0.9949000000000002  0.8998399999999998  0.80892  1.0000
  C   C197      1.0  0.9107300000000002  0.24301999999999996  0.57671  1.0000
  C   C198      1.0  0.9415300000000001  0.24955999999999998  0.42898  1.0000
  C   C199      1.0  0.62842  0.7200199999999998  0.95197  1.0000
  C   C200      1.0  0.58003  0.9814799999999998  0.6881899999999997  1.0000
  C   C201      1.0  0.6628  0.74161  0.60509  1.0000
  C   C202      1.0  0.4976300000000001  0.5638399999999999  0.82354  1.0000
  C   C203      1.0  0.91483  0.08833999999999999  0.30453  1.0000
  C   C204      1.0  0.08577  0.015269999999999999  0.69104  1.0000
  C   C205      1.0  0.00447  0.50729  0.16713  1.0000
  C   C206      1.0  0.91557  0.42718999999999996  0.18682  1.0000
  C   C207      1.0  0.62552  0.25152  0.27013  1.0000
  C   C208      1.0  0.02123  0.8531199999999998  0.31136999999999987  1.0000
  C   C209      1.0  0.17158  0.06378999999999999  0.81746  1.0000
  C   C210      1.0  0.9630600000000001  0.7572799999999997  0.11408  1.0000
  C   C211      1.0  0.41549  0.35673  0.19929999999999995  1.0000
  C   C212      1.0  0.19239  0.64924  0.8118499999999997  1.0000
  C   C213      1.0  0.5847  0.9272499999999998  0.68688  1.0000
  C   C214      1.0  0.58702  0.22815  0.5479699999999997  1.0000
  C   C215      1.0  0.40393  0.08329999999999997  0.19605999999999996  1.0000
  C   C216      1.0  0.8672  0.7535  0.39526  1.0000
  C   C217      1.0  0.09265000000000001  0.47959  0.69015  1.0000
  C   C218      1.0  0.41253  0.4830599999999999  0.30414  1.0000
  C   C219      1.0  0.34493  0.2505699999999999  0.7716399999999998  1.0000
  C   C220      1.0  0.34093  0.99151  0.2892499999999999  1.0000
  C   C221      1.0  0.40552  0.42891  0.3067  1.0000
  C   C222      1.0  0.82128  0.4414  0.32592  1.0000
  C   C223      1.0  0.06508  0.41508  0.80708  1.0000
  C   C224      1.0  0.08182  0.8566499999999998  0.69925  1.0000
  C   C225      1.0  0.93494  0.58492  0.19291999999999998  1.0000
  C   C226      1.0  0.9878  0.3987299999999999  0.68955  1.0000
  C   C227      1.0  0.31965  0.64834  0.18586  1.0000
  C   C228      1.0  0.03695  0.24272  0.88592  1.0000
  C   C229      1.0  0.55263  0.22599999999999995  0.015429999999999998  1.0000
  C   C230      1.0  0.43389000000000005  0.91505  0.30758  1.0000
  C   C231      1.0  0.55721  0.25517999999999996  0.42475  1.0000
  C   C232      1.0  0.44188  0.25054  0.07138  1.0000
  C   C233      1.0  0.06926  0.2714799999999999  0.99227  1.0000
  C   C234      1.0  0.55814  0.7494599999999998  0.9286199999999999  1.0000
  C   C235      1.0  0.33083  0.5640499999999999  0.31704  1.0000
  C   C236      1.0  0.50392  0.48731999999999986  0.17463  1.0000
  C   C237      1.0  0.01015  0.55579  0.71503  1.0000
  C   C238      1.0  0.58772  0.7131199999999998  0.48322999999999994  1.0000
  C   C239      1.0  0.9955500000000002  0.49270999999999987  0.83287  1.0000
  C   C240      1.0  0.48175  0.25804  0.49222999999999995  1.0000
  C   C241      1.0  0.98382  0.6015899999999998  0.81742  1.0000
  C   C242      1.0  0.77904  0.25239  0.76719  1.0000
  C   C243      1.0  0.09704  0.63844  0.69962  1.0000
  C   C244      1.0  0.4927  0.84748  0.68152  1.0000
  C   C245      1.0  0.22097000000000003  0.7476099999999998  0.23280999999999996  1.0000
  C   C246      1.0  0.3205  0.05869999999999999  0.17391  1.0000
  C   C247      1.0  0.59344  0.02037  0.80982  1.0000
  C   C248      1.0  0.53811  0.25734999999999997  0.61494  1.0000
  C   C249      1.0  0.16307  0.7582599999999999  0.8943999999999998  1.0000
  C   C250      1.0  0.9887600000000001  0.05757  0.78403  1.0000
  C   C251      1.0  0.38415  0.7453099999999998  0.06493  1.0000
  C   C252      1.0  0.06889  0.7866  0.05551  1.0000
  C   C253      1.0  0.30961  0.84673  0.18188  1.0000
  C   C254      1.0  0.19004000000000001  0.5982099999999999  0.81007  1.0000
  C   C255      1.0  0.46341  0.25792  0.45038  1.0000
  C   C256      1.0  0.50251  0.25605999999999995  0.95002  1.0000
  C   C257      1.0  0.98145  0.7572899999999999  0.07143999999999999  1.0000
  C   C258      1.0  0.51039  0.84776  0.18719  1.0000
  C   C259      1.0  0.586  0.48470999999999986  0.80882  1.0000
  C   C260      1.0  0.4789  0.35324  0.81175  1.0000
  C   C261      1.0  0.9073700000000001  0.5204099999999999  0.30985  1.0000
  C   C262      1.0  0.48166  0.25506  0.9916999999999999  1.0000
  C   C263      1.0  0.01619  0.3984099999999998  0.18258  1.0000
  C   C264      1.0  0.00438  0.012389999999999997  0.3256999999999999  1.0000
  C   C265      1.0  0.90467  0.4167499999999999  0.30382999999999993  1.0000
  C   C266      1.0  0.9472  0.72603  0.51509  1.0000
  C   C267      1.0  0.61586  0.25469  0.93507  1.0000
  C   C268      1.0  0.29878  0.40396999999999994  0.30756  1.0000
  C   C269      1.0  0.6904  0.15327  0.81812  1.0000
  C   C270      1.0  0.06639  0.7560899999999998  0.38418  1.0000
  C   C271      1.0  0.50424  0.9927  0.33295  1.0000
  C   C272      1.0  0.19283  0.24832999999999994  0.26821  1.0000
  C   C273      1.0  0.53698  0.25359  0.38551  1.0000
  C   C274      1.0  0.32214  0.49039999999999995  0.20924  1.0000
  C   C275      1.0  0.010689999999999998  0.55844  0.1692  1.0000
  C   C276      1.0  0.01856  0.24270999999999995  0.9285599999999999  1.0000
  C   C277      1.0  0.17626000000000003  0.93886  0.7115899999999997  1.0000
  C   C278      1.0  0.92022  0.48143999999999987  0.18813999999999995  1.0000
  C   C279      1.0  0.03664  0.24656  0.11521999999999999  1.0000
  C   C280      1.0  0.12557  0.24800999999999995  0.23043  1.0000
  C   C281      1.0  0.97879  0.14688  0.68863  1.0000
  C   C282      1.0  0.84455  0.24979999999999994  0.72925  1.0000
  C   C283      1.0  0.48422  0.8984999999999997  0.68252  1.0000
  C   C284      1.0  0.05849  0.7504399999999999  0.5710099999999998  1.0000
  C   C285      1.0  0.1944  0.39775  0.6832999999999999  1.0000
  C   C286      1.0  0.93363  0.24390999999999996  0.61582  1.0000
  C   C287      1.0  0.30494  0.8978699999999997  0.18326  1.0000
  C   C288      1.0  0.70439  0.6471  0.69019  1.0000
  C   C289      1.0  0.57016  0.35812999999999995  0.70379  1.0000
  C   C290      1.0  0.41057  0.25699  0.92358  1.0000
  C   C291      1.0  0.81977  0.85167  0.31388  1.0000
  C   C292      1.0  0.92233  0.9132299999999998  0.20063  1.0000
  C   C293      1.0  0.4884  0.10128999999999998  0.81053  1.0000
  C   C294      1.0  0.3485  0.9404299999999998  0.28698  1.0000
  C   C295      1.0  0.40226  0.13847  0.19959  1.0000
  C   C296      1.0  0.9890600000000002  0.34775999999999996  0.68752  1.0000
  C   C297      1.0  0.005110000000000002  0.10015999999999997  0.19108  1.0000
  C   C298      1.0  0.5366  0.74208  0.54962  1.0000
  C   C299      1.0  0.32395  0.5129899999999998  0.31938  1.0000
  C   C300      1.0  0.42497  0.58669  0.29893  1.0000
  C   C301      1.0  0.14875  0.75965  0.9338899999999999  1.0000
  C   C302      1.0  0.41531  0.07275  0.31311999999999995  1.0000
  C   C303      1.0  0.94305  0.7549899999999999  0.924  1.0000
  C   C304      1.0  0.08444  0.5728099999999999  0.8131799999999998  1.0000
  N   N1        1.0  0.4571700000000001  0.7458699999999999  0.12916  1.0000
  N   N2        1.0  0.58913  0.17811  0.8160599999999998  1.0000
  N   N3        1.0  0.92174  0.82713  0.31333  1.0000
  N   N4        1.0  0.59556  0.8238799999999998  0.68379  1.0000
  N   N5        1.0  0.60678  0.6743899999999998  0.68804  1.0000
  N   N6        1.0  0.42161  0.6728  0.18618  1.0000
  N   N7        1.0  0.07827  0.17287  0.68667  1.0000
  N   N8        1.0  0.41089000000000003  0.82189  0.18394  1.0000
  N   N9        1.0  0.09451  0.6762199999999998  0.81547  1.0000
  N   N10       1.0  0.08859  0.3218199999999999  0.68437  1.0000
  N   N11       1.0  0.92821  0.24514  0.12979  1.0000
  N   N12       1.0  0.91142  0.67818  0.31563  1.0000
  N   N13       1.0  0.40446  0.17612  0.31621  1.0000
  N   N14       1.0  0.04306999999999999  0.24586  0.62959  1.0000
  N   N15       1.0  0.5784  0.3271999999999999  0.81382  1.0000
  N   N16       1.0  0.10745000000000002  0.82561  0.8118  1.0000
  N   N17       1.0  0.89257  0.17438999999999993  0.1882  1.0000
  N   N18       1.0  0.39324  0.32560999999999996  0.31196  1.0000
  N   N19       1.0  0.0718  0.75486  0.8702099999999998  1.0000
  N   N20       1.0  0.42856  0.25497  0.37083  1.0000
  N   N21       1.0  0.9055000000000001  0.32377999999999996  0.18453  1.0000
  N   N22       1.0  0.54284  0.25413  0.87084  1.0000
  N   N23       1.0  0.57145  0.7450299999999997  0.62917  1.0000
  N   N24       1.0  0.9569500000000001  0.75414  0.37041  1.0000
  O   O1        1.0  0.29081  0.2575  0.8023899999999999  1.0000
  O   O2        1.0  0.12613000000000002  0.3377499999999999  0.78145  1.0000
  O   O3        1.0  0.01698  0.83775  0.21720999999999993  1.0000
  O   O4        1.0  0.012020000000000003  0.6598099999999998  0.71621  1.0000
  O   O5        1.0  0.50367  0.3334099999999999  0.18646  1.0000
  O   O6        1.0  0.8586500000000001  0.7471099999999998  0.70049  1.0000
  O   O7        1.0  0.5198  0.6620499999999998  0.282  1.0000
  O   O8        1.0  0.16609  0.8352  0.71604  1.0000
  O   O9        1.0  0.50135  0.77609  0.86649  1.0000
  O   O10       1.0  0.48021  0.33795  0.7179999999999997  1.0000
  O   O11       1.0  0.02743  0.6617999999999998  0.17899  1.0000
  O   O12       1.0  0.8332400000000001  0.2522799999999999  0.7983499999999998  1.0000
  O   O13       1.0  0.33614  0.26906  0.12915  1.0000
  O   O14       1.0  0.21082  0.75663  0.30134  1.0000
  O   O15       1.0  0.62826  0.16215999999999997  0.71788  1.0000
  O   O16       1.0  0.49866  0.22391  0.13350999999999996  1.0000
  O   O17       1.0  0.01607  0.24519999999999997  0.23449999999999996  1.0000
  O   O18       1.0  0.002770000000000001  0.7237899999999998  0.63308  1.0000
  O   O19       1.0  0.33134  0.24769  0.7026  1.0000
  O   O20       1.0  0.95385  0.25490999999999997  0.7328299999999998  1.0000
  O   O21       1.0  0.12609  0.26442  0.87235  1.0000
  O   O22       1.0  0.51418  0.8403  0.7829  1.0000
  O   O23       1.0  0.37222  0.76412  0.3714899999999999  1.0000
  O   O24       1.0  0.16808  0.24485999999999997  0.73716  1.0000
  O   O25       1.0  0.66887  0.25508999999999993  0.76405  1.0000
  O   O26       1.0  0.33114  0.74491  0.23595  1.0000
  O   O27       1.0  0.5461  0.7550399999999998  0.23208  1.0000
  O   O28       1.0  0.63957  0.24703999999999995  0.20107  1.0000
  O   O29       1.0  0.14136  0.25289  0.2995099999999999  1.0000
  O   O30       1.0  0.48584  0.15969999999999998  0.2171  1.0000
  O   O31       1.0  0.96143  0.22122999999999995  0.8649199999999999  1.0000
  O   O32       1.0  0.30267  0.24306999999999995  0.26458  1.0000
  O   O33       1.0  0.04616  0.7450899999999999  0.26717  1.0000
  O   O34       1.0  0.98799  0.3401899999999999  0.28379  1.0000
  O   O35       1.0  0.32989  0.3353  0.21519  1.0000
  O   O36       1.0  0.8319300000000001  0.75514  0.26284  1.0000
  O   O37       1.0  0.87388  0.6622499999999999  0.21854999999999994  1.0000
  O   O38       1.0  0.99464  0.8334099999999998  0.6855599999999997  1.0000
  O   O39       1.0  0.17874000000000004  0.24988999999999995  0.19911  1.0000
  O   O40       1.0  0.00537  0.16659  0.31444  1.0000
  O   O41       1.0  0.83443  0.23118999999999995  0.37145  1.0000
  O   O42       1.0  0.15983  0.16653  0.80961  1.0000
  O   O43       1.0  0.97259  0.3382  0.82101  1.0000
  O   O44       1.0  0.9972400000000001  0.27621  0.3669199999999999  1.0000
  O   O45       1.0  0.45392  0.24496  0.76792  1.0000
  O   O46       1.0  0.68019  0.24950999999999995  0.30121999999999993  1.0000
  O   O47       1.0  0.48414  0.7456899999999997  0.7336  1.0000
  O   O48       1.0  0.6973500000000001  0.7569299999999999  0.7354199999999997  1.0000
  O   O49       1.0  0.66867  0.75231  0.2974  1.0000
  O   O50       1.0  0.6571  0.33347  0.6913999999999999  1.0000
  O   O51       1.0  0.62779  0.23588  0.62851  1.0000
  O   O52       1.0  0.49635  0.66659  0.81354  1.0000
  O   O53       1.0  0.83392  0.16479999999999995  0.28396  1.0000
  O   O54       1.0  0.46255  0.27867  0.6360299999999999  1.0000
  O   O55       1.0  0.19861000000000004  0.74261  0.76407  1.0000
  O   O56       1.0  0.47436000000000006  0.16194999999999996  0.67828  1.0000
  O   O57       1.0  0.68274  0.8380699999999998  0.8151599999999998  1.0000
  O   O58       1.0  0.84018  0.8334699999999998  0.19038999999999995  1.0000
  O   O59       1.0  0.51588  0.25431  0.2664  1.0000
  O   O60       1.0  0.66388  0.73094  0.87085  1.0000
  O   O61       1.0  0.34290999999999994  0.66653  0.30859999999999993  1.0000
  O   O62       1.0  0.98395  0.7548  0.7655  1.0000
  O   O63       1.0  0.7092100000000001  0.7425  0.19761  1.0000
  O   O64       1.0  0.82127  0.7501099999999999  0.80089  1.0000
  O   O65       1.0  0.53746  0.7213299999999998  0.36396999999999996  1.0000
  O   O66       1.0  0.36045  0.7529599999999997  0.7989299999999998  1.0000
  O   O67       1.0  0.31982  0.7504899999999998  0.69878  1.0000
  O   O68       1.0  0.98303  0.16224999999999998  0.78278  1.0000
  O   O69       1.0  0.67013  0.6647  0.78481  1.0000
  O   O70       1.0  0.16678  0.7477199999999998  0.20164999999999997  1.0000
  O   O71       1.0  0.31727  0.16192999999999994  0.18484  1.0000
  O   O72       1.0  0.87392  0.7355799999999999  0.12765  1.0000
  O   O73       1.0  0.8014  0.25738  0.23592999999999997  1.0000
  O   O74       1.0  0.78919  0.24336999999999998  0.69866  1.0000
  O   O75       1.0  0.03858  0.7787699999999997  0.13508  1.0000
  O   O76       1.0  0.18324  0.6617799999999999  0.68566  1.0000
  O   O77       1.0  0.16558  0.7688099999999998  0.62855  1.0000
  O   O78       1.0  0.8167800000000001  0.3382199999999999  0.31434  1.0000
  O   O79       1.0  0.37176  0.83784  0.28212  1.0000
  O   O80       1.0  0.52565  0.83805  0.32172  1.0000
