data_image0
_chemical_formula_structural       Sc18H180C324O78
_chemical_formula_sum              "Sc18 H180 C324 O78"
_cell_length_a       17.10315
_cell_length_b       31.83014
_cell_length_c       31.82932
_cell_angle_alpha    119.95466
_cell_angle_beta     90.00869000000002
_cell_angle_gamma    89.99131

_symmetry_space_group_name_H-M    'P 1'
_symmetry_Int_Tables_number       1

loop_
  _symmetry_equiv_pos_as_xyz
  'x,y,z'

loop_
  _atom_site_type_symbol
  _atom_site_label
  _atom_site_symmetry_multiplicity
  _atom_site_fract_x
  _atom_site_fract_y
  _atom_site_fract_z
  _atom_site_occupancy
  Sc  Sc1       1.0  0.65134  0.4970199999999999  0.9256999999999997  1.0000
  Sc  Sc2       1.0  0.65121  0.42878  0.50353  1.0000
  Sc  Sc3       1.0  0.65136  0.07449000000000001  0.57118  1.0000
  Sc  Sc4       1.0  0.84869  0.4964499999999999  0.9254899999999998  1.0000
  Sc  Sc5       1.0  0.84852  0.42866  0.50317  1.0000
  Sc  Sc6       1.0  0.84862  0.07450999999999988  0.5711999999999998  1.0000
  Sc  Sc7       1.0  0.34855000000000014  0.50372  0.4288899999999999  1.0000
  Sc  Sc8       1.0  0.34865  0.57107  0.07451  1.0000
  Sc  Sc9       1.0  0.34851  0.92568  0.49695  1.0000
  Sc  Sc10      1.0  0.15153  0.50316  0.42849  1.0000
  Sc  Sc11      1.0  0.15144  0.5713  0.07448999999999997  1.0000
  Sc  Sc12      1.0  0.15113000000000004  0.92546  0.49663999999999997  1.0000
  Sc  Sc13      1.0  0.74996  0.46145  0.82054  1.0000
  Sc  Sc14      1.0  0.74996  0.35871999999999993  0.53855  1.0000
  Sc  Sc15      1.0  0.75  0.17955999999999994  0.6411899999999999  1.0000
  Sc  Sc16      1.0  0.25001  0.53894  0.35888  1.0000
  Sc  Sc17      1.0  0.24994  0.6410900000000002  0.17958  1.0000
  Sc  Sc18      1.0  0.25003  0.8205599999999998  0.46166  1.0000
  H   H1        1.0  0.37588  0.16259999999999988  0.6394699999999998  1.0000
  H   H2        1.0  0.35948  0.6029599999999999  0.8762099999999998  1.0000
  H   H3        1.0  0.37632  0.23136  0.68457  1.0000
  H   H4        1.0  0.46657  0.29169999999999996  0.6867699999999999  1.0000
  H   H5        1.0  0.37458  0.07401999999999995  0.5964899999999999  1.0000
  H   H6        1.0  0.48023  0.5838299999999997  0.9064199999999998  1.0000
  H   H7        1.0  0.37597  0.57285  0.7217  1.0000
  H   H8        1.0  0.57206  0.50758  0.7614399999999998  1.0000
  H   H9        1.0  0.58621  0.33871  0.72762  1.0000
  H   H10       1.0  0.45024  0.52389  0.73053  1.0000
  H   H11       1.0  0.46044  0.41371999999999987  0.8623899999999998  1.0000
  H   H12       1.0  0.34085  0.3678799999999999  0.8217899999999998  1.0000
  H   H13       1.0  0.37606  0.5699299999999998  0.6599899999999997  1.0000
  H   H14       1.0  0.3742700000000001  0.55985  0.57835  1.0000
  H   H15       1.0  0.37645  0.4765299999999999  0.8365899999999997  1.0000
  H   H16       1.0  0.35957  0.27309  0.39699  1.0000
  H   H17       1.0  0.37634  0.4527599999999999  0.7684499999999997  1.0000
  H   H18       1.0  0.4665000000000001  0.39495999999999987  0.7083799999999998  1.0000
  H   H19       1.0  0.37692  0.5221399999999998  0.9250899999999997  1.0000
  H   H20       1.0  0.48009  0.3225600000000001  0.41619  1.0000
  H   H21       1.0  0.37588  0.14894  0.42736  1.0000
  H   H22       1.0  0.57219  0.25378  0.4926099999999999  1.0000
  H   H23       1.0  0.5861600000000002  0.3889099999999999  0.6613799999999999  1.0000
  H   H24       1.0  0.4505900000000001  0.20639999999999994  0.4761799999999999  1.0000
  H   H25       1.0  0.4602500000000001  0.44873999999999997  0.5862599999999999  1.0000
  H   H26       1.0  0.3406300000000001  0.45397999999999983  0.6320999999999998  1.0000
  H   H27       1.0  0.37641  0.09047999999999992  0.4299399999999999  1.0000
  H   H28       1.0  0.37571000000000004  0.018709999999999952  0.4396499999999999  1.0000
  H   H29       1.0  0.377  0.36009999999999986  0.5233499999999999  1.0000
  H   H30       1.0  0.3594400000000001  0.12398  0.72701  1.0000
  H   H31       1.0  0.3765  0.31569  0.54731  1.0000
  H   H32       1.0  0.46649  0.3133099999999999  0.6050699999999999  1.0000
  H   H33       1.0  0.37754  0.40321999999999997  0.4778799999999999  1.0000
  H   H34       1.0  0.47989  0.0936899999999999  0.6774699999999998  1.0000
  H   H35       1.0  0.37576  0.2783199999999999  0.8511599999999998  1.0000
  H   H36       1.0  0.57225  0.2385099999999999  0.7460499999999998  1.0000
  H   H37       1.0  0.5862  0.2722999999999999  0.6109699999999998  1.0000
  H   H38       1.0  0.4508000000000001  0.26957  0.7935099999999998  1.0000
  H   H39       1.0  0.4603  0.13754000000000005  0.55121  1.0000
  H   H40       1.0  0.34058  0.17818999999999988  0.5461099999999998  1.0000
  H   H41       1.0  0.37607  0.3398199999999999  0.9096599999999998  1.0000
  H   H42       1.0  0.37492  0.4212299999999998  0.9812099999999998  1.0000
  H   H43       1.0  0.12339999999999998  0.16347999999999993  0.6399199999999999  1.0000
  H   H44       1.0  0.14047000000000004  0.60287  0.87619  1.0000
  H   H45       1.0  0.12368  0.23155999999999988  0.6845999999999998  1.0000
  H   H46       1.0  0.033450000000000014  0.29181000000000007  0.68678  1.0000
  H   H47       1.0  0.12299  0.07493999999999991  0.5969299999999997  1.0000
  H   H48       1.0  0.0196  0.58372  0.90628  1.0000
  H   H49       1.0  0.12416999999999999  0.57295  0.7218799999999997  1.0000
  H   H50       1.0  0.9281  0.50757  0.76119  1.0000
  H   H51       1.0  0.91378  0.3387399999999999  0.7277399999999998  1.0000
  H   H52       1.0  0.05  0.52392  0.73044  1.0000
  H   H53       1.0  0.03981  0.41368  0.86246  1.0000
  H   H54       1.0  0.15941  0.3679299999999999  0.8218  1.0000
  H   H55       1.0  0.12326  0.57025  0.66091  1.0000
  H   H56       1.0  0.12318000000000001  0.56021  0.57935  1.0000
  H   H57       1.0  0.12416999999999999  0.4769899999999999  0.8374999999999998  1.0000
  H   H58       1.0  0.14065000000000003  0.27312  0.39705  1.0000
  H   H59       1.0  0.12356000000000002  0.4528799999999999  0.7686199999999997  1.0000
  H   H60       1.0  0.03352  0.39509  0.70853  1.0000
  H   H61       1.0  0.12558  0.5226599999999998  0.9260599999999998  1.0000
  H   H62       1.0  0.02012  0.32262  0.4161399999999999  1.0000
  H   H63       1.0  0.12405  0.1489  0.42733  1.0000
  H   H64       1.0  0.9277400000000001  0.25386  0.4925099999999999  1.0000
  H   H65       1.0  0.91389  0.38883999999999996  0.6613799999999999  1.0000
  H   H66       1.0  0.04932  0.20646999999999996  0.4761699999999999  1.0000
  H   H67       1.0  0.0395  0.4485499999999999  0.5861999999999998  1.0000
  H   H68       1.0  0.1592  0.4540299999999999  0.6321599999999998  1.0000
  H   H69       1.0  0.12374  0.09050000000000002  0.4301  1.0000
  H   H70       1.0  0.12463000000000002  0.018709999999999952  0.4398199999999999  1.0000
  H   H71       1.0  0.12435  0.3604399999999999  0.52267  1.0000
  H   H72       1.0  0.14056000000000005  0.12392999999999994  0.7269899999999999  1.0000
  H   H73       1.0  0.12378  0.31591  0.54709  1.0000
  H   H74       1.0  0.03331  0.3134  0.60498  1.0000
  H   H75       1.0  0.12598000000000006  0.4036600000000001  0.4771799999999999  1.0000
  H   H76       1.0  0.02014  0.09361999999999994  0.6774199999999999  1.0000
  H   H77       1.0  0.12412000000000001  0.2782199999999999  0.8510399999999998  1.0000
  H   H78       1.0  0.92776  0.23838999999999994  0.7459299999999998  1.0000
  H   H79       1.0  0.9137  0.27237  0.61101  1.0000
  H   H80       1.0  0.04921000000000001  0.26946  0.79338  1.0000
  H   H81       1.0  0.03968  0.1377  0.5513  1.0000
  H   H82       1.0  0.15925000000000006  0.17833  0.54608  1.0000
  H   H83       1.0  0.12336  0.3391999999999999  0.9092399999999998  1.0000
  H   H84       1.0  0.12344000000000001  0.4206099999999999  0.9807999999999998  1.0000
  H   H85       1.0  0.62386  0.83697  0.4767  1.0000
  H   H86       1.0  0.64013  0.3972199999999999  0.27339999999999987  1.0000
  H   H87       1.0  0.62367  0.7685499999999998  0.4528399999999999  1.0000
  H   H88       1.0  0.53355  0.70848  0.3949899999999999  1.0000
  H   H89       1.0  0.62416  0.92553  0.52226  1.0000
  H   H90       1.0  0.51945  0.4166199999999999  0.3227199999999999  1.0000
  H   H91       1.0  0.62415  0.42707  0.14892  1.0000
  H   H92       1.0  0.42821  0.49274  0.25337  1.0000
  H   H93       1.0  0.41389  0.66145  0.38889  1.0000
  H   H94       1.0  0.55012  0.47611  0.20624  1.0000
  H   H95       1.0  0.5398100000000001  0.58636  0.44875999999999994  1.0000
  H   H96       1.0  0.65945  0.63216  0.4539199999999999  1.0000
  H   H97       1.0  0.6234200000000002  0.42978  0.09071999999999997  1.0000
  H   H98       1.0  0.6235  0.43985  0.019189999999999995  1.0000
  H   H99       1.0  0.62333  0.52341  0.3600299999999999  1.0000
  H   H100      1.0  0.64042  0.72693  0.12411999999999997  1.0000
  H   H101      1.0  0.62353  0.54735  0.31571  1.0000
  H   H102      1.0  0.53352  0.60508  0.31327  1.0000
  H   H103      1.0  0.62293  0.47788999999999987  0.40311999999999987  1.0000
  H   H104      1.0  0.5199  0.67751  0.09383999999999999  1.0000
  H   H105      1.0  0.62429  0.85117  0.27832999999999997  1.0000
  H   H106      1.0  0.42784  0.7462200000000002  0.23876999999999995  1.0000
  H   H107      1.0  0.41381  0.61101  0.27219  1.0000
  H   H108      1.0  0.54942  0.79357  0.26965  1.0000
  H   H109      1.0  0.53979  0.55117  0.13746999999999998  1.0000
  H   H110      1.0  0.65948  0.54605  0.17814999999999998  1.0000
  H   H111      1.0  0.62388  0.9093500000000001  0.33952  1.0000
  H   H112      1.0  0.62437  0.9810799999999997  0.4208499999999999  1.0000
  H   H113      1.0  0.6242600000000003  0.63941  0.16240999999999994  1.0000
  H   H114      1.0  0.64049  0.8760899999999999  0.60303  1.0000
  H   H115      1.0  0.62374  0.68439  0.23127  1.0000
  H   H116      1.0  0.53332  0.6867500000000001  0.29173  1.0000
  H   H117      1.0  0.62586  0.59648  0.07379999999999998  1.0000
  H   H118      1.0  0.5199  0.9063599999999998  0.5837599999999997  1.0000
  H   H119      1.0  0.62409  0.72167  0.57287  1.0000
  H   H120      1.0  0.42781  0.76152  0.50757  1.0000
  H   H121      1.0  0.41369000000000006  0.72769  0.33864  1.0000
  H   H122      1.0  0.54948  0.7304999999999999  0.5239599999999999  1.0000
  H   H123      1.0  0.53962  0.8624  0.4135999999999999  1.0000
  H   H124      1.0  0.6592  0.82176  0.3678299999999999  1.0000
  H   H125      1.0  0.62374  0.66022  0.57006  1.0000
  H   H126      1.0  0.62494  0.5786399999999999  0.5600199999999997  1.0000
  H   H127      1.0  0.8760500000000002  0.8371800000000003  0.4768799999999999  1.0000
  H   H128      1.0  0.85952  0.39713  0.27327999999999997  1.0000
  H   H129      1.0  0.87651  0.76861  0.4529499999999999  1.0000
  H   H130      1.0  0.96653  0.70851  0.39509  1.0000
  H   H131      1.0  0.87542  0.9257299999999999  0.5224399999999999  1.0000
  H   H132      1.0  0.9801600000000001  0.41629  0.32268  1.0000
  H   H133      1.0  0.87601  0.42721  0.14885  1.0000
  H   H134      1.0  0.07199  0.49261999999999995  0.25377999999999995  1.0000
  H   H135      1.0  0.08619  0.6614  0.3889299999999999  1.0000
  H   H136      1.0  0.95035  0.47613999999999995  0.20643999999999996  1.0000
  H   H137      1.0  0.96034  0.5862199999999999  0.44864999999999994  1.0000
  H   H138      1.0  0.84079  0.63219  0.4539799999999999  1.0000
  H   H139      1.0  0.8759900000000003  0.43003999999999987  0.09019999999999997  1.0000
  H   H140      1.0  0.87431  0.44011  0.018629999999999994  1.0000
  H   H141      1.0  0.87579  0.52285  0.3604  1.0000
  H   H142      1.0  0.85929  0.72697  0.12393999999999997  1.0000
  H   H143      1.0  0.87634  0.54718  0.31577  1.0000
  H   H144      1.0  0.9664900000000001  0.6050399999999999  0.3133999999999999  1.0000
  H   H145      1.0  0.8744500000000001  0.47729999999999995  0.4035299999999999  1.0000
  H   H146      1.0  0.9798500000000001  0.67752  0.09360999999999997  1.0000
  H   H147      1.0  0.8759  0.85102  0.27828  1.0000
  H   H148      1.0  0.07227  0.74602  0.23839999999999995  1.0000
  H   H149      1.0  0.08623  0.61109  0.27243  1.0000
  H   H150      1.0  0.95077  0.7934  0.26951  1.0000
  H   H151      1.0  0.9604100000000001  0.55128  0.13759999999999997  1.0000
  H   H152      1.0  0.84078  0.54603  0.17821999999999996  1.0000
  H   H153      1.0  0.8764700000000002  0.90934  0.3395  1.0000
  H   H154      1.0  0.87595  0.98106  0.4208399999999999  1.0000
  H   H155      1.0  0.87679  0.63988  0.16348999999999994  1.0000
  H   H156      1.0  0.85952  0.8761499999999999  0.6030699999999998  1.0000
  H   H157      1.0  0.87634  0.6845499999999999  0.23157999999999995  1.0000
  H   H158      1.0  0.9664900000000001  0.6867  0.29178  1.0000
  H   H159      1.0  0.87759  0.59699  0.07500999999999997  1.0000
  H   H160      1.0  0.9802  0.90634  0.5838199999999998  1.0000
  H   H161      1.0  0.87591  0.72173  0.57285  1.0000
  H   H162      1.0  0.07214  0.7614199999999999  0.5076  1.0000
  H   H163      1.0  0.08625  0.7276  0.33861  1.0000
  H   H164      1.0  0.9504400000000001  0.7304299999999999  0.5239299999999998  1.0000
  H   H165      1.0  0.9604100000000001  0.8624  0.41367  1.0000
  H   H166      1.0  0.8407100000000002  0.8218  0.36798  1.0000
  H   H167      1.0  0.8765300000000003  0.6605799999999998  0.5701199999999998  1.0000
  H   H168      1.0  0.8760500000000002  0.5790099999999999  0.5601399999999999  1.0000
  H   H169      1.0  0.25011  0.3637899999999999  0.7691099999999997  1.0000
  H   H170      1.0  0.25018  0.56677  0.8349299999999997  1.0000
  H   H171      1.0  0.24992000000000003  0.4051999999999999  0.6362499999999998  1.0000
  H   H172      1.0  0.25001  0.26795999999999986  0.4330199999999999  1.0000
  H   H173      1.0  0.24969999999999998  0.23084999999999997  0.5946099999999999  1.0000
  H   H174      1.0  0.25005000000000005  0.16493999999999995  0.73204  1.0000
  H   H175      1.0  0.7501000000000002  0.6363  0.4051699999999999  1.0000
  H   H176      1.0  0.75012  0.43294  0.26799  1.0000
  H   H177      1.0  0.75015  0.59472  0.23085999999999995  1.0000
  H   H178      1.0  0.74989  0.73201  0.16496999999999995  1.0000
  H   H179      1.0  0.74977  0.76915  0.36375999999999986  1.0000
  H   H180      1.0  0.74996  0.83491  0.5668499999999997  1.0000
  C   C1        1.0  0.32142  0.3001099999999999  0.7286299999999998  1.0000
  C   C2        1.0  0.39462  0.3264299999999999  0.7511399999999998  1.0000
  C   C3        1.0  0.53148  0.37951999999999997  0.7977899999999999  1.0000
  C   C4        1.0  0.31984  0.1441599999999999  0.6308299999999998  1.0000
  C   C5        1.0  0.39588  0.56508  0.8009799999999998  1.0000
  C   C6        1.0  0.40574  0.5820599999999999  0.8508799999999997  1.0000
  C   C7        1.0  0.32072  0.25036999999999987  0.6947799999999997  1.0000
  C   C8        1.0  0.46522  0.3180499999999999  0.7253599999999998  1.0000
  C   C9        1.0  0.31962  0.09382999999999996  0.60614  1.0000
  C   C10       1.0  0.32132  0.57107  0.78122  1.0000
  C   C11       1.0  0.47341  0.5716899999999998  0.8680799999999997  1.0000
  C   C12       1.0  0.32031  0.57247  0.7379099999999997  1.0000
  C   C13       1.0  0.52583  0.5289499999999998  0.7864399999999998  1.0000
  C   C14       1.0  0.53244  0.34445999999999993  0.7480999999999998  1.0000
  C   C15       1.0  0.45763  0.5388699999999998  0.7693599999999999  1.0000
  C   C16       1.0  0.60158  0.5292899999999999  0.8538799999999999  1.0000
  C   C17       1.0  0.60042  0.4095899999999999  0.8228899999999998  1.0000
  C   C18       1.0  0.46144000000000013  0.38713  0.82392  1.0000
  C   C19       1.0  0.39432  0.3614499999999999  0.8009299999999998  1.0000
  C   C20       1.0  0.53393  0.54449  0.8360699999999999  1.0000
  C   C21       1.0  0.32001  0.56784  0.6430499999999998  1.0000
  C   C22       1.0  0.31968  0.56225  0.5969299999999997  1.0000
  C   C23       1.0  0.32136  0.4283599999999999  0.6998199999999998  1.0000
  C   C24       1.0  0.39456  0.42464  0.67352  1.0000
  C   C25       1.0  0.53129  0.4183199999999999  0.6205399999999998  1.0000
  C   C26       1.0  0.3208000000000001  0.4864399999999999  0.8554199999999997  1.0000
  C   C27       1.0  0.39599  0.23585999999999993  0.43503999999999987  1.0000
  C   C28       1.0  0.4058200000000001  0.26875  0.41801  1.0000
  C   C29       1.0  0.32068000000000013  0.44415  0.74952  1.0000
  C   C30       1.0  0.46516  0.4072299999999999  0.6819999999999998  1.0000
  C   C31       1.0  0.32159  0.5121199999999999  0.9057099999999999  1.0000
  C   C32       1.0  0.3213100000000001  0.21020999999999995  0.4291099999999999  1.0000
  C   C33       1.0  0.47342  0.29639  0.42841  1.0000
  C   C34       1.0  0.32024  0.16556  0.4278  1.0000
  C   C35       1.0  0.52591  0.25738  0.4712  1.0000
  C   C36       1.0  0.53236  0.40362  0.65559  1.0000
  C   C37       1.0  0.45776  0.23032999999999995  0.4612499999999999  1.0000
  C   C38       1.0  0.60154  0.32449  0.4710099999999999  1.0000
  C   C39       1.0  0.60019  0.41348  0.59054  1.0000
  C   C40       1.0  0.46125  0.43686  0.61288  1.0000
  C   C41       1.0  0.39414  0.43952  0.63855  1.0000
  C   C42       1.0  0.53385  0.29153  0.45571  1.0000
  C   C43       1.0  0.3206200000000001  0.07538999999999997  0.43202999999999997  1.0000
  C   C44       1.0  0.3209  0.03478999999999996  0.43744999999999995  1.0000
  C   C45       1.0  0.3213  0.27146  0.57169  1.0000
  C   C46       1.0  0.3944600000000001  0.24889999999999987  0.5754799999999998  1.0000
  C   C47       1.0  0.53134  0.2021299999999999  0.5816499999999998  1.0000
  C   C48       1.0  0.3213100000000001  0.36903  0.51344  1.0000
  C   C49       1.0  0.39593  0.1991599999999999  0.7641999999999998  1.0000
  C   C50       1.0  0.40571  0.14927999999999989  0.7312899999999998  1.0000
  C   C51       1.0  0.32079  0.30537  0.55584  1.0000
  C   C52       1.0  0.4651200000000001  0.27469  0.59281  1.0000
  C   C53       1.0  0.32216  0.39375  0.48782  1.0000
  C   C54       1.0  0.3212800000000001  0.21885  0.7898799999999999  1.0000
  C   C55       1.0  0.47328000000000003  0.13203999999999982  0.7036299999999998  1.0000
  C   C56       1.0  0.32015  0.26215  0.83453  1.0000
  C   C57       1.0  0.52592  0.2136  0.7425099999999998  1.0000
  C   C58       1.0  0.53236  0.25187  0.59634  1.0000
  C   C59       1.0  0.45780000000000004  0.23074000000000006  0.76959  1.0000
  C   C60       1.0  0.60168  0.14622999999999994  0.6754899999999999  1.0000
  C   C61       1.0  0.6002100000000002  0.17687999999999995  0.5864799999999999  1.0000
  C   C62       1.0  0.46124000000000004  0.17602999999999983  0.5631499999999998  1.0000
  C   C63       1.0  0.39409  0.19905000000000006  0.56056  1.0000
  C   C64       1.0  0.5338900000000001  0.164  0.7083999999999999  1.0000
  C   C65       1.0  0.32016  0.35685999999999996  0.9246599999999998  1.0000
  C   C66       1.0  0.32006  0.4028899999999999  0.9652099999999998  1.0000
  C   C67       1.0  0.1787  0.30019999999999997  0.7286399999999998  1.0000
  C   C68       1.0  0.10551  0.3265299999999999  0.7511499999999998  1.0000
  C   C69       1.0  0.9686300000000001  0.37949  0.79792  1.0000
  C   C70       1.0  0.17906000000000005  0.14462999999999984  0.6310499999999998  1.0000
  C   C71       1.0  0.10426  0.56502  0.8009399999999999  1.0000
  C   C72       1.0  0.09424000000000003  0.5819799999999998  0.8508199999999998  1.0000
  C   C73       1.0  0.17933000000000004  0.25048999999999993  0.6947899999999999  1.0000
  C   C74       1.0  0.03484  0.31814  0.72539  1.0000
  C   C75       1.0  0.17834  0.09432000000000001  0.60636  1.0000
  C   C76       1.0  0.17885000000000006  0.57105  0.78126  1.0000
  C   C77       1.0  0.026500000000000006  0.57158  0.86794  1.0000
  C   C78       1.0  0.17987000000000003  0.57251  0.738  1.0000
  C   C79       1.0  0.97427  0.52893  0.78625  1.0000
  C   C80       1.0  0.9676200000000001  0.34451  0.74819  1.0000
  C   C81       1.0  0.04253000000000001  0.53887  0.76925  1.0000
  C   C82       1.0  0.89841  0.52883  0.8533699999999997  1.0000
  C   C83       1.0  0.8996900000000001  0.40939  0.82324  1.0000
  C   C84       1.0  0.03877  0.3871199999999999  0.8239899999999998  1.0000
  C   C85       1.0  0.1059  0.36149999999999993  0.80096  1.0000
  C   C86       1.0  0.9660700000000001  0.54434  0.8358299999999997  1.0000
  C   C87       1.0  0.17895  0.5680299999999998  0.6435599999999998  1.0000
  C   C88       1.0  0.17818000000000006  0.5624499999999999  0.5974699999999997  1.0000
  C   C89       1.0  0.17858  0.42842  0.69991  1.0000
  C   C90       1.0  0.10541000000000003  0.42465999999999987  0.6735799999999997  1.0000
  C   C91       1.0  0.9686200000000001  0.4181  0.62046  1.0000
  C   C92       1.0  0.18021  0.48670999999999986  0.8559199999999998  1.0000
  C   C93       1.0  0.10405000000000002  0.23590999999999993  0.4350699999999999  1.0000
  C   C94       1.0  0.09432  0.2687999999999999  0.4180199999999999  1.0000
  C   C95       1.0  0.1792  0.44422  0.74963  1.0000
  C   C96       1.0  0.03485  0.4072700000000001  0.68209  1.0000
  C   C97       1.0  0.18049  0.5124199999999998  0.9062399999999998  1.0000
  C   C98       1.0  0.17868  0.21019999999999994  0.4291099999999999  1.0000
  C   C99       1.0  0.02672  0.29644  0.42836999999999986  1.0000
  C   C100      1.0  0.1797  0.1655399999999999  0.4278099999999999  1.0000
  C   C101      1.0  0.97405  0.25747  0.47111999999999987  1.0000
  C   C102      1.0  0.9676600000000001  0.4035699999999999  0.6556199999999998  1.0000
  C   C103      1.0  0.04219000000000001  0.23039999999999994  0.4612199999999999  1.0000
  C   C104      1.0  0.8984800000000002  0.32459  0.47078  1.0000
  C   C105      1.0  0.89959  0.4130599999999998  0.5903899999999997  1.0000
  C   C106      1.0  0.0386  0.4367199999999998  0.6128499999999998  1.0000
  C   C107      1.0  0.10575  0.4395  0.6385699999999997  1.0000
  C   C108      1.0  0.9661700000000001  0.2916199999999999  0.4556099999999999  1.0000
  C   C109      1.0  0.17957000000000006  0.07537999999999997  0.4320999999999999  1.0000
  C   C110      1.0  0.1794  0.034779999999999985  0.43754  1.0000
  C   C111      1.0  0.17857  0.27153999999999995  0.5715399999999999  1.0000
  C   C112      1.0  0.10537  0.24900999999999995  0.5753499999999999  1.0000
  C   C113      1.0  0.9686  0.20229999999999984  0.5817699999999998  1.0000
  C   C114      1.0  0.18048000000000006  0.3692200000000001  0.51308  1.0000
  C   C115      1.0  0.10414000000000001  0.1990799999999999  0.7641499999999998  1.0000
  C   C116      1.0  0.09431  0.14922000000000005  0.73125  1.0000
  C   C117      1.0  0.17935  0.3054899999999999  0.5557099999999998  1.0000
  C   C118      1.0  0.03472  0.2747999999999999  0.5927199999999998  1.0000
  C   C119      1.0  0.18079  0.39395  0.48746  1.0000
  C   C120      1.0  0.17878  0.2188  0.78985  1.0000
  C   C121      1.0  0.026730000000000007  0.13195999999999994  0.7035899999999999  1.0000
  C   C122      1.0  0.17979  0.26211  0.83448  1.0000
  C   C123      1.0  0.97411  0.21348999999999985  0.7424099999999998  1.0000
  C   C124      1.0  0.9675600000000001  0.25197  0.59635  1.0000
  C   C125      1.0  0.04225  0.23064999999999994  0.76949  1.0000
  C   C126      1.0  0.89832  0.14611999999999994  0.6754299999999999  1.0000
  C   C127      1.0  0.89972  0.17722000000000002  0.58683  1.0000
  C   C128      1.0  0.03865000000000001  0.17616  0.56319  1.0000
  C   C129      1.0  0.10575  0.19918999999999995  0.5604999999999999  1.0000
  C   C130      1.0  0.96611  0.16390999999999994  0.7083399999999999  1.0000
  C   C131      1.0  0.17906000000000005  0.3564699999999999  0.9243999999999998  1.0000
  C   C132      1.0  0.17844  0.4024599999999999  0.9649199999999998  1.0000
  C   C133      1.0  0.6787  0.6998899999999999  0.4283199999999999  1.0000
  C   C134      1.0  0.6055400000000002  0.67358  0.42458999999999997  1.0000
  C   C135      1.0  0.46874999999999994  0.62067  0.41837  1.0000
  C   C136      1.0  0.67963  0.85563  0.4865299999999999  1.0000
  C   C137      1.0  0.60413  0.43506  0.23590999999999995  1.0000
  C   C138      1.0  0.5939900000000002  0.41818  0.2689  1.0000
  C   C139      1.0  0.6793500000000001  0.74962  0.4442099999999999  1.0000
  C   C140      1.0  0.53492  0.6820600000000002  0.4072099999999999  1.0000
  C   C141      1.0  0.6792800000000002  0.9059299999999999  0.5122  1.0000
  C   C142      1.0  0.67877  0.42894  0.21021999999999996  1.0000
  C   C143      1.0  0.52631  0.42873999999999995  0.2964699999999999  1.0000
  C   C144      1.0  0.6798200000000002  0.4275  0.16550999999999996  1.0000
  C   C145      1.0  0.47434  0.47134  0.25712  1.0000
  C   C146      1.0  0.46771  0.65568  0.40361  1.0000
  C   C147      1.0  0.54259  0.46125  0.23018999999999998  1.0000
  C   C148      1.0  0.3985  0.47187  0.32436  1.0000
  C   C149      1.0  0.39971  0.5909  0.4139399999999999  1.0000
  C   C150      1.0  0.53882  0.61297  0.43685  1.0000
  C   C151      1.0  0.6059600000000002  0.63859  0.43945  1.0000
  C   C152      1.0  0.4661400000000001  0.4560799999999999  0.2914099999999999  1.0000
  C   C153      1.0  0.67908  0.432  0.07560999999999997  1.0000
  C   C154      1.0  0.67842  0.43752  0.03508  1.0000
  C   C155      1.0  0.6787  0.57172  0.27143999999999996  1.0000
  C   C156      1.0  0.6055400000000002  0.57546  0.24884999999999993  1.0000
  C   C157      1.0  0.46871  0.58162  0.20203999999999994  1.0000
  C   C158      1.0  0.67902  0.5135099999999999  0.3689899999999999  1.0000
  C   C159      1.0  0.60408  0.7642  0.19923999999999997  1.0000
  C   C160      1.0  0.59415  0.73126  0.14939999999999998  1.0000
  C   C161      1.0  0.67925  0.5558899999999999  0.30536999999999986  1.0000
  C   C162      1.0  0.53488  0.59282  0.27464  1.0000
  C   C163      1.0  0.67828  0.48789  0.3937  1.0000
  C   C164      1.0  0.6787400000000002  0.78986  0.21888  1.0000
  C   C165      1.0  0.52655  0.70365  0.13219  1.0000
  C   C166      1.0  0.6798800000000003  0.83451  0.26217  1.0000
  C   C167      1.0  0.47413  0.74264  0.21380999999999994  1.0000
  C   C168      1.0  0.46767  0.59636  0.25178  1.0000
  C   C169      1.0  0.54229  0.76966  0.23085999999999995  1.0000
  C   C170      1.0  0.39838  0.67553  0.14672  1.0000
  C   C171      1.0  0.39973  0.58614  0.17666  1.0000
  C   C172      1.0  0.53883  0.56314  0.17597  1.0000
  C   C173      1.0  0.6059600000000002  0.56053  0.19899999999999995  1.0000
  C   C174      1.0  0.46604  0.70851  0.16425999999999993  1.0000
  C   C175      1.0  0.67962  0.92452  0.35668999999999995  1.0000
  C   C176      1.0  0.67936  0.9651099999999999  0.40267999999999987  1.0000
  C   C177      1.0  0.6785700000000001  0.7286  0.30006  1.0000
  C   C178      1.0  0.6053600000000002  0.7511199999999999  0.3263999999999999  1.0000
  C   C179      1.0  0.46845  0.7978499999999997  0.37946999999999986  1.0000
  C   C180      1.0  0.68035  0.63078  0.14402999999999996  1.0000
  C   C181      1.0  0.6041000000000002  0.8009099999999999  0.5650299999999998  1.0000
  C   C182      1.0  0.59427  0.8507900000000002  0.5820399999999998  1.0000
  C   C183      1.0  0.67931  0.69469  0.25031  1.0000
  C   C184      1.0  0.53471  0.72535  0.31803  1.0000
  C   C185      1.0  0.68074  0.60616  0.09373  1.0000
  C   C186      1.0  0.6786900000000001  0.78116  0.57102  1.0000
  C   C187      1.0  0.5266500000000002  0.86804  0.57165  1.0000
  C   C188      1.0  0.67974  0.7378399999999999  0.5724199999999999  1.0000
  C   C189      1.0  0.47411000000000003  0.78645  0.5289399999999999  1.0000
  C   C190      1.0  0.46749  0.74816  0.34444  1.0000
  C   C191      1.0  0.54227  0.76931  0.53885  1.0000
  C   C192      1.0  0.39835  0.8538800000000001  0.52937  1.0000
  C   C193      1.0  0.39962  0.82306  0.40966  1.0000
  C   C194      1.0  0.53856  0.82394  0.3870499999999999  1.0000
  C   C195      1.0  0.60569  0.8009099999999999  0.36138999999999993  1.0000
  C   C196      1.0  0.4661  0.8360499999999998  0.5444599999999999  1.0000
  C   C197      1.0  0.67969  0.64312  0.56789  1.0000
  C   C198      1.0  0.6797000000000002  0.5970399999999999  0.5623799999999999  1.0000
  C   C199      1.0  0.82148  0.6999199999999999  0.4284499999999999  1.0000
  C   C200      1.0  0.89463  0.67361  0.42470999999999987  1.0000
  C   C201      1.0  0.031240000000000004  0.62052  0.41818  1.0000
  C   C202      1.0  0.8201900000000002  0.8557699999999998  0.4866499999999999  1.0000
  C   C203      1.0  0.8959200000000002  0.43501  0.23591999999999994  1.0000
  C   C204      1.0  0.9058  0.41807  0.2688799999999999  1.0000
  C   C205      1.0  0.8208600000000001  0.74964  0.44426  1.0000
  C   C206      1.0  0.9651899999999999  0.68211  0.4072999999999999  1.0000
  C   C207      1.0  0.82035  0.9060799999999999  0.5123199999999999  1.0000
  C   C208      1.0  0.82135  0.42897  0.21018  1.0000
  C   C209      1.0  0.97343  0.42849999999999994  0.2964999999999999  1.0000
  C   C210      1.0  0.8203800000000001  0.42761  0.1655  1.0000
  C   C211      1.0  0.02575  0.4712200000000001  0.25741  1.0000
  C   C212      1.0  0.03233  0.65563  0.4036  1.0000
  C   C213      1.0  0.9576000000000001  0.46122  0.23036  1.0000
  C   C214      1.0  0.10158  0.47107  0.3244899999999999  1.0000
  C   C215      1.0  0.10024  0.59055  0.4131799999999999  1.0000
  C   C216      1.0  0.9612999999999999  0.61283  0.43676  1.0000
  C   C217      1.0  0.89425  0.63858  0.4394899999999999  1.0000
  C   C218      1.0  0.03383  0.4557899999999999  0.29159  1.0000
  C   C219      1.0  0.82  0.43216  0.07531  1.0000
  C   C220      1.0  0.81973  0.43768  0.03476  1.0000
  C   C221      1.0  0.8214600000000001  0.57159  0.27143999999999996  1.0000
  C   C222      1.0  0.89467  0.57537  0.24891999999999995  1.0000
  C   C223      1.0  0.03132  0.58179  0.20227  1.0000
  C   C224      1.0  0.81974  0.5132  0.36918999999999996  1.0000
  C   C225      1.0  0.89581  0.7641  0.19909  1.0000
  C   C226      1.0  0.9056100000000001  0.73125  0.14921999999999996  1.0000
  C   C227      1.0  0.82071  0.55579  0.3053999999999999  1.0000
  C   C228      1.0  0.9652500000000002  0.59278  0.27477  1.0000
  C   C229      1.0  0.81952  0.48756  0.39390999999999987  1.0000
  C   C230      1.0  0.8212200000000001  0.7898  0.21882999999999994  1.0000
  C   C231      1.0  0.9732400000000001  0.70365  0.13195  1.0000
  C   C232      1.0  0.8202500000000003  0.8344299999999999  0.26215  1.0000
  C   C233      1.0  0.02588  0.7424700000000002  0.2135  1.0000
  C   C234      1.0  0.03241  0.59641  0.25196999999999997  1.0000
  C   C235      1.0  0.95772  0.76951  0.23069  1.0000
  C   C236      1.0  0.10162000000000003  0.67543  0.1461  1.0000
  C   C237      1.0  0.10020000000000001  0.58685  0.17721999999999993  1.0000
  C   C238      1.0  0.96134  0.5632  0.17608999999999997  1.0000
  C   C239      1.0  0.89427  0.5605  0.19909  1.0000
  C   C240      1.0  0.03385000000000001  0.70836  0.16392999999999994  1.0000
  C   C241      1.0  0.8207  0.9244899999999999  0.3566599999999999  1.0000
  C   C242      1.0  0.82102  0.9650800000000003  0.40264  1.0000
  C   C243      1.0  0.82131  0.72863  0.3002  1.0000
  C   C244      1.0  0.8945300000000003  0.75113  0.3265299999999999  1.0000
  C   C245      1.0  0.03144  0.7977599999999999  0.37946  1.0000
  C   C246      1.0  0.8211600000000001  0.63103  0.1446  1.0000
  C   C247      1.0  0.89587  0.8009099999999999  0.5650599999999999  1.0000
  C   C248      1.0  0.90574  0.8508000000000001  0.58208  1.0000
  C   C249      1.0  0.8206800000000001  0.69476  0.25048  1.0000
  C   C250      1.0  0.96515  0.7253  0.31809  1.0000
  C   C251      1.0  0.8221000000000003  0.60639  0.09429999999999997  1.0000
  C   C252      1.0  0.82124  0.78118  0.57103  1.0000
  C   C253      1.0  0.9734100000000001  0.8680099999999998  0.57169  1.0000
  C   C254      1.0  0.82021  0.73788  0.5724399999999998  1.0000
  C   C255      1.0  0.02588  0.78639  0.52898  1.0000
  C   C256      1.0  0.03243000000000001  0.74808  0.3444299999999999  1.0000
  C   C257      1.0  0.9576700000000001  0.7692599999999999  0.5388699999999998  1.0000
  C   C258      1.0  0.10164  0.8537699999999999  0.52926  1.0000
  C   C259      1.0  0.10033  0.82288  0.40955  1.0000
  C   C260      1.0  0.9613800000000001  0.82393  0.38712  1.0000
  C   C261      1.0  0.89421  0.80092  0.36151  1.0000
  C   C262      1.0  0.03394000000000001  0.83599  0.5444799999999999  1.0000
  C   C263      1.0  0.8207400000000001  0.64335  0.56795  1.0000
  C   C264      1.0  0.82118  0.5973  0.56245  1.0000
  C   C265      1.0  0.2501  0.32485  0.74454  1.0000
  C   C266      1.0  0.24868000000000004  0.55889  0.57318  1.0000
  C   C267      1.0  0.2481  0.54877  0.5229099999999999  1.0000
  C   C268      1.0  0.24823000000000003  0.01461999999999999  0.56809  1.0000
  C   C269      1.0  0.24968  0.1712  0.64553  1.0000
  C   C270      1.0  0.24972000000000003  0.5702  0.66747  1.0000
  C   C271      1.0  0.25012  0.5708999999999999  0.8030399999999999  1.0000
  C   C272      1.0  0.25003  0.57271  0.71515  1.0000
  C   C273      1.0  0.24996999999999997  0.22457999999999995  0.6773499999999998  1.0000
  C   C274      1.0  0.24873000000000003  0.0678399999999999  0.5942299999999999  1.0000
  C   C275      1.0  0.24994  0.41955  0.67518  1.0000
  C   C276      1.0  0.25020000000000003  0.014249999999999973  0.44098999999999994  1.0000
  C   C277      1.0  0.25046  0.9742000000000001  0.45126  1.0000
  C   C278      1.0  0.25185  0.55352  0.98549  1.0000
  C   C279      1.0  0.25025  0.4742099999999999  0.8287999999999998  1.0000
  C   C280      1.0  0.25006  0.09731  0.42988  1.0000
  C   C281      1.0  0.25  0.23206999999999997  0.4291499999999999  1.0000
  C   C282      1.0  0.24998000000000004  0.14253  0.4275  1.0000
  C   C283      1.0  0.24999000000000002  0.45252999999999993  0.7753899999999999  1.0000
  C   C284      1.0  0.25133  0.52651  0.93227  1.0000
  C   C285      1.0  0.24985  0.2555799999999999  0.5803999999999999  1.0000
  C   C286      1.0  0.24904  0.42662  0.9856  1.0000
  C   C287      1.0  0.24829000000000004  0.47687  0.025699999999999994  1.0000
  C   C288      1.0  0.2519900000000001  0.43204  0.4463999999999999  1.0000
  C   C289      1.0  0.2506  0.3545700000000001  0.52556  1.0000
  C   C290      1.0  0.24977  0.33256999999999987  0.9026499999999997  1.0000
  C   C291      1.0  0.25004  0.19696  0.76793  1.0000
  C   C292      1.0  0.24995  0.2849299999999999  0.8575299999999999  1.0000
  C   C293      1.0  0.25020000000000003  0.32288  0.54735  1.0000
  C   C294      1.0  0.25176  0.40587999999999996  0.47344999999999987  1.0000
  C   C295      1.0  0.7501000000000002  0.67523  0.41954999999999987  1.0000
  C   C296      1.0  0.74883  0.4411  0.01433  1.0000
  C   C297      1.0  0.7482500000000001  0.4512399999999999  0.9741899999999999  1.0000
  C   C298      1.0  0.7493  0.9855299999999998  0.5535499999999998  1.0000
  C   C299      1.0  0.74999  0.82883  0.4742499999999999  1.0000
  C   C300      1.0  0.74978  0.42984  0.09739999999999999  1.0000
  C   C301      1.0  0.75008  0.42900999999999995  0.23207999999999995  1.0000
  C   C302      1.0  0.75005  0.42726  0.14252  1.0000
  C   C303      1.0  0.7500900000000003  0.77543  0.4525999999999999  1.0000
  C   C304      1.0  0.74971  0.93231  0.52649  1.0000
  C   C305      1.0  0.75013  0.58047  0.25554999999999994  1.0000
  C   C306      1.0  0.75019  0.98562  0.4266299999999999  1.0000
  C   C307      1.0  0.7503900000000002  0.025649999999999926  0.4769099999999999  1.0000
  C   C308      1.0  0.7481200000000002  0.44639  0.43198  1.0000
  C   C309      1.0  0.7496200000000002  0.52568  0.35454999999999987  1.0000
  C   C310      1.0  0.75017  0.90262  0.33259999999999995  1.0000
  C   C311      1.0  0.74995  0.76789  0.19699999999999998  1.0000
  C   C312      1.0  0.7500900000000003  0.8574899999999999  0.2849599999999999  1.0000
  C   C313      1.0  0.7499200000000003  0.54747  0.3228599999999999  1.0000
  C   C314      1.0  0.74864  0.4735199999999999  0.4058599999999999  1.0000
  C   C315      1.0  0.7499  0.7445  0.3248199999999999  1.0000
  C   C316      1.0  0.7505800000000001  0.57315  0.55896  1.0000
  C   C317      1.0  0.75116  0.5228499999999999  0.5487699999999999  1.0000
  C   C318      1.0  0.75187  0.56808  0.01461  1.0000
  C   C319      1.0  0.75047  0.64546  0.17113  1.0000
  C   C320      1.0  0.7501000000000002  0.6674  0.57016  1.0000
  C   C321      1.0  0.74996  0.8029699999999997  0.5708899999999998  1.0000
  C   C322      1.0  0.74999  0.71508  0.5726599999999998  1.0000
  C   C323      1.0  0.75007  0.67725  0.22453999999999993  1.0000
  C   C324      1.0  0.75168  0.59428  0.06779  1.0000
  O   O1        1.0  0.5953100000000002  0.4380599999999999  0.8691399999999998  1.0000
  O   O2        1.0  0.31392  0.54363  0.50111  1.0000
  O   O3        1.0  0.66215  0.40743999999999997  0.7986699999999999  1.0000
  O   O4        1.0  0.314  0.99152  0.55628  1.0000
  O   O5        1.0  0.6588  0.50706  0.8247599999999998  1.0000
  O   O6        1.0  0.59973  0.5373899999999998  0.8978299999999998  1.0000
  O   O7        1.0  0.59516  0.43173  0.56241  1.0000
  O   O8        1.0  0.31675  0.9579  0.4563799999999999  1.0000
  O   O9        1.0  0.66179  0.39112  0.59226  1.0000
  O   O10       1.0  0.31797  0.56458  0.008179999999999998  1.0000
  O   O11       1.0  0.65881  0.31725999999999993  0.4929999999999999  1.0000
  O   O12       1.0  0.5997  0.36051  0.4631899999999999  1.0000
  O   O13       1.0  0.59517  0.13055999999999995  0.5682899999999997  1.0000
  O   O14       1.0  0.3140700000000001  0.49869  0.04226  1.0000
  O   O15       1.0  0.66186  0.20092  0.60884  1.0000
  O   O16       1.0  0.31797  0.44364  0.43514999999999987  1.0000
  O   O17       1.0  0.65917  0.17525000000000004  0.6827  1.0000
  O   O18       1.0  0.5996700000000003  0.10240999999999989  0.6394699999999998  1.0000
  O   O19       1.0  0.90479  0.4373899999999999  0.8695799999999998  1.0000
  O   O20       1.0  0.18186  0.54373  0.50157  1.0000
  O   O21       1.0  0.8379500000000002  0.40769  0.79924  1.0000
  O   O22       1.0  0.18214000000000005  0.99191  0.55638  1.0000
  O   O23       1.0  0.84123  0.5067599999999998  0.8240999999999998  1.0000
  O   O24       1.0  0.90024  0.53648  0.8971399999999999  1.0000
  O   O25       1.0  0.9045300000000002  0.43108  0.56209  1.0000
  O   O26       1.0  0.18444  0.95767  0.45634999999999987  1.0000
  O   O27       1.0  0.83804  0.3907599999999999  0.5923899999999998  1.0000
  O   O28       1.0  0.18611  0.56467  0.00859  1.0000
  O   O29       1.0  0.84122  0.31753  0.49288  1.0000
  O   O30       1.0  0.90032  0.36048  0.4627399999999999  1.0000
  O   O31       1.0  0.9047100000000002  0.13091000000000005  0.56876  1.0000
  O   O32       1.0  0.18196000000000007  0.49812  0.04192999999999999  1.0000
  O   O33       1.0  0.8382000000000002  0.20142  0.60923  1.0000
  O   O34       1.0  0.18611  0.44397  0.4353399999999999  1.0000
  O   O35       1.0  0.84084  0.17514999999999994  0.6826199999999999  1.0000
  O   O36       1.0  0.90031  0.1022899999999999  0.6394499999999997  1.0000
  O   O37       1.0  0.40472  0.5630500000000003  0.43249999999999994  1.0000
  O   O38       1.0  0.68199  0.45625999999999994  0.9578699999999999  1.0000
  O   O39       1.0  0.33798  0.59262  0.3916399999999999  1.0000
  O   O40       1.0  0.68309  0.00820999999999987  0.5646699999999998  1.0000
  O   O41       1.0  0.34133  0.49377999999999994  0.31688999999999995  1.0000
  O   O42       1.0  0.4003  0.4645  0.36066999999999994  1.0000
  O   O43       1.0  0.40479  0.56766  0.13028999999999993  1.0000
  O   O44       1.0  0.68426  0.04198000000000001  0.49847  1.0000
  O   O45       1.0  0.33799  0.60844  0.20058999999999994  1.0000
  O   O46       1.0  0.68202  0.43538999999999994  0.4436599999999999  1.0000
  O   O47       1.0  0.34109  0.68277  0.17590999999999996  1.0000
  O   O48       1.0  0.40033  0.63941  0.10299  1.0000
  O   O49       1.0  0.40472  0.8693399999999999  0.4379299999999999  1.0000
  O   O50       1.0  0.6853800000000002  0.5010399999999999  0.5436199999999998  1.0000
  O   O51       1.0  0.33803000000000005  0.79893  0.40789  1.0000
  O   O52       1.0  0.68596  0.5562099999999998  0.9916399999999997  1.0000
  O   O53       1.0  0.34095  0.82483  0.50747  1.0000
  O   O54       1.0  0.4003200000000001  0.89776  0.5372699999999999  1.0000
  O   O55       1.0  0.09542  0.56217  0.43112  1.0000
  O   O56       1.0  0.8140300000000003  0.4563499999999999  0.9574699999999998  1.0000
  O   O57       1.0  0.16172  0.59274  0.39094  1.0000
  O   O58       1.0  0.8151000000000003  0.008559999999999996  0.56469  1.0000
  O   O59       1.0  0.15881  0.49323  0.31748  1.0000
  O   O60       1.0  0.0998  0.46299999999999997  0.3603899999999999  1.0000
  O   O61       1.0  0.09534000000000002  0.5688800000000002  0.13092  1.0000
  O   O62       1.0  0.81668  0.042009999999999964  0.4982799999999999  1.0000
  O   O63       1.0  0.16167000000000006  0.6092  0.20154  1.0000
  O   O64       1.0  0.8139  0.43508  0.44374999999999987  1.0000
  O   O65       1.0  0.15913000000000005  0.6825100000000001  0.1751  1.0000
  O   O66       1.0  0.09965  0.63952  0.10221999999999999  1.0000
  O   O67       1.0  0.09519000000000002  0.86918  0.43781  1.0000
  O   O68       1.0  0.81749  0.5015499999999998  0.54372  1.0000
  O   O69       1.0  0.16199  0.7987899999999999  0.40772999999999987  1.0000
  O   O70       1.0  0.81782  0.55633  0.9917499999999998  1.0000
  O   O71       1.0  0.15899  0.8247  0.5072599999999999  1.0000
  O   O72       1.0  0.09968  0.8976199999999999  0.5371299999999999  1.0000
  O   O73       1.0  0.74995  0.48569999999999997  0.8902199999999999  1.0000
  O   O74       1.0  0.74999  0.40433999999999987  0.5144199999999999  1.0000
  O   O75       1.0  0.7499800000000002  0.10983  0.5956099999999999  1.0000
  O   O76       1.0  0.25  0.51451  0.40424  1.0000
  O   O77       1.0  0.25002  0.59568  0.10982999999999997  1.0000
  O   O78       1.0  0.24995  0.89025  0.4857599999999999  1.0000
