data_image0
_chemical_formula_structural       Zn24H216C264N120O48
_chemical_formula_sum              "Zn24 H216 C264 N120 O48"
_cell_length_a       20.04239
_cell_length_b       26.098040000000005
_cell_length_c       26.098029999999998
_cell_angle_alpha    120.02748999999999
_cell_angle_beta     89.92396
_cell_angle_gamma    89.93112

_symmetry_space_group_name_H-M    'P 1'
_symmetry_Int_Tables_number       1

loop_
  _symmetry_equiv_pos_as_xyz
  'x,y,z'

loop_
  _atom_site_type_symbol
  _atom_site_label
  _atom_site_symmetry_multiplicity
  _atom_site_fract_x
  _atom_site_fract_y
  _atom_site_fract_z
  _atom_site_occupancy
  Zn  Zn1       1.0  0.40199  0.56765  0.66773  1.0000
  Zn  Zn2       1.0  0.40197  0.10062000000000003  0.43306  1.0000
  Zn  Zn3       1.0  0.40272  0.33270000000000005  0.9008800000000001  1.0000
  Zn  Zn4       1.0  0.90109  0.43274  0.33236  1.0000
  Zn  Zn5       1.0  0.90089  0.89916  0.56678  1.0000
  Zn  Zn6       1.0  0.90104  0.66761  0.10055  1.0000
  Zn  Zn7       1.0  0.59803  0.89924  0.33079  1.0000
  Zn  Zn8       1.0  0.59802  0.66905  0.56827  1.0000
  Zn  Zn9       1.0  0.59815  0.43187999999999993  0.10086  1.0000
  Zn  Zn10      1.0  0.09695  0.09932999999999995  0.66766  1.0000
  Zn  Zn11      1.0  0.09890999999999998  0.3307999999999999  0.43151  1.0000
  Zn  Zn12      1.0  0.09895  0.5682200000000001  0.8993500000000001  1.0000
  Zn  Zn13      1.0  0.59745  0.43251  0.33286  1.0000
  Zn  Zn14      1.0  0.5974  0.90047  0.56745  1.0000
  Zn  Zn15      1.0  0.59747  0.6669600000000001  0.09986000000000002  1.0000
  Zn  Zn16      1.0  0.09737  0.56721  0.66705  1.0000
  Zn  Zn17      1.0  0.0977  0.09945  0.43216  1.0000
  Zn  Zn18      1.0  0.09909  0.3324  0.89908  1.0000
  Zn  Zn19      1.0  0.4017299999999999  0.10089  0.66866  1.0000
  Zn  Zn20      1.0  0.4025  0.33224  0.4321  1.0000
  Zn  Zn21      1.0  0.40264999999999995  0.56818  0.9003700000000001  1.0000
  Zn  Zn22      1.0  0.90225  0.9000800000000001  0.33221  1.0000
  Zn  Zn23      1.0  0.9016199999999999  0.66781  0.56777  1.0000
  Zn  Zn24      1.0  0.9023099999999998  0.43191999999999997  0.0996  1.0000
  H   H1        1.0  0.40724999999999995  0.69988  0.77778  1.0000
  H   H2        1.0  0.55644  0.56319  0.68223  1.0000
  H   H3        1.0  0.71341  0.5145  0.7090999999999998  1.0000
  H   H4        1.0  0.71509  0.5917999999999999  0.7373299999999999  1.0000
  H   H5        1.0  0.67428  0.5448299999999998  0.66927  1.0000
  H   H6        1.0  0.47367999999999993  0.45376999999999995  0.6532  1.0000
  H   H7        1.0  0.31919  0.67628  0.6733  1.0000
  H   H8        1.0  0.40856  0.07943000000000003  0.30088  1.0000
  H   H9        1.0  0.55651  0.1192  0.43684  1.0000
  H   H10       1.0  0.71321  0.19507  0.48542  1.0000
  H   H11       1.0  0.71518  0.14591000000000004  0.40813  1.0000
  H   H12       1.0  0.67437  0.12482999999999995  0.45519  1.0000
  H   H13       1.0  0.47373999999999994  0.19944  0.54637  1.0000
  H   H14       1.0  0.31965  0.99686  0.32356  1.0000
  H   H15       1.0  0.40780999999999995  0.22251  0.92265  1.0000
  H   H16       1.0  0.56621  0.31212  0.8756  1.0000
  H   H17       1.0  0.47365  0.34677  0.80066  1.0000
  H   H18       1.0  0.31975  0.32669  0.00315  1.0000
  H   H19       1.0  0.9080500000000001  0.30086  0.22185  1.0000
  H   H20       1.0  0.05618000000000001  0.43681000000000003  0.31756  1.0000
  H   H21       1.0  0.21308999999999997  0.48538999999999993  0.29026  1.0000
  H   H22       1.0  0.21499  0.40812  0.26209  1.0000
  H   H23       1.0  0.17414  0.45519  0.33029  1.0000
  H   H24       1.0  0.97378  0.54616  0.34675  1.0000
  H   H25       1.0  0.8197199999999999  0.32382  0.32655  1.0000
  H   H26       1.0  0.9063000000000001  0.9222600000000001  0.69995  1.0000
  H   H27       1.0  0.0562  0.88074  0.56314  1.0000
  H   H28       1.0  0.21322  0.80484  0.51455  1.0000
  H   H29       1.0  0.21491000000000002  0.85396  0.59183  1.0000
  H   H30       1.0  0.17419  0.87513  0.54485  1.0000
  H   H31       1.0  0.9738  0.80053  0.45364  1.0000
  H   H32       1.0  0.8194600000000001  0.002540000000000046  0.67607  1.0000
  H   H33       1.0  0.90745  0.77815  0.07929  1.0000
  H   H34       1.0  0.056470000000000006  0.6821099999999999  0.11895  1.0000
  H   H35       1.0  0.21326  0.70914  0.19458000000000003  1.0000
  H   H36       1.0  0.21512  0.7373  0.14548  1.0000
  H   H37       1.0  0.17432  0.6692199999999999  0.12439  1.0000
  H   H38       1.0  0.97368  0.65311  0.19931  1.0000
  H   H39       1.0  0.81962  0.6734199999999999  0.99727  1.0000
  H   H40       1.0  0.58912  0.92405  0.21843  1.0000
  H   H41       1.0  0.4436800000000001  0.88075  0.31755  1.0000
  H   H42       1.0  0.28669  0.80543  0.2909  1.0000
  H   H43       1.0  0.28488  0.85453  0.26272  1.0000
  H   H44       1.0  0.3257900000000001  0.8755699999999998  0.33073  1.0000
  H   H45       1.0  0.52633  0.80072  0.34648  1.0000
  H   H46       1.0  0.68053  0.003049999999999986  0.32662  1.0000
  H   H47       1.0  0.59001  0.78059  0.70543  1.0000
  H   H48       1.0  0.4439  0.6827  0.56323  1.0000
  H   H49       1.0  0.28688  0.7097  0.51459  1.0000
  H   H50       1.0  0.28498  0.73788  0.59187  1.0000
  H   H51       1.0  0.32592  0.6697300000000002  0.5448  1.0000
  H   H52       1.0  0.52619  0.65365  0.45413  1.0000
  H   H53       1.0  0.68032  0.67336  0.67644  1.0000
  H   H54       1.0  0.58986  0.29489  0.07608  1.0000
  H   H55       1.0  0.44392000000000004  0.4368  0.11946000000000001  1.0000
  H   H56       1.0  0.28675  0.48546  0.19514  1.0000
  H   H57       1.0  0.28508  0.40817999999999993  0.14603  1.0000
  H   H58       1.0  0.32589  0.45515000000000005  0.12490000000000001  1.0000
  H   H59       1.0  0.52607  0.5460600000000001  0.19966000000000003  1.0000
  H   H60       1.0  0.68061  0.3236399999999999  0.99714  1.0000
  H   H61       1.0  0.08975  0.07448999999999997  0.78008  1.0000
  H   H62       1.0  0.9342  0.12462000000000004  0.68813  1.0000
  H   H63       1.0  0.026150000000000003  0.19927999999999998  0.65333  1.0000
  H   H64       1.0  0.18007  0.9972099999999999  0.67336  1.0000
  H   H65       1.0  0.08898  0.21847  0.29415  1.0000
  H   H66       1.0  0.94379  0.31744  0.43681  1.0000
  H   H67       1.0  0.7867499999999998  0.29039  0.48545  1.0000
  H   H68       1.0  0.78508  0.26218  0.40817  1.0000
  H   H69       1.0  0.8257299999999999  0.33034  0.45517  1.0000
  H   H70       1.0  0.02618  0.34641  0.54576  1.0000
  H   H71       1.0  0.18053999999999998  0.3265  0.32384  1.0000
  H   H72       1.0  0.08943  0.70623  0.92514  1.0000
  H   H73       1.0  0.94382  0.56315  0.8808  1.0000
  H   H74       1.0  0.7869  0.51457  0.80537  1.0000
  H   H75       1.0  0.78495  0.59185  0.85448  1.0000
  H   H76       1.0  0.82592  0.54484  0.87552  1.0000
  H   H77       1.0  0.02612  0.45409999999999995  0.8006299999999998  1.0000
  H   H78       1.0  0.18036  0.6763099999999999  0.00291  1.0000
  H   H79       1.0  0.59218  0.30051  0.22163  1.0000
  H   H80       1.0  0.43372999999999995  0.43656000000000006  0.31238  1.0000
  H   H81       1.0  0.52643  0.54625  0.34714  1.0000
  H   H82       1.0  0.68022  0.32355  0.32658  1.0000
  H   H83       1.0  0.5935  0.9226799999999998  0.69961  1.0000
  H   H84       1.0  0.43372  0.87582  0.56341  1.0000
  H   H85       1.0  0.52654  0.80093  0.45366000000000006  1.0000
  H   H86       1.0  0.68  0.003340000000000001  0.6766  1.0000
  H   H87       1.0  0.59257  0.77803  0.07899  1.0000
  H   H88       1.0  0.43374  0.68778  0.12438  1.0000
  H   H89       1.0  0.52617  0.6531  0.19944999999999996  1.0000
  H   H90       1.0  0.68013  0.67339  0.99701  1.0000
  H   H91       1.0  0.0927  0.69968  0.77742  1.0000
  H   H92       1.0  0.93386  0.56342  0.68794  1.0000
  H   H93       1.0  0.026220000000000004  0.45365  0.65278  1.0000
  H   H94       1.0  0.17977  0.67616  0.67344  1.0000
  H   H95       1.0  0.0913  0.07918  0.30066  1.0000
  H   H96       1.0  0.9340899999999999  0.12428000000000004  0.43653000000000003  1.0000
  H   H97       1.0  0.026279999999999998  0.19917  0.54617  1.0000
  H   H98       1.0  0.18026  0.9973099999999999  0.3238  1.0000
  H   H99       1.0  0.09282  0.2216599999999999  0.92187  1.0000
  H   H100      1.0  0.9435499999999999  0.31789  0.88099  1.0000
  H   H101      1.0  0.78673  0.29086000000000006  0.80542  1.0000
  H   H102      1.0  0.7848899999999999  0.26269  0.85451  1.0000
  H   H103      1.0  0.82569  0.3307700000000001  0.8756100000000001  1.0000
  H   H104      1.0  0.026239999999999992  0.34713000000000005  0.8007900000000001  1.0000
  H   H105      1.0  0.18024  0.32651  0.00262  1.0000
  H   H106      1.0  0.40952999999999995  0.07506000000000008  0.7810800000000001  1.0000
  H   H107      1.0  0.55633  0.11923000000000004  0.68236  1.0000
  H   H108      1.0  0.71331  0.19456000000000004  0.7090999999999998  1.0000
  H   H109      1.0  0.71512  0.14547  0.73729  1.0000
  H   H110      1.0  0.67423  0.12442000000000007  0.66926  1.0000
  H   H111      1.0  0.47379  0.19941999999999996  0.65347  1.0000
  H   H112      1.0  0.3195  0.99708  0.67341  1.0000
  H   H113      1.0  0.41085  0.21876  0.29427  1.0000
  H   H114      1.0  0.56573  0.31206  0.4365  1.0000
  H   H115      1.0  0.47373999999999994  0.34663  0.54588  1.0000
  H   H116      1.0  0.32007  0.32671  0.32355  1.0000
  H   H117      1.0  0.41058999999999996  0.70658  0.92546  1.0000
  H   H118      1.0  0.56604  0.56343  0.87536  1.0000
  H   H119      1.0  0.47373  0.45396  0.80072  1.0000
  H   H120      1.0  0.31985  0.67645  0.00308  1.0000
  H   H121      1.0  0.9109899999999999  0.9242  0.21856  1.0000
  H   H122      1.0  0.06576  0.87532  0.31188  1.0000
  H   H123      1.0  0.9740699999999999  0.80072  0.34663  1.0000
  H   H124      1.0  0.81999  0.002679999999999989  0.32658  1.0000
  H   H125      1.0  0.90984  0.78094  0.70571  1.0000
  H   H126      1.0  0.06584  0.68788  0.56348  1.0000
  H   H127      1.0  0.9738199999999999  0.65316  0.45411  1.0000
  H   H128      1.0  0.8198100000000001  0.67344  0.67614  1.0000
  H   H129      1.0  0.91056  0.29533  0.07576  1.0000
  H   H130      1.0  0.06587  0.43651999999999996  0.12439  1.0000
  H   H131      1.0  0.9738  0.54589  0.1991  1.0000
  H   H132      1.0  0.8200599999999999  0.32366999999999996  0.99701  1.0000
  H   H133      1.0  0.50108  0.57491  0.57395  1.0000
  H   H134      1.0  0.5011  0.99905  0.42477  1.0000
  H   H135      1.0  0.5016300000000001  0.42608  0.00129  1.0000
  H   H136      1.0  0.0011699999999999996  0.42491  0.42594000000000004  1.0000
  H   H137      1.0  0.0003599999999999999  0.0002800000000000217  0.57448  1.0000
  H   H138      1.0  0.0012500000000000005  0.57399  0.99883  1.0000
  H   H139      1.0  0.49888  0.42484999999999995  0.42588  1.0000
  H   H140      1.0  0.49843000000000004  0.0013599999999999984  0.57511  1.0000
  H   H141      1.0  0.49899  0.57419  0.99895  1.0000
  H   H142      1.0  0.99885  0.57489  0.57399  1.0000
  H   H143      1.0  0.9988899999999998  0.99906  0.42474  1.0000
  H   H144      1.0  0.9994999999999999  0.42565  0.00021000000000000004  1.0000
  H   H145      1.0  0.34456999999999993  0.56987  0.78694  1.0000
  H   H146      1.0  0.34445  0.21700999999999998  0.43019  1.0000
  H   H147      1.0  0.34464  0.21763999999999992  0.7875  1.0000
  H   H148      1.0  0.84433  0.43031  0.21314000000000002  1.0000
  H   H149      1.0  0.8442799999999999  0.78284  0.56963  1.0000
  H   H150      1.0  0.8444200000000001  0.78688  0.21726  1.0000
  H   H151      1.0  0.65533  0.7822899999999999  0.21244999999999997  1.0000
  H   H152      1.0  0.65543  0.7874299999999999  0.56989  1.0000
  H   H153      1.0  0.65548  0.43017  0.21753000000000003  1.0000
  H   H154      1.0  0.15557  0.21297999999999992  0.78263  1.0000
  H   H155      1.0  0.15564  0.21257000000000004  0.4302500000000001  1.0000
  H   H156      1.0  0.1555  0.5696600000000002  0.7822700000000001  1.0000
  H   H157      1.0  0.90741  0.20997  0.12795  1.0000
  H   H158      1.0  0.9209999999999999  0.14676  0.13545  1.0000
  H   H159      1.0  0.98481  0.17172999999999997  0.10630999999999999  1.0000
  H   H160      1.0  0.8311199999999999  0.18094  0.44493  1.0000
  H   H161      1.0  0.83099  0.55505  0.73629  1.0000
  H   H162      1.0  0.66878  0.26398  0.44496  1.0000
  H   H163      1.0  0.66903  0.55503  0.8187300000000001  1.0000
  H   H164      1.0  0.45672000000000007  0.80864  0.96934  1.0000
  H   H165      1.0  0.33089  0.44496  0.2641  1.0000
  H   H166      1.0  0.33091  0.81915  0.55504  1.0000
  H   H167      1.0  0.16881  0.73593  0.55506  1.0000
  H   H168      1.0  0.16881  0.44495  0.18086  1.0000
  H   H169      1.0  0.66911  0.2637399999999999  0.8187600000000002  1.0000
  H   H170      1.0  0.83116  0.18125000000000005  0.7363  1.0000
  H   H171      1.0  0.54251  0.96664  0.15939  1.0000
  H   H172      1.0  0.54366  0.83952  0.8073400000000001  1.0000
  H   H173      1.0  0.54224  0.19369  0.03463  1.0000
  H   H174      1.0  0.04316  0.031810000000000095  0.8391900000000001  1.0000
  H   H175      1.0  0.04189  0.15939999999999996  0.19263  1.0000
  H   H176      1.0  0.04336  0.8084500000000001  0.9692900000000001  1.0000
  H   H177      1.0  0.33084  0.73625  0.18122000000000002  1.0000
  H   H178      1.0  0.45665999999999995  0.031950000000000006  0.83964  1.0000
  H   H179      1.0  0.45821  0.15949  0.19268000000000002  1.0000
  H   H180      1.0  0.95758  0.96674  0.15946  1.0000
  H   H181      1.0  0.16882  0.8187500000000001  0.26369  1.0000
  H   H182      1.0  0.9561899999999999  0.83974  0.8074800000000001  1.0000
  H   H183      1.0  0.9579299999999998  0.19398000000000004  0.03457  1.0000
  H   H184      1.0  0.9844799999999999  0.89367  0.06281  1.0000
  H   H185      1.0  0.90972  0.87364  0.08499  1.0000
  H   H186      1.0  0.91714  0.86344  0.01262  1.0000
  H   H187      1.0  0.94672  0.98708  0.8600999999999999  1.0000
  H   H188      1.0  0.97507  0.91517  0.80756  1.0000
  H   H189      1.0  0.8931200000000001  0.93772  0.80214  1.0000
  H   H190      1.0  0.46725000000000005  0.85679  0.88232  1.0000
  H   H191      1.0  0.45321  0.7923000000000002  0.8873400000000001  1.0000
  H   H192      1.0  0.38996  0.81901  0.85928  1.0000
  H   H193      1.0  0.5901  0.8735  0.08485  1.0000
  H   H194      1.0  0.5154  0.8937700000000001  0.06286  1.0000
  H   H195      1.0  0.58287  0.8634000000000001  0.012530000000000001  1.0000
  H   H196      1.0  0.046709999999999995  0.79223  0.88719  1.0000
  H   H197      1.0  0.03261  0.85678  0.8822599999999999  1.0000
  H   H198      1.0  0.10992999999999999  0.8188  0.85898  1.0000
  H   H199      1.0  0.42528  0.09268  0.21384  1.0000
  H   H200      1.0  0.40207  0.019620000000000016  0.16012  1.0000
  H   H201      1.0  0.48167  0.04693999999999998  0.15628  1.0000
  H   H202      1.0  0.09802  0.019540000000000002  0.15999  1.0000
  H   H203      1.0  0.07458  0.09262  0.21379  1.0000
  H   H204      1.0  0.01837  0.047010000000000024  0.15629  1.0000
  H   H205      1.0  0.52498  0.9152400000000003  0.8074400000000002  1.0000
  H   H206      1.0  0.55318  0.98705  0.8599600000000001  1.0000
  H   H207      1.0  0.6069  0.93765  0.8018500000000001  1.0000
  H   H208      1.0  0.3898499999999999  0.14040000000000002  0.95635  1.0000
  H   H209      1.0  0.46436  0.11950999999999996  0.97786  1.0000
  H   H210      1.0  0.45816  0.11211000000000003  0.9066400000000001  1.0000
  H   H211      1.0  0.57914  0.14656  0.13522  1.0000
  H   H212      1.0  0.59266  0.20978000000000002  0.12771  1.0000
  H   H213      1.0  0.5153  0.17171  0.10627  1.0000
  H   H214      1.0  0.03597  0.1193100000000001  0.9776700000000002  1.0000
  H   H215      1.0  0.11053  0.14003000000000002  0.956  1.0000
  H   H216      1.0  0.04233  0.11179999999999995  0.90639  1.0000
  C   C1        1.0  0.47355  0.68366  0.70545  1.0000
  C   C2        1.0  0.44645999999999997  0.7175700000000003  0.7621600000000001  1.0000
  C   C3        1.0  0.47183  0.77445  0.79851  1.0000
  C   C4        1.0  0.44411999999999996  0.8128099999999999  0.86008  1.0000
  C   C5        1.0  0.50029  0.56724  0.75538  1.0000
  C   C6        1.0  0.5586  0.56318  0.7238900000000001  1.0000
  C   C7        1.0  0.61955  0.55837  0.747  1.0000
  C   C8        1.0  0.68372  0.55211  0.71385  1.0000
  C   C9        1.0  0.45543  0.44329999999999997  0.60999  1.0000
  C   C10       1.0  0.28439  0.64506  0.67432  1.0000
  C   C11       1.0  0.47365  0.022080000000000002  0.31633  1.0000
  C   C12       1.0  0.44712999999999997  0.04546999999999999  0.28275  1.0000
  C   C13       1.0  0.47218999999999994  0.024699999999999982  0.22568999999999997  1.0000
  C   C14       1.0  0.44392000000000004  0.04722  0.18698  1.0000
  C   C15       1.0  0.50023  0.18828  0.43287  1.0000
  C   C16       1.0  0.55857  0.16089000000000003  0.43689  1.0000
  C   C17       1.0  0.61945  0.18887000000000004  0.44165  1.0000
  C   C18       1.0  0.68369  0.16211  0.44787  1.0000
  C   C19       1.0  0.45545  0.16675  0.55691  1.0000
  C   C20       1.0  0.2848  0.02914999999999994  0.3548899999999999  1.0000
  C   C21       1.0  0.47403  0.2947400000000001  0.97872  1.0000
  C   C22       1.0  0.44684  0.23817  0.95608  1.0000
  C   C23       1.0  0.47181  0.202  0.9770300000000001  1.0000
  C   C24       1.0  0.44454999999999995  0.14033  0.95347  1.0000
  C   C25       1.0  0.50224  0.24289000000000008  0.81001  1.0000
  C   C26       1.0  0.56346  0.27050000000000013  0.83389  1.0000
  C   C27       1.0  0.62098  0.24283999999999994  0.8017  1.0000
  C   C28       1.0  0.45543999999999996  0.39007000000000003  0.8334600000000001  1.0000
  C   C29       1.0  0.28504  0.32564  0.97084  1.0000
  C   C30       1.0  0.9737400000000002  0.31653  0.29438  1.0000
  C   C31       1.0  0.94687  0.28283  0.23748000000000002  1.0000
  C   C32       1.0  0.9717900000000002  0.22577999999999998  0.20114  1.0000
  C   C33       1.0  0.94469  0.18665  0.13955  1.0000
  C   C34       1.0  1.731054505951443e-19  0.43285999999999997  0.24455  1.0000
  C   C35       1.0  0.058320000000000004  0.43687999999999994  0.27592  1.0000
  C   C36       1.0  0.11927999999999998  0.44165  0.2527  1.0000
  C   C37       1.0  0.18348999999999996  0.4478599999999999  0.28565  1.0000
  C   C38       1.0  0.9552399999999999  0.55665  0.38995  1.0000
  C   C39       1.0  0.78455  0.35494  0.32565  1.0000
  C   C40       1.0  0.9731499999999998  0.9775599999999999  0.68319  1.0000
  C   C41       1.0  0.94584  0.95518  0.7174  1.0000
  C   C42       1.0  0.9712999999999999  0.9758  0.7741900000000002  1.0000
  C   C43       1.0  0.94492  0.95288  0.81311  1.0000
  C   C44       1.0  0.99997  0.8116500000000001  0.56706  1.0000
  C   C45       1.0  0.05829999999999999  0.8390399999999999  0.56309  1.0000
  C   C46       1.0  0.11928999999999998  0.81107  0.55837  1.0000
  C   C47       1.0  0.18352  0.83781  0.55215  1.0000
  C   C48       1.0  0.9553  0.8332400000000001  0.44316000000000005  1.0000
  C   C49       1.0  0.78433  0.97061  0.645  1.0000
  C   C50       1.0  0.9734  0.70563  0.02229  1.0000
  C   C51       1.0  0.94649  0.76263  0.04576  1.0000
  C   C52       1.0  0.97182  0.79922  0.02561  1.0000
  C   C53       1.0  0.94426  0.8607  0.04782000000000001  1.0000
  C   C54       1.0  0.00014999999999999982  0.75521  0.18810999999999997  1.0000
  C   C55       1.0  0.05854  0.72377  0.16067  1.0000
  C   C56       1.0  0.11945  0.74693  0.18858  1.0000
  C   C57       1.0  0.18368  0.71383  0.1617  1.0000
  C   C58       1.0  0.95514  0.60996  0.16668  1.0000
  C   C59       1.0  0.78448  0.67434  0.02932  1.0000
  C   C60       1.0  0.52479  0.97856  0.29367  1.0000
  C   C61       1.0  0.55017  0.9576299999999999  0.23654  1.0000
  C   C62       1.0  0.52344  0.98146  0.20368  1.0000
  C   C63       1.0  0.49963  0.81148  0.24423  1.0000
  C   C64       1.0  0.44141  0.83906  0.27588  1.0000
  C   C65       1.0  0.38043  0.81125  0.2529  1.0000
  C   C66       1.0  0.31631  0.83826  0.28614  1.0000
  C   C67       1.0  0.54467  0.8335299999999999  0.38961999999999997  1.0000
  C   C68       1.0  0.71539  0.97077  0.32558  1.0000
  C   C69       1.0  0.52509  0.7058799999999998  0.68458  1.0000
  C   C70       1.0  0.55084  0.76268  0.7208  1.0000
  C   C71       1.0  0.52391  0.79568  0.7775300000000002  1.0000
  C   C72       1.0  0.49977  0.75593  0.56728  1.0000
  C   C73       1.0  0.44162  0.72436  0.5632  1.0000
  C   C74       1.0  0.3806  0.7474299999999999  0.55836  1.0000
  C   C75       1.0  0.31648  0.71435  0.55213  1.0000
  C   C76       1.0  0.54455  0.61046  0.44378  1.0000
  C   C77       1.0  0.71518  0.67439  0.64521  1.0000
  C   C78       1.0  0.52554  0.31548  0.02172  1.0000
  C   C79       1.0  0.5508  0.27945  0.04275  1.0000
  C   C80       1.0  0.52346  0.22304  0.01961  1.0000
  C   C81       1.0  0.49982000000000004  0.43279000000000006  0.18865  1.0000
  C   C82       1.0  0.4416399999999999  0.43683  0.16115  1.0000
  C   C83       1.0  0.3806  0.44162  0.18905  1.0000
  C   C84       1.0  0.31647  0.4478599999999999  0.16222  1.0000
  C   C85       1.0  0.54445  0.55639  0.16685  1.0000
  C   C86       1.0  0.71547  0.35485  0.02929  1.0000
  C   C87       1.0  0.02478  0.02045000000000001  0.70529  1.0000
  C   C88       1.0  0.05064  0.04119000000000004  0.7621600000000001  1.0000
  C   C89       1.0  0.023630000000000005  0.017760000000000064  0.79525  1.0000
  C   C90       1.0  0.9979999999999999  0.19037  0.7574500000000001  1.0000
  C   C91       1.0  0.93685  0.16635  0.72975  1.0000
  C   C92       1.0  0.87923  0.1984200000000001  0.7572800000000001  1.0000
  C   C93       1.0  0.04459  0.1665  0.6101  1.0000
  C   C94       1.0  0.21498  0.029369999999999983  0.67434  1.0000
  C   C95       1.0  0.024889999999999995  0.29389  0.31511  1.0000
  C   C96       1.0  0.050120000000000005  0.23665  0.27876  1.0000
  C   C97       1.0  0.02319  0.20382  0.22223  1.0000
  C   C98       1.0  0.99993  0.24424  0.43278  1.0000
  C   C99       1.0  0.9416400000000001  0.27578  0.43683  1.0000
  C   C100      1.0  0.8806699999999998  0.25267  0.44163  1.0000
  C   C101      1.0  0.81643  0.28573  0.44787  1.0000
  C   C102      1.0  0.04475  0.38949  0.5561  1.0000
  C   C103      1.0  0.21566999999999997  0.32553  0.35486999999999996  1.0000
  C   C104      1.0  0.024689999999999997  0.68489  0.9789100000000001  1.0000
  C   C105      1.0  0.05037  0.72149  0.95861  1.0000
  C   C106      1.0  0.02375  0.77828  0.98296  1.0000
  C   C107      1.0  0.99986  0.56714  0.81158  1.0000
  C   C108      1.0  0.94161  0.56311  0.8391200000000001  1.0000
  C   C109      1.0  0.88062  0.55834  0.81129  1.0000
  C   C110      1.0  0.81647  0.55213  0.8382300000000001  1.0000
  C   C111      1.0  0.04476  0.44373  0.83333  1.0000
  C   C112      1.0  0.21552  0.6451899999999999  0.9707899999999999  1.0000
  C   C113      1.0  0.52635  0.31629  0.29423  1.0000
  C   C114      1.0  0.55329  0.28256999999999993  0.23727  1.0000
  C   C115      1.0  0.52828  0.22567  0.201  1.0000
  C   C116      1.0  0.55541  0.1865  0.13935  1.0000
  C   C117      1.0  0.49782  0.4329699999999999  0.24308  1.0000
  C   C118      1.0  0.43653  0.43665  0.27076  1.0000
  C   C119      1.0  0.37907  0.44113  0.24317  1.0000
  C   C120      1.0  0.54461  0.5569400000000002  0.39043  1.0000
  C   C121      1.0  0.71496  0.35482  0.3256  1.0000
  C   C122      1.0  0.52626  0.9784299999999999  0.68358  1.0000
  C   C123      1.0  0.55388  0.9556900000000003  0.7173800000000001  1.0000
  C   C124      1.0  0.52855  0.97606  0.77425  1.0000
  C   C125      1.0  0.55506  0.95291  0.81294  1.0000
  C   C126      1.0  0.49778  0.81015  0.56704  1.0000
  C   C127      1.0  0.43652  0.8341200000000001  0.56333  1.0000
  C   C128      1.0  0.37907  0.80204  0.55886  1.0000
  C   C129      1.0  0.54474  0.8336100000000001  0.44307  1.0000
  C   C130      1.0  0.71473  0.97093  0.64524  1.0000
  C   C131      1.0  0.52665  0.70572  0.022189999999999998  1.0000
  C   C132      1.0  0.55354  0.76262  0.0456  1.0000
  C   C133      1.0  0.52816  0.79928  0.02554  1.0000
  C   C134      1.0  0.55566  0.86068  0.047749999999999994  1.0000
  C   C135      1.0  0.49772  0.7570000000000001  0.18998  1.0000
  C   C136      1.0  0.43650000000000005  0.72941  0.16609  1.0000
  C   C137      1.0  0.37898  0.75712  0.19826  1.0000
  C   C138      1.0  0.54444  0.60976  0.16678  1.0000
  C   C139      1.0  0.71488  0.67438  0.02926  1.0000
  C   C140      1.0  0.026330000000000003  0.68366  0.70533  1.0000
  C   C141      1.0  0.05347  0.7174900000000001  0.76193  1.0000
  C   C142      1.0  0.028079999999999994  0.77447  0.7984  1.0000
  C   C143      1.0  0.05577  0.81272  0.8599  1.0000
  C   C144      1.0  0.9978700000000001  0.5669800000000002  0.7571400000000001  1.0000
  C   C145      1.0  0.9366199999999999  0.56333  0.7295500000000001  1.0000
  C   C146      1.0  0.87912  0.55886  0.75719  1.0000
  C   C147      1.0  0.04468  0.44297000000000003  0.60949  1.0000
  C   C148      1.0  0.21479000000000004  0.64496  0.67435  1.0000
  C   C149      1.0  0.02629  0.021870000000000004  0.3161  1.0000
  C   C150      1.0  0.05281  0.04528000000000001  0.28255  1.0000
  C   C151      1.0  0.027769999999999996  0.024640000000000002  0.22559  1.0000
  C   C152      1.0  0.05605  0.047189999999999996  0.18691  1.0000
  C   C153      1.0  0.99802  0.18998000000000004  0.43296000000000007  1.0000
  C   C154      1.0  0.93681  0.16598999999999997  0.43662999999999996  1.0000
  C   C155      1.0  0.87925  0.19805  0.44111  1.0000
  C   C156      1.0  0.0447  0.16646  0.55667  1.0000
  C   C157      1.0  0.21521  0.02937  0.35499  1.0000
  C   C158      1.0  0.026690000000000002  0.29427  0.9777400000000002  1.0000
  C   C159      1.0  0.05371  0.23759000000000005  0.95535  1.0000
  C   C160      1.0  0.028560000000000002  0.20173999999999995  0.97661  1.0000
  C   C161      1.0  0.05582999999999999  0.14002  0.95318  1.0000
  C   C162      1.0  0.99986  0.24478  0.81179  1.0000
  C   C163      1.0  0.94148  0.27624  0.83927  1.0000
  C   C164      1.0  0.8805599999999999  0.2530599999999999  0.8113999999999999  1.0000
  C   C165      1.0  0.81632  0.28617  0.83829  1.0000
  C   C166      1.0  0.04482  0.39032  0.83332  1.0000
  C   C167      1.0  0.21545  0.32564  0.97064  1.0000
  C   C168      1.0  0.47446999999999995  0.021339999999999977  0.70599  1.0000
  C   C169      1.0  0.44879  0.041790000000000056  0.76293  1.0000
  C   C170      1.0  0.47607  0.018089999999999985  0.79567  1.0000
  C   C171      1.0  0.50032  0.1885  0.75567  1.0000
  C   C172      1.0  0.55856  0.16093000000000007  0.7240300000000001  1.0000
  C   C173      1.0  0.61954  0.18872  0.74706  1.0000
  C   C174      1.0  0.68369  0.16173  0.71384  1.0000
  C   C175      1.0  0.45547000000000004  0.16671  0.61029  1.0000
  C   C176      1.0  0.28457  0.02928999999999997  0.67439  1.0000
  C   C177      1.0  0.47501  0.29393  0.31503  1.0000
  C   C178      1.0  0.44976  0.23681  0.27879  1.0000
  C   C179      1.0  0.4768299999999999  0.20386999999999997  0.22221  1.0000
  C   C180      1.0  0.50198  0.24265  0.4329  1.0000
  C   C181      1.0  0.5631  0.27044  0.4366  1.0000
  C   C182      1.0  0.62072  0.24296999999999996  0.44112999999999997  1.0000
  C   C183      1.0  0.45549999999999996  0.38993  0.55649  1.0000
  C   C184      1.0  0.28525  0.32564  0.35479  1.0000
  C   C185      1.0  0.47529999999999994  0.6851599999999999  0.9791  1.0000
  C   C186      1.0  0.44962  0.72178  0.9588200000000001  1.0000
  C   C187      1.0  0.47628  0.77847  0.98304  1.0000
  C   C188      1.0  0.50214  0.5671  0.80967  1.0000
  C   C189      1.0  0.56333  0.56337  0.83367  1.0000
  C   C190      1.0  0.62092  0.5588699999999998  0.8016099999999999  1.0000
  C   C191      1.0  0.45549  0.4435200000000001  0.83351  1.0000
  C   C192      1.0  0.28509  0.64524  0.9708299999999999  1.0000
  C   C193      1.0  0.97518  0.97852  0.29366  1.0000
  C   C194      1.0  0.94987  0.9576999999999999  0.23660000000000003  1.0000
  C   C195      1.0  0.97661  0.98151  0.2037  1.0000
  C   C196      1.0  0.0019599999999999986  0.8095500000000001  0.24254  1.0000
  C   C197      1.0  0.06311  0.8335999999999998  0.27025  1.0000
  C   C198      1.0  0.12075  0.8015699999999999  0.2427  1.0000
  C   C199      1.0  0.95555  0.8334000000000001  0.38985  1.0000
  C   C200      1.0  0.78498  0.97061  0.32563  1.0000
  C   C201      1.0  0.97475  0.706  0.68461  1.0000
  C   C202      1.0  0.9490199999999999  0.76291  0.72095  1.0000
  C   C203      1.0  0.9759700000000001  0.7958399999999999  0.77759  1.0000
  C   C204      1.0  0.0018699999999999995  0.75726  0.56702  1.0000
  C   C205      1.0  0.06311  0.72949  0.56337  1.0000
  C   C206      1.0  0.12068  0.75696  0.55888  1.0000
  C   C207      1.0  0.95534  0.60996  0.44350000000000006  1.0000
  C   C208      1.0  0.78476  0.67439  0.64504  1.0000
  C   C209      1.0  0.9751099999999999  0.31535  0.02093  1.0000
  C   C210      1.0  0.94964  0.27963  0.04228  1.0000
  C   C211      1.0  0.97684  0.2231  0.01931  1.0000
  C   C212      1.0  0.00192  0.4329700000000001  0.19023000000000004  1.0000
  C   C213      1.0  0.06314  0.43664  0.16611  1.0000
  C   C214      1.0  0.12069  0.44114  0.19807  1.0000
  C   C215      1.0  0.9552699999999998  0.55645  0.1665  1.0000
  C   C216      1.0  0.78506  0.35489999999999994  0.02922  1.0000
  C   C217      1.0  0.50034  0.61627  0.61566  1.0000
  C   C218      1.0  0.50036  0.9995  0.38348  1.0000
  C   C219      1.0  0.50098  0.38437  0.00091  1.0000
  C   C220      1.0  0.0004400000000000003  0.38362999999999997  0.38414999999999994  1.0000
  C   C221      1.0  0.99962  0.9998099999999999  0.61576  1.0000
  C   C222      1.0  0.0003000000000000002  0.61578  0.99938  1.0000
  C   C223      1.0  0.4995800000000001  0.38356000000000007  0.38408000000000003  1.0000
  C   C224      1.0  0.49917  0.0009200000000000129  0.61641  1.0000
  C   C225      1.0  0.49982000000000004  0.61596  0.9994700000000001  1.0000
  C   C226      1.0  0.9995199999999999  0.61627  0.61568  1.0000
  C   C227      1.0  0.99962  0.99942  0.3834  1.0000
  C   C228      1.0  0.0001600000000000001  0.38395  0.99984  1.0000
  C   C229      1.0  0.39855  0.57002  0.78587  1.0000
  C   C230      1.0  0.39843  0.21589  0.4300800000000001  1.0000
  C   C231      1.0  0.3986099999999999  0.21642  0.78643  1.0000
  C   C232      1.0  0.8983100000000002  0.43014  0.21415  1.0000
  C   C233      1.0  0.89825  0.784  0.56978  1.0000
  C   C234      1.0  0.8983899999999999  0.78575  0.21596000000000004  1.0000
  C   C235      1.0  0.60135  0.7835199999999999  0.21354000000000004  1.0000
  C   C236      1.0  0.60145  0.78647  0.57003  1.0000
  C   C237      1.0  0.6015  0.43004  0.21642  1.0000
  C   C238      1.0  0.1016  0.21409999999999996  0.7839  1.0000
  C   C239      1.0  0.10167  0.21362  0.43006  1.0000
  C   C240      1.0  0.10153  0.5698400000000001  0.7835700000000001  1.0000
  C   C241      1.0  0.40906  0.45679  0.54341  1.0000
  C   C242      1.0  0.40902  0.08675999999999998  0.54362  1.0000
  C   C243      1.0  0.40908  0.45688999999999996  0.91359  1.0000
  C   C244      1.0  0.90866  0.54323  0.45662  1.0000
  C   C245      1.0  0.90863  0.91333  0.4566  1.0000
  C   C246      1.0  0.90874  0.54333  0.08665  1.0000
  C   C247      1.0  0.59106  0.91354  0.45615000000000006  1.0000
  C   C248      1.0  0.591  0.54387  0.45727  1.0000
  C   C249      1.0  0.59099  0.54284  0.08675  1.0000
  C   C250      1.0  0.09121  0.08638000000000003  0.54335  1.0000
  C   C251      1.0  0.09133  0.45602  0.54263  1.0000
  C   C252      1.0  0.09143  0.45702  0.91321  1.0000
  C   C253      1.0  0.24995  0.56764  0.6753  1.0000
  C   C254      1.0  0.25008  0.10758999999999996  0.4323699999999999  1.0000
  C   C255      1.0  0.25075  0.3247300000000001  0.8924200000000001  1.0000
  C   C256      1.0  0.74941  0.43231  0.32473  1.0000
  C   C257      1.0  0.74925  0.89243  0.56769  1.0000
  C   C258      1.0  0.74936  0.67527  0.1076  1.0000
  C   C259      1.0  0.74995  0.8923199999999999  0.32462  1.0000
  C   C260      1.0  0.74975  0.67539  0.56774  1.0000
  C   C261      1.0  0.7499899999999999  0.43229  0.10764000000000001  1.0000
  C   C262      1.0  0.24984000000000003  0.10767  0.67534  1.0000
  C   C263      1.0  0.25065  0.32461  0.43223000000000006  1.0000
  C   C264      1.0  0.25067  0.56778  0.89241  1.0000
  N   N1        1.0  0.45866  0.62664  0.66048  1.0000
  N   N2        1.0  0.4336999999999999  0.5693300000000001  0.7414500000000002  1.0000
  N   N3        1.0  0.42584  0.48547  0.60126  1.0000
  N   N4        1.0  0.30623  0.59575  0.67502  1.0000
  N   N5        1.0  0.45887  0.03425999999999999  0.37346  1.0000
  N   N6        1.0  0.43365999999999993  0.17225000000000004  0.4308699999999999  1.0000
  N   N7        1.0  0.42584999999999995  0.11586999999999996  0.51487  1.0000
  N   N8        1.0  0.30647  0.07913  0.40425000000000005  1.0000
  N   N9        1.0  0.45926  0.33973  0.96667  1.0000
  N   N10       1.0  0.43643  0.25953  0.82863  1.0000
  N   N11       1.0  0.42584999999999995  0.39897000000000005  0.8844499999999998  1.0000
  N   N12       1.0  0.30701  0.3249399999999999  0.9208299999999999  1.0000
  N   N13       1.0  0.95895  0.37364  0.33941  1.0000
  N   N14       1.0  0.9333499999999999  0.43082999999999994  0.25857  1.0000
  N   N15       1.0  0.9254699999999999  0.51458  0.3987  1.0000
  N   N16       1.0  0.8059100000000001  0.40437  0.32502  1.0000
  N   N17       1.0  0.95799  0.96549  0.6262  1.0000
  N   N18       1.0  0.93332  0.8276599999999998  0.56901  1.0000
  N   N19       1.0  0.9253799999999999  0.8841000000000001  0.48524000000000006  1.0000
  N   N20       1.0  0.80572  0.92048  0.59553  1.0000
  N   N21       1.0  0.95864  0.66055  0.0342  1.0000
  N   N22       1.0  0.93353  0.74127  0.17218  1.0000
  N   N23       1.0  0.9254399999999999  0.60121  0.11586  1.0000
  N   N24       1.0  0.8058699999999999  0.6749900000000001  0.07937  1.0000
  N   N25       1.0  0.54102  0.96535  0.33766  1.0000
  N   N26       1.0  0.56624  0.82735  0.25794  1.0000
  N   N27       1.0  0.57418  0.8844099999999998  0.39827  1.0000
  N   N28       1.0  0.69365  0.9207400000000001  0.32481  1.0000
  N   N29       1.0  0.54119  0.66179  0.6273  1.0000
  N   N30       1.0  0.56641  0.7421400000000001  0.56947  1.0000
  N   N31       1.0  0.57413  0.6018099999999998  0.48599  1.0000
  N   N32       1.0  0.69346  0.67515  0.59594  1.0000
  N   N33       1.0  0.5418  0.37261  0.03473  1.0000
  N   N34       1.0  0.56646  0.43067  0.17271  1.0000
  N   N35       1.0  0.57411  0.5141299999999999  0.11590999999999999  1.0000
  N   N36       1.0  0.69372  0.40418  0.07938  1.0000
  N   N37       1.0  0.04064  0.03356999999999993  0.66117  1.0000
  N   N38       1.0  0.06381  0.17179  0.7408399999999999  1.0000
  N   N39       1.0  0.0742  0.11550999999999999  0.60124  1.0000
  N   N40       1.0  0.19331  0.07945999999999993  0.67504  1.0000
  N   N41       1.0  0.0411  0.33779  0.37239  1.0000
  N   N42       1.0  0.0666  0.2580100000000001  0.4306400000000001  1.0000
  N   N43       1.0  0.0745  0.39813  0.51388  1.0000
  N   N44       1.0  0.19423  0.32475000000000004  0.40423  1.0000
  N   N45       1.0  0.04098  0.6275400000000001  0.9653700000000001  1.0000
  N   N46       1.0  0.06654  0.56923  0.8274  1.0000
  N   N47       1.0  0.07445  0.48587  0.88418  1.0000
  N   N48       1.0  0.19418  0.5957999999999999  0.9206999999999999  1.0000
  N   N49       1.0  0.5412  0.37323  0.3393  1.0000
  N   N50       1.0  0.5636  0.4311  0.25965  1.0000
  N   N51       1.0  0.57422  0.51494  0.3994  1.0000
  N   N52       1.0  0.69311  0.40415  0.32491  1.0000
  N   N53       1.0  0.54108  0.9666  0.62662  1.0000
  N   N54       1.0  0.56356  0.8286  0.5689  1.0000
  N   N55       1.0  0.57433  0.8845199999999999  0.48504  1.0000
  N   N56       1.0  0.69291  0.92093  0.59592  1.0000
  N   N57       1.0  0.54145  0.66054  0.03392  1.0000
  N   N58       1.0  0.56353  0.7403300000000002  0.17147  1.0000
  N   N59       1.0  0.57412  0.60073  0.11579000000000002  1.0000
  N   N60       1.0  0.69304  0.67507  0.07929  1.0000
  N   N61       1.0  0.04118  0.62657  0.66032  1.0000
  N   N62       1.0  0.06365  0.56881  0.7404300000000001  1.0000
  N   N63       1.0  0.07437  0.48492  0.60054  1.0000
  N   N64       1.0  0.19332  0.59555  0.67505  1.0000
  N   N65       1.0  0.04106  0.033929999999999974  0.37312  1.0000
  N   N66       1.0  0.06384  0.1715  0.43113  1.0000
  N   N67       1.0  0.07444  0.11548000000000003  0.51458  1.0000
  N   N68       1.0  0.19358  0.07950000000000002  0.40442000000000006  1.0000
  N   N69       1.0  0.04179  0.33905  0.96539  1.0000
  N   N70       1.0  0.06652  0.2587  0.82761  1.0000
  N   N71       1.0  0.07462  0.39916  0.88414  1.0000
  N   N72       1.0  0.1942  0.32499  0.92056  1.0000
  N   N73       1.0  0.4582  0.03463999999999995  0.66207  1.0000
  N   N74       1.0  0.4336999999999999  0.17267000000000005  0.7418900000000002  1.0000
  N   N75       1.0  0.42588000000000004  0.1158  0.60149  1.0000
  N   N76       1.0  0.3062  0.07931999999999993  0.67513  1.0000
  N   N77       1.0  0.4588  0.338  0.37229  1.0000
  N   N78       1.0  0.43612  0.2590799999999999  0.43096  1.0000
  N   N79       1.0  0.42594  0.39888  0.51448  1.0000
  N   N80       1.0  0.30698  0.32495  0.4041100000000001  1.0000
  N   N81       1.0  0.45907  0.62793  0.96576  1.0000
  N   N82       1.0  0.43629  0.56902  0.8281  1.0000
  N   N83       1.0  0.42594999999999994  0.48571  0.88454  1.0000
  N   N84       1.0  0.30694  0.59588  0.92074  1.0000
  N   N85       1.0  0.95901  0.96543  0.33778  1.0000
  N   N86       1.0  0.9361  0.82799  0.25912  1.0000
  N   N87       1.0  0.92583  0.88438  0.39877  1.0000
  N   N88       1.0  0.8064800000000001  0.92049  0.32494  1.0000
  N   N89       1.0  0.95865  0.66188  0.62739  1.0000
  N   N90       1.0  0.93602  0.74079  0.5689  1.0000
  N   N91       1.0  0.9256399999999999  0.60106  0.48555000000000004  1.0000
  N   N92       1.0  0.80623  0.67512  0.59564  1.0000
  N   N93       1.0  0.95915  0.37254999999999994  0.03386  1.0000
  N   N94       1.0  0.9361  0.43108  0.17185  1.0000
  N   N95       1.0  0.92571  0.51442  0.11557  1.0000
  N   N96       1.0  0.80655  0.40430999999999995  0.0793  1.0000
  N   N97       1.0  0.37674  0.48497  0.5155  1.0000
  N   N98       1.0  0.37674  0.03065  0.51543  1.0000
  N   N99       1.0  0.37674  0.48495  0.96972  1.0000
  N   N100      1.0  0.87601  0.51513  0.48455  1.0000
  N   N101      1.0  0.87565  0.96928  0.48466  1.0000
  N   N102      1.0  0.8771199999999999  0.5152  0.03028  1.0000
  N   N103      1.0  0.62325  0.9696599999999997  0.48433999999999994  1.0000
  N   N104      1.0  0.62328  0.51573  0.48524000000000006  1.0000
  N   N105      1.0  0.62332  0.51482  0.03058  1.0000
  N   N106      1.0  0.12405  0.030400000000000028  0.51536  1.0000
  N   N107      1.0  0.12395  0.48417  0.51474  1.0000
  N   N108      1.0  0.12358999999999999  0.48506000000000005  0.9693900000000001  1.0000
  N   N109      1.0  0.25039  0.51282  0.67501  1.0000
  N   N110      1.0  0.2504  0.16215000000000002  0.4872000000000001  1.0000
  N   N111      1.0  0.25083  0.32504999999999995  0.8378999999999999  1.0000
  N   N112      1.0  0.74928  0.48714  0.32505  1.0000
  N   N113      1.0  0.74923  0.8379  0.51285  1.0000
  N   N114      1.0  0.74925  0.67496  0.16211  1.0000
  N   N115      1.0  0.74959  0.83779  0.32492  1.0000
  N   N116      1.0  0.74949  0.67506  0.51289  1.0000
  N   N117      1.0  0.74956  0.48714  0.16218  1.0000
  N   N118      1.0  0.2503  0.1622099999999999  0.67504  1.0000
  N   N119      1.0  0.25071  0.32497  0.48710000000000003  1.0000
  N   N120      1.0  0.25079  0.5129  0.83787  1.0000
  O   O1        1.0  0.36374  0.45403  0.46158  1.0000
  O   O2        1.0  0.30586  0.4909899999999999  0.6751  1.0000
  O   O3        1.0  0.36377  0.00757  0.54628  1.0000
  O   O4        1.0  0.30582  0.18398999999999996  0.50896  1.0000
  O   O5        1.0  0.36375  0.5389300000000001  0.9927500000000001  1.0000
  O   O6        1.0  0.30612  0.32506  0.81582  1.0000
  O   O7        1.0  0.8627  0.54606  0.53847  1.0000
  O   O8        1.0  0.80452  0.50921  0.32501  1.0000
  O   O9        1.0  0.86264  0.9923200000000001  0.45375000000000004  1.0000
  O   O10       1.0  0.80454  0.8157099999999999  0.49073000000000006  1.0000
  O   O11       1.0  0.86522  0.46102000000000004  0.006889999999999999  1.0000
  O   O12       1.0  0.80451  0.67505  0.18423000000000003  1.0000
  O   O13       1.0  0.63627  0.99239  0.53826  1.0000
  O   O14       1.0  0.69417  0.8158899999999999  0.3248  1.0000
  O   O15       1.0  0.63627  0.46176  0.45416  1.0000
  O   O16       1.0  0.69412  0.67512  0.49103  1.0000
  O   O17       1.0  0.63629  0.5459  0.00772  1.0000
  O   O18       1.0  0.69409  0.5090299999999999  0.18415  1.0000
  O   O19       1.0  0.13788  0.00768999999999999  0.46158  1.0000
  O   O20       1.0  0.1952  0.18451000000000006  0.67498  1.0000
  O   O21       1.0  0.13662  0.53816  0.54587  1.0000
  O   O22       1.0  0.19543  0.32487  0.50918  1.0000
  O   O23       1.0  0.13767  0.454  0.99202  1.0000
  O   O24       1.0  0.19553  0.49091  0.81581  1.0000
  O   O25       1.0  0.63622  0.54668  0.5392  1.0000
  O   O26       1.0  0.69393  0.5091699999999998  0.32503  1.0000
  O   O27       1.0  0.63615  0.99284  0.4535600000000001  1.0000
  O   O28       1.0  0.69395  0.8159199999999999  0.49087000000000003  1.0000
  O   O29       1.0  0.63627  0.46083999999999997  0.007470000000000001  1.0000
  O   O30       1.0  0.69392  0.6749399999999999  0.18416  1.0000
  O   O31       1.0  0.13756  0.45325  0.46085  1.0000
  O   O32       1.0  0.19526999999999997  0.49058  0.67499  1.0000
  O   O33       1.0  0.1367  0.007300000000000006  0.54629  1.0000
  O   O34       1.0  0.19524  0.18449  0.50949  1.0000
  O   O35       1.0  0.13514  0.5393100000000001  0.99283  1.0000
  O   O36       1.0  0.19553  0.3249699999999999  0.8158299999999999  1.0000
  O   O37       1.0  0.3638  0.007819999999999975  0.46148999999999996  1.0000
  O   O38       1.0  0.30578  0.18405  0.67515  1.0000
  O   O39       1.0  0.36377  0.53897  0.54658  1.0000
  O   O40       1.0  0.30602  0.32507  0.50913  1.0000
  O   O41       1.0  0.36372  0.45392  0.99263  1.0000
  O   O42       1.0  0.30613  0.4908  0.81581  1.0000
  O   O43       1.0  0.86204  0.9919899999999999  0.53849  1.0000
  O   O44       1.0  0.8047499999999999  0.81557  0.32502  1.0000
  O   O45       1.0  0.86292  0.46119999999999994  0.45345  1.0000
  O   O46       1.0  0.80471  0.67504  0.49066  1.0000
  O   O47       1.0  0.86395  0.54621  0.00739  1.0000
  O   O48       1.0  0.80469  0.50935  0.18435  1.0000
