data_image0
_chemical_formula_structural       Ag12H216C288S24N48O12
_chemical_formula_sum              "Ag12 H216 C288 S24 N48 O12"
_cell_length_a       19.96617
_cell_length_b       19.974
_cell_length_c       19.97521
_cell_angle_alpha    81.04241999999999
_cell_angle_beta     81.05079
_cell_angle_gamma    81.05161

_space_group_name_H-M_alt    "P 1"
_space_group_IT_number       1

loop_
  _space_group_symop_operation_xyz
  'x, y, z'

loop_
  _atom_site_type_symbol
  _atom_site_label
  _atom_site_symmetry_multiplicity
  _atom_site_fract_x
  _atom_site_fract_y
  _atom_site_fract_z
  _atom_site_occupancy
  Ag  Ag1       1.0  0.22079000000000004  0.19751999999999992  0.72321  1.0000
  Ag  Ag2       1.0  0.7232700000000001  0.22072999999999998  0.19758  1.0000
  Ag  Ag3       1.0  0.19759000000000004  0.7231799999999999  0.22081000000000003  1.0000
  Ag  Ag4       1.0  0.7766600000000001  0.30249  0.27955  1.0000
  Ag  Ag5       1.0  0.30254  0.2795  0.77666  1.0000
  Ag  Ag6       1.0  0.2794  0.7766799999999998  0.30262  1.0000
  Ag  Ag7       1.0  0.7792100000000001  0.8024699999999998  0.27679  1.0000
  Ag  Ag8       1.0  0.27674000000000004  0.77926  0.80242  1.0000
  Ag  Ag9       1.0  0.8024100000000001  0.27682  0.77919  1.0000
  Ag  Ag10      1.0  0.22333999999999998  0.69751  0.72045  1.0000
  Ag  Ag11      1.0  0.6974600000000001  0.7204899999999997  0.22334000000000004  1.0000
  Ag  Ag12      1.0  0.7206  0.22330999999999998  0.69738  1.0000
  H   H1        1.0  0.6382300000000002  0.30826  0.8553799999999999  1.0000
  H   H2        1.0  0.5446600000000003  0.40591  0.86748  1.0000
  H   H3        1.0  0.5628  0.5211  0.79833  1.0000
  H   H4        1.0  0.67288  0.53213  0.72349  1.0000
  H   H5        1.0  0.92679  0.48718  0.60876  1.0000
  H   H6        1.0  0.10339  0.19654999999999997  0.67548  1.0000
  H   H7        1.0  0.97455  0.35808  0.5702  1.0000
  H   H8        1.0  0.13329999999999997  0.23079  0.55102  1.0000
  H   H9        1.0  0.053269999999999984  0.21861000000000003  0.52999  1.0000
  H   H10       1.0  0.08279  0.29929  0.5066  1.0000
  H   H11       1.0  0.98924  0.41134  0.80948  1.0000
  H   H12       1.0  0.90312  0.4303699999999999  0.78947  1.0000
  H   H13       1.0  0.9185200000000001  0.39264  0.87384  1.0000
  H   H14       1.0  0.9577100000000002  0.21670000000000003  0.87758  1.0000
  H   H15       1.0  0.15985  0.045270000000000005  0.96459  1.0000
  H   H16       1.0  0.273  0.9756699999999999  0.97486  1.0000
  H   H17       1.0  0.37285  6.999999999999671e-05  0.88342  1.0000
  H   H18       1.0  0.3519  0.09128999999999998  0.78609  1.0000
  H   H19       1.0  0.8553600000000001  0.6382499999999998  0.30827  1.0000
  H   H20       1.0  0.86741  0.5447  0.40597  1.0000
  H   H21       1.0  0.7982100000000002  0.5628899999999999  0.52114  1.0000
  H   H22       1.0  0.72338  0.67296  0.53211  1.0000
  H   H23       1.0  0.6088200000000001  0.9267399999999998  0.4872  1.0000
  H   H24       1.0  0.6754700000000002  0.10335  0.19656  1.0000
  H   H25       1.0  0.57018  0.97455  0.35807  1.0000
  H   H26       1.0  0.55098  0.13327999999999998  0.23084999999999997  1.0000
  H   H27       1.0  0.52994  0.05331  0.21864000000000003  1.0000
  H   H28       1.0  0.50658  0.08274999999999998  0.29934  1.0000
  H   H29       1.0  0.8095200000000001  0.98928  0.41131  1.0000
  H   H30       1.0  0.7895900000000002  0.90313  0.43035  1.0000
  H   H31       1.0  0.8739500000000001  0.91853  0.39268  1.0000
  H   H32       1.0  0.87771  0.95767  0.21669999999999998  1.0000
  H   H33       1.0  0.96467  0.15974999999999998  0.04521  1.0000
  H   H34       1.0  0.9748800000000001  0.27288999999999997  0.97561  1.0000
  H   H35       1.0  0.8833800000000002  0.37269  0.99999  1.0000
  H   H36       1.0  0.78606  0.35175  0.09126  1.0000
  H   H37       1.0  0.30829000000000006  0.8554099999999999  0.63826  1.0000
  H   H38       1.0  0.40598  0.8674299999999999  0.54471  1.0000
  H   H39       1.0  0.52115  0.79819  0.5629  1.0000
  H   H40       1.0  0.53211  0.72339  0.67299  1.0000
  H   H41       1.0  0.4872000000000001  0.60873  0.92672  1.0000
  H   H42       1.0  0.19662  0.67541  0.10344  1.0000
  H   H43       1.0  0.3580900000000002  0.57026  0.97447  1.0000
  H   H44       1.0  0.23092  0.55089  0.13326  1.0000
  H   H45       1.0  0.21868  0.52994  0.05324  1.0000
  H   H46       1.0  0.29944  0.5065999999999999  0.08266  1.0000
  H   H47       1.0  0.4113500000000001  0.8095099999999998  0.98924  1.0000
  H   H48       1.0  0.4303900000000001  0.7895499999999998  0.90311  1.0000
  H   H49       1.0  0.39267000000000013  0.8738999999999998  0.9185  1.0000
  H   H50       1.0  0.21672000000000005  0.87761  0.9577799999999999  1.0000
  H   H51       1.0  0.04524999999999999  0.96454  0.15984  1.0000
  H   H52       1.0  0.9756800000000001  0.97482  0.27297  1.0000
  H   H53       1.0  6.000000000001158e-05  0.8833299999999998  0.37279  1.0000
  H   H54       1.0  0.09126999999999999  0.786  0.35185  1.0000
  H   H55       1.0  0.6440800000000001  0.19150999999999999  0.8620899999999999  1.0000
  H   H56       1.0  0.6326000000000003  0.09380000000000001  0.95566  1.0000
  H   H57       1.0  0.70202  0.97872  0.93728  1.0000
  H   H58       1.0  0.7765900000000006  0.9680199999999998  0.8269500000000001  1.0000
  H   H59       1.0  0.8908400000000001  0.012840000000000002  0.57356  1.0000
  H   H60       1.0  0.82465  0.30369999999999997  0.3965  1.0000
  H   H61       1.0  0.9292  0.14212999999999998  0.5257  1.0000
  H   H62       1.0  0.94873  0.26894  0.36685  1.0000
  H   H63       1.0  0.9700200000000002  0.28124  0.44671  1.0000
  H   H64       1.0  0.9929700000000001  0.20035000000000003  0.41752  1.0000
  H   H65       1.0  0.68953  0.08737  0.51117  1.0000
  H   H66       1.0  0.71011  0.07078999999999999  0.59703  1.0000
  H   H67       1.0  0.6253900000000002  0.10754  0.58158  1.0000
  H   H68       1.0  0.6221400000000004  0.28387  0.54213  1.0000
  H   H69       1.0  0.5351200000000002  0.45503  0.33982  1.0000
  H   H70       1.0  0.5250600000000001  0.5245599999999999  0.22665  1.0000
  H   H71       1.0  0.6165900000000001  0.49997  0.12691  1.0000
  H   H72       1.0  0.7138700000000001  0.40866999999999987  0.14803  1.0000
  H   H73       1.0  0.19148999999999994  0.86222  0.64398  1.0000
  H   H74       1.0  0.09374999999999997  0.95573  0.63247  1.0000
  H   H75       1.0  0.9786900000000002  0.9373199999999999  0.70195  1.0000
  H   H76       1.0  0.96805  0.8269799999999999  0.77653  1.0000
  H   H77       1.0  0.012899999999999988  0.57364  0.8908100000000001  1.0000
  H   H78       1.0  0.3037400000000001  0.3965699999999999  0.8245999999999999  1.0000
  H   H79       1.0  0.14213  0.52586  0.9289499999999999  1.0000
  H   H80       1.0  0.26888  0.36696  0.94864  1.0000
  H   H81       1.0  0.28119  0.44685  0.96993  1.0000
  H   H82       1.0  0.20029000000000002  0.4176199999999997  0.9928  1.0000
  H   H83       1.0  0.08713000000000001  0.51142  0.68921  1.0000
  H   H84       1.0  0.07075999999999999  0.59708  0.71014  1.0000
  H   H85       1.0  0.10748  0.5816  0.62529  1.0000
  H   H86       1.0  0.28387  0.54208  0.62211  1.0000
  H   H87       1.0  0.45503  0.33968999999999994  0.53508  1.0000
  H   H88       1.0  0.5244500000000001  0.22651  0.52504  1.0000
  H   H89       1.0  0.49989000000000006  0.1268  0.61664  1.0000
  H   H90       1.0  0.40869999999999995  0.14802  0.71397  1.0000
  H   H91       1.0  0.8620500000000001  0.64399  0.19155  1.0000
  H   H92       1.0  0.95567  0.63255  0.09388  1.0000
  H   H93       1.0  0.9372999999999998  0.7019199999999999  0.9787999999999999  1.0000
  H   H94       1.0  0.8269900000000001  0.7764499999999999  0.96804  1.0000
  H   H95       1.0  0.57351  0.89083  0.01282  1.0000
  H   H96       1.0  0.39641000000000015  0.82464  0.30376  1.0000
  H   H97       1.0  0.52561  0.92908  0.1422  1.0000
  H   H98       1.0  0.36683000000000004  0.94874  0.26911  1.0000
  H   H99       1.0  0.44676000000000005  0.9698499999999998  0.28134  1.0000
  H   H100      1.0  0.41752  0.99294  0.20047  1.0000
  H   H101      1.0  0.51103  0.6899899999999999  0.08725  1.0000
  H   H102      1.0  0.5970500000000002  0.71012  0.07072  1.0000
  H   H103      1.0  0.5815100000000002  0.62553  0.10728999999999998  1.0000
  H   H104      1.0  0.5419999999999999  0.6221899999999999  0.28397  1.0000
  H   H105      1.0  0.33974  0.5351699999999999  0.45502  1.0000
  H   H106      1.0  0.22653  0.525  0.52453  1.0000
  H   H107      1.0  0.12672000000000003  0.61647  0.49994000000000005  1.0000
  H   H108      1.0  0.14784000000000008  0.7138399999999999  0.40876  1.0000
  H   H109      1.0  0.3617699999999999  0.69174  0.14462  1.0000
  H   H110      1.0  0.45535000000000003  0.5940899999999999  0.13252  1.0000
  H   H111      1.0  0.4372  0.4789  0.20167  1.0000
  H   H112      1.0  0.32713000000000003  0.46787  0.27651  1.0000
  H   H113      1.0  0.07321  0.51282  0.39124  1.0000
  H   H114      1.0  0.89661  0.80344  0.32452  1.0000
  H   H115      1.0  0.02545000000000004  0.64192  0.4298  1.0000
  H   H116      1.0  0.8667000000000002  0.76921  0.44897999999999993  1.0000
  H   H117      1.0  0.94673  0.78139  0.47000999999999993  1.0000
  H   H118      1.0  0.9172100000000001  0.7007099999999999  0.4934  1.0000
  H   H119      1.0  0.01075999999999999  0.58866  0.19052  1.0000
  H   H120      1.0  0.09687999999999998  0.56963  0.21053000000000002  1.0000
  H   H121      1.0  0.08148999999999999  0.60736  0.12616  1.0000
  H   H122      1.0  0.04229000000000005  0.7832999999999998  0.12241999999999999  1.0000
  H   H123      1.0  0.84016  0.9547299999999997  0.03541  1.0000
  H   H124      1.0  0.72701  0.02432999999999999  0.02514  1.0000
  H   H125      1.0  0.62715  0.9999299999999999  0.11658  1.0000
  H   H126      1.0  0.6481  0.9087099999999999  0.21391  1.0000
  H   H127      1.0  0.14465  0.3617499999999999  0.69173  1.0000
  H   H128      1.0  0.13260000000000002  0.4553  0.59403  1.0000
  H   H129      1.0  0.20180000000000003  0.43711  0.47886  1.0000
  H   H130      1.0  0.27662000000000003  0.32703999999999994  0.46789  1.0000
  H   H131      1.0  0.3911800000000001  0.07326  0.5128  1.0000
  H   H132      1.0  0.3245400000000001  0.8966499999999998  0.80344  1.0000
  H   H133      1.0  0.42982000000000004  0.025449999999999987  0.64193  1.0000
  H   H134      1.0  0.4490200000000001  0.8667099999999998  0.76915  1.0000
  H   H135      1.0  0.4700600000000001  0.9466899999999998  0.78136  1.0000
  H   H136      1.0  0.4934300000000003  0.91725  0.70066  1.0000
  H   H137      1.0  0.19049  0.010720000000000006  0.58869  1.0000
  H   H138      1.0  0.2104099999999999  0.09686999999999998  0.56965  1.0000
  H   H139      1.0  0.12606000000000006  0.08146999999999999  0.60732  1.0000
  H   H140      1.0  0.12230000000000002  0.042330000000000007  0.7833  1.0000
  H   H141      1.0  0.03533000000000004  0.8402499999999998  0.95479  1.0000
  H   H142      1.0  0.025120000000000028  0.7271099999999998  0.02439  1.0000
  H   H143      1.0  0.11662  0.62731  1e-05  1.0000
  H   H144      1.0  0.21394999999999997  0.64825  0.90874  1.0000
  H   H145      1.0  0.69172  0.14458999999999997  0.36174  1.0000
  H   H146      1.0  0.59403  0.13256999999999997  0.4552899999999999  1.0000
  H   H147      1.0  0.47885000000000005  0.2018099999999999  0.43710000000000004  1.0000
  H   H148      1.0  0.46789000000000003  0.27661  0.32701  1.0000
  H   H149      1.0  0.5128  0.39127  0.07328  1.0000
  H   H150      1.0  0.8033900000000004  0.32458999999999993  0.89656  1.0000
  H   H151      1.0  0.64191  0.42974  0.02553  1.0000
  H   H152      1.0  0.7690900000000002  0.4491099999999999  0.8667399999999998  1.0000
  H   H153      1.0  0.78132  0.47006  0.9467600000000002  1.0000
  H   H154      1.0  0.70056  0.49339999999999995  0.91734  1.0000
  H   H155      1.0  0.5886600000000001  0.19048  0.01076  1.0000
  H   H156      1.0  0.5696100000000002  0.21045  0.09689  1.0000
  H   H157      1.0  0.60733  0.1261  0.0815  1.0000
  H   H158      1.0  0.7832800000000002  0.12239  0.04222  1.0000
  H   H159      1.0  0.95475  0.03546000000000001  0.84016  1.0000
  H   H160      1.0  0.02432  0.02517999999999999  0.72703  1.0000
  H   H161      1.0  0.99994  0.11666  0.62721  1.0000
  H   H162      1.0  0.9087300000000001  0.21400000000000005  0.64815  1.0000
  H   H163      1.0  0.3559200000000001  0.80848  0.13791  1.0000
  H   H164      1.0  0.3674  0.9062  0.04434  1.0000
  H   H165      1.0  0.29799  0.02128  0.06272  1.0000
  H   H166      1.0  0.22341000000000003  0.03197999999999999  0.17305  1.0000
  H   H167      1.0  0.10916000000000002  0.9871599999999999  0.42644  1.0000
  H   H168      1.0  0.17536000000000002  0.6962899999999999  0.6035  1.0000
  H   H169      1.0  0.07081000000000003  0.8578699999999999  0.4743  1.0000
  H   H170      1.0  0.05127000000000001  0.73106  0.63315  1.0000
  H   H171      1.0  0.029980000000000034  0.7187599999999998  0.55329  1.0000
  H   H172      1.0  0.0070300000000000406  0.7996399999999997  0.58248  1.0000
  H   H173      1.0  0.31047  0.9126299999999999  0.48882999999999993  1.0000
  H   H174      1.0  0.28989  0.92921  0.40297  1.0000
  H   H175      1.0  0.37462  0.89246  0.41842000000000007  1.0000
  H   H176      1.0  0.37787  0.71613  0.45787  1.0000
  H   H177      1.0  0.4648800000000001  0.54497  0.66018  1.0000
  H   H178      1.0  0.47494000000000003  0.47544  0.77335  1.0000
  H   H179      1.0  0.38342000000000004  0.5000299999999999  0.87309  1.0000
  H   H180      1.0  0.28613000000000016  0.59133  0.8519699999999999  1.0000
  H   H181      1.0  0.8085100000000002  0.13776999999999998  0.35602  1.0000
  H   H182      1.0  0.9062500000000001  0.04427  0.36753  1.0000
  H   H183      1.0  0.021309999999999996  0.06268000000000001  0.29805  1.0000
  H   H184      1.0  0.031950000000000006  0.17301999999999992  0.22347000000000003  1.0000
  H   H185      1.0  0.9871100000000002  0.42636  0.10919  1.0000
  H   H186      1.0  0.6962600000000001  0.60343  0.1754  1.0000
  H   H187      1.0  0.8578700000000001  0.47413999999999995  0.07105  1.0000
  H   H188      1.0  0.73113  0.63304  0.05136  1.0000
  H   H189      1.0  0.71881  0.55315  0.030070000000000003  1.0000
  H   H190      1.0  0.7997100000000001  0.5823799999999999  0.0072  1.0000
  H   H191      1.0  0.91287  0.48857999999999996  0.31079  1.0000
  H   H192      1.0  0.92924  0.40291999999999994  0.28986  1.0000
  H   H193      1.0  0.8925200000000001  0.4184  0.37471  1.0000
  H   H194      1.0  0.7161400000000001  0.45791999999999994  0.37789  1.0000
  H   H195      1.0  0.54498  0.6603  0.46492  1.0000
  H   H196      1.0  0.4755600000000002  0.7734899999999998  0.47496000000000005  1.0000
  H   H197      1.0  0.50012  0.8731999999999999  0.38336  1.0000
  H   H198      1.0  0.5913  0.8519799999999998  0.28603  1.0000
  H   H199      1.0  0.13795  0.35601000000000005  0.80845  1.0000
  H   H200      1.0  0.04433000000000002  0.36743999999999993  0.90612  1.0000
  H   H201      1.0  0.06271000000000002  0.29808  0.0212  1.0000
  H   H202      1.0  0.17302  0.22353999999999996  0.03196  1.0000
  H   H203      1.0  0.4264900000000001  0.10916999999999999  0.98718  1.0000
  H   H204      1.0  0.6035900000000001  0.17534999999999998  0.69624  1.0000
  H   H205      1.0  0.47439000000000003  0.07091999999999998  0.8578000000000001  1.0000
  H   H206      1.0  0.63317  0.05126000000000001  0.73089  1.0000
  H   H207      1.0  0.55324  0.030150000000000007  0.71866  1.0000
  H   H208      1.0  0.58249  0.007060000000000003  0.79953  1.0000
  H   H209      1.0  0.48897  0.31001  0.91275  1.0000
  H   H210      1.0  0.40295000000000003  0.2898799999999999  0.92928  1.0000
  H   H211      1.0  0.41849000000000003  0.37447  0.89271  1.0000
  H   H212      1.0  0.45801000000000003  0.37781  0.71603  1.0000
  H   H213      1.0  0.66027  0.46482999999999997  0.54498  1.0000
  H   H214      1.0  0.7734800000000002  0.47499999999999987  0.47547  1.0000
  H   H215      1.0  0.8732900000000002  0.3835299999999998  0.50006  1.0000
  H   H216      1.0  0.85216  0.28616  0.59124  1.0000
  C   C1        1.0  0.64415  0.3585999999999999  0.82689  1.0000
  C   C2        1.0  0.5917600000000001  0.41314  0.83352  1.0000
  C   C3        1.0  0.6021300000000002  0.47695999999999994  0.79534  1.0000
  C   C4        1.0  0.6633800000000001  0.48324999999999996  0.75328  1.0000
  C   C5        1.0  0.7148800000000001  0.42611  0.7507  1.0000
  C   C6        1.0  0.7819600000000001  0.43119  0.71365  1.0000
  C   C7        1.0  0.8871500000000001  0.46208  0.64195  1.0000
  C   C8        1.0  0.8933700000000002  0.39778999999999987  0.67977  1.0000
  C   C9        1.0  0.9554200000000002  0.34722  0.6798  1.0000
  C   C10       1.0  0.97604  0.31134  0.7415  1.0000
  C   C11       1.0  0.030109999999999998  0.25668  0.73989  1.0000
  C   C12       1.0  0.06301999999999999  0.24  0.676  1.0000
  C   C13       1.0  0.04548999999999999  0.27647000000000005  0.61434  1.0000
  C   C14       1.0  0.99161  0.33020999999999995  0.61722  1.0000
  C   C15       1.0  0.08068000000000002  0.25531  0.54699  1.0000
  C   C16       1.0  0.9383500000000002  0.39448  0.8193000000000001  1.0000
  C   C17       1.0  0.05204999999999999  0.21499  0.80203  1.0000
  C   C18       1.0  0.011630000000000007  0.19993  0.86389  1.0000
  C   C19       1.0  0.13008  0.14322  0.8579  1.0000
  C   C20       1.0  0.19564999999999996  0.10474000000000001  0.86894  1.0000
  C   C21       1.0  0.20374999999999996  0.054570000000000014  0.92629  1.0000
  C   C22       1.0  0.26703999999999994  0.016039999999999992  0.9321  1.0000
  C   C23       1.0  0.32230000000000003  0.029150000000000013  0.8814199999999999  1.0000
  C   C24       1.0  0.31054000000000015  0.08008  0.8267  1.0000
  C   C25       1.0  0.8268600000000003  0.6441799999999998  0.35861  1.0000
  C   C26       1.0  0.83345  0.59181  0.41317  1.0000
  C   C27       1.0  0.79526  0.60219  0.47698999999999997  1.0000
  C   C28       1.0  0.75321  0.66343  0.48325  1.0000
  C   C29       1.0  0.7506800000000001  0.71491  0.42611  1.0000
  C   C30       1.0  0.71365  0.78197  0.43118000000000006  1.0000
  C   C31       1.0  0.642  0.88714  0.46208  1.0000
  C   C32       1.0  0.6798100000000002  0.8933499999999999  0.39778  1.0000
  C   C33       1.0  0.67984  0.9554  0.34722  1.0000
  C   C34       1.0  0.74157  0.97599  0.31133  1.0000
  C   C35       1.0  0.73995  0.03005  0.25668  1.0000
  C   C36       1.0  0.67603  0.06296999999999998  0.23999000000000004  1.0000
  C   C37       1.0  0.61435  0.04544  0.27647  1.0000
  C   C38       1.0  0.61724  0.9915699999999998  0.33021  1.0000
  C   C39       1.0  0.54697  0.08067  0.25535  1.0000
  C   C40       1.0  0.8193900000000001  0.93839  0.39449  1.0000
  C   C41       1.0  0.8020900000000001  0.05198  0.21499000000000001  1.0000
  C   C42       1.0  0.8639700000000001  0.011570000000000002  0.19992  1.0000
  C   C43       1.0  0.8579900000000001  0.12998000000000004  0.14322  1.0000
  C   C44       1.0  0.86901  0.19553  0.10472  1.0000
  C   C45       1.0  0.9263500000000002  0.20364  0.05453000000000001  1.0000
  C   C46       1.0  0.9321100000000001  0.26692  0.016  1.0000
  C   C47       1.0  0.88141  0.32216  0.029110000000000004  1.0000
  C   C48       1.0  0.8266900000000001  0.3104  0.08007  1.0000
  C   C49       1.0  0.35862  0.8268899999999999  0.6442  1.0000
  C   C50       1.0  0.41318  0.83347  0.59182  1.0000
  C   C51       1.0  0.47700000000000004  0.79525  0.60221  1.0000
  C   C52       1.0  0.48325000000000007  0.75321  0.66345  1.0000
  C   C53       1.0  0.4260999999999999  0.7506899999999999  0.71494  1.0000
  C   C54       1.0  0.43118000000000006  0.7136500000000001  0.782  1.0000
  C   C55       1.0  0.4621  0.64196  0.88713  1.0000
  C   C56       1.0  0.39780000000000004  0.67982  0.8933700000000001  1.0000
  C   C57       1.0  0.34723  0.6798399999999998  0.9554100000000001  1.0000
  C   C58       1.0  0.3113600000000001  0.74153  0.9760299999999998  1.0000
  C   C59       1.0  0.25671000000000005  0.7398899999999999  0.030110000000000005  1.0000
  C   C60       1.0  0.24002999999999997  0.67598  0.06303  1.0000
  C   C61       1.0  0.27649999999999997  0.61434  0.04546  1.0000
  C   C62       1.0  0.3302200000000001  0.6172599999999999  0.9915599999999999  1.0000
  C   C63       1.0  0.25541  0.54694  0.08063  1.0000
  C   C64       1.0  0.39451  0.8193599999999999  0.9383500000000001  1.0000
  C   C65       1.0  0.21502000000000004  0.80202  0.05206  1.0000
  C   C66       1.0  0.19994  0.8638899999999999  0.01167  1.0000
  C   C67       1.0  0.14323999999999998  0.85786  0.13009  1.0000
  C   C68       1.0  0.10474000000000003  0.8688899999999999  0.19564  1.0000
  C   C69       1.0  0.05458  0.9262399999999998  0.20373  1.0000
  C   C70       1.0  0.016050000000000016  0.9320499999999999  0.26702  1.0000
  C   C71       1.0  0.029150000000000002  0.88135  0.32225  1.0000
  C   C72       1.0  0.08008000000000001  0.8266199999999999  0.31051  1.0000
  C   C73       1.0  0.67278  0.14127  0.8561000000000001  1.0000
  C   C74       1.0  0.6664300000000001  0.08664999999999998  0.90846  1.0000
  C   C75       1.0  0.7047600000000002  0.02291000000000001  0.89798  1.0000
  C   C76       1.0  0.74668  0.0168  0.83664  1.0000
  C   C77       1.0  0.7490300000000003  0.07403999999999998  0.78523  1.0000
  C   C78       1.0  0.7860500000000001  0.06909  0.71817  1.0000
  C   C79       1.0  0.8575600000000001  0.038130000000000004  0.61299  1.0000
  C   C80       1.0  0.8196800000000001  0.10241999999999998  0.60668  1.0000
  C   C81       1.0  0.81945  0.15295  0.54456  1.0000
  C   C82       1.0  0.7578400000000003  0.18881  0.52347  1.0000
  C   C83       1.0  0.7598400000000002  0.24363  0.46959  1.0000
  C   C84       1.0  0.8238100000000002  0.26028  0.4369  1.0000
  C   C85       1.0  0.88532  0.22363000000000002  0.45465  1.0000
  C   C86       1.0  0.8821700000000001  0.17000000000000004  0.50859  1.0000
  C   C87       1.0  0.95279  0.24453  0.41948  1.0000
  C   C88       1.0  0.6798800000000002  0.1056  0.56143  1.0000
  C   C89       1.0  0.6977000000000002  0.28532  0.44772000000000006  1.0000
  C   C90       1.0  0.6359000000000001  0.30053  0.48821  1.0000
  C   C91       1.0  0.6417700000000001  0.3570499999999999  0.36976  1.0000
  C   C92       1.0  0.63081  0.39553000000000005  0.30419  1.0000
  C   C93       1.0  0.57352  0.44573  0.29599  1.0000
  C   C94       1.0  0.56785  0.48419999999999996  0.23269  1.0000
  C   C95       1.0  0.61858  0.47102000000000005  0.1775  1.0000
  C   C96       1.0  0.6732600000000001  0.42001999999999995  0.18935  1.0000
  C   C97       1.0  0.14124999999999993  0.85619  0.67268  1.0000
  C   C98       1.0  0.08662000000000002  0.9085400000000001  0.66632  1.0000
  C   C99       1.0  0.02287999999999996  0.89803  0.70468  1.0000
  C   C100      1.0  0.01683000000000001  0.8367  0.74661  1.0000
  C   C101      1.0  0.07409000000000004  0.78529  0.74894  1.0000
  C   C102      1.0  0.06913000000000001  0.7182200000000001  0.78594  1.0000
  C   C103      1.0  0.03814000000000005  0.6130799999999997  0.85748  1.0000
  C   C104      1.0  0.10242  0.6067399999999998  0.81954  1.0000
  C   C105      1.0  0.15293000000000004  0.54461  0.8193000000000001  1.0000
  C   C106      1.0  0.18879000000000004  0.5234999999999997  0.75773  1.0000
  C   C107      1.0  0.24361000000000013  0.46957999999999994  0.75975  1.0000
  C   C108      1.0  0.26027  0.4369199999999999  0.8237  1.0000
  C   C109      1.0  0.22361  0.4547099999999999  0.8851800000000001  1.0000
  C   C110      1.0  0.16998000000000005  0.5086499999999999  0.88199  1.0000
  C   C111      1.0  0.24450000000000005  0.4196099999999999  0.95266  1.0000
  C   C112      1.0  0.10554000000000004  0.5615799999999999  0.67978  1.0000
  C   C113      1.0  0.28534  0.44769  0.69765  1.0000
  C   C114      1.0  0.30056  0.48816999999999994  0.63586  1.0000
  C   C115      1.0  0.3570900000000002  0.36971  0.6418  1.0000
  C   C116      1.0  0.3955400000000001  0.30413999999999997  0.63084  1.0000
  C   C117      1.0  0.4457  0.29591  0.57352  1.0000
  C   C118      1.0  0.48414  0.23257  0.56785  1.0000
  C   C119      1.0  0.47098  0.17742  0.61863  1.0000
  C   C120      1.0  0.4200400000000001  0.1892999999999999  0.67332  1.0000
  C   C121      1.0  0.85606  0.67273  0.14132  1.0000
  C   C122      1.0  0.9084600000000002  0.66638  0.08674  1.0000
  C   C123      1.0  0.89799  0.70467  0.02299  1.0000
  C   C124      1.0  0.8366400000000003  0.7465899999999998  0.01685  1.0000
  C   C125      1.0  0.7852000000000002  0.749  0.07406  1.0000
  C   C126      1.0  0.71811  0.7860499999999999  0.06911  1.0000
  C   C127      1.0  0.6129000000000002  0.8575399999999999  0.03816  1.0000
  C   C128      1.0  0.6065700000000003  0.81964  0.10243  1.0000
  C   C129      1.0  0.54441  0.8194199999999999  0.15293  1.0000
  C   C130      1.0  0.52338  0.7578199999999997  0.18878  1.0000
  C   C131      1.0  0.46948  0.75981  0.24363  1.0000
  C   C132      1.0  0.43682000000000004  0.82375  0.26034  1.0000
  C   C133      1.0  0.45458  0.88526  0.22373  1.0000
  C   C134      1.0  0.5084800000000003  0.8820899999999999  0.17006  1.0000
  C   C135      1.0  0.41947  0.9527299999999997  0.24462  1.0000
  C   C136      1.0  0.5613400000000001  0.6800099999999999  0.10549  1.0000
  C   C137      1.0  0.4475800000000001  0.69772  0.28537  1.0000
  C   C138      1.0  0.4880700000000001  0.6359499999999999  0.30063  1.0000
  C   C139      1.0  0.36962000000000006  0.6418  0.35713  1.0000
  C   C140      1.0  0.3040400000000001  0.6308399999999997  0.39559  1.0000
  C   C141      1.0  0.29588000000000003  0.57354  0.44576000000000005  1.0000
  C   C142      1.0  0.23253000000000004  0.56781  0.48422  1.0000
  C   C143      1.0  0.17734000000000003  0.61853  0.47103000000000006  1.0000
  C   C144      1.0  0.18917000000000003  0.6732299999999999  0.4200900000000001  1.0000
  C   C145      1.0  0.35585  0.6413999999999999  0.17311  1.0000
  C   C146      1.0  0.40824000000000005  0.58686  0.16648  1.0000
  C   C147      1.0  0.3978700000000001  0.5230299999999999  0.20466  1.0000
  C   C148      1.0  0.33663  0.51675  0.24672  1.0000
  C   C149      1.0  0.28512  0.57389  0.24929999999999997  1.0000
  C   C150      1.0  0.21804000000000004  0.56881  0.28635  1.0000
  C   C151      1.0  0.11285  0.53792  0.35805  1.0000
  C   C152      1.0  0.10664  0.60221  0.32023  1.0000
  C   C153      1.0  0.044580000000000085  0.65278  0.3202  1.0000
  C   C154      1.0  0.023970000000000033  0.68866  0.2585  1.0000
  C   C155      1.0  0.9699000000000001  0.74331  0.26011  1.0000
  C   C156      1.0  0.93698  0.7599999999999999  0.324  1.0000
  C   C157      1.0  0.9545200000000001  0.72352  0.38566  1.0000
  C   C158      1.0  0.008399999999999998  0.66979  0.38278  1.0000
  C   C159      1.0  0.9193200000000001  0.74468  0.45301  1.0000
  C   C160      1.0  0.06165000000000001  0.60552  0.1807  1.0000
  C   C161      1.0  0.9479600000000002  0.7849999999999999  0.19797  1.0000
  C   C162      1.0  0.9883700000000001  0.80007  0.13611  1.0000
  C   C163      1.0  0.86993  0.8567799999999998  0.1421  1.0000
  C   C164      1.0  0.80436  0.8952599999999998  0.13106  1.0000
  C   C165      1.0  0.7962600000000001  0.9454199999999999  0.07371  1.0000
  C   C166      1.0  0.7329600000000001  0.98395  0.0679  1.0000
  C   C167      1.0  0.6777000000000001  0.9708499999999998  0.11858  1.0000
  C   C168      1.0  0.68946  0.9199099999999998  0.1733  1.0000
  C   C169      1.0  0.17314000000000002  0.35581999999999997  0.64139  1.0000
  C   C170      1.0  0.16655  0.40819  0.58683  1.0000
  C   C171      1.0  0.2047500000000001  0.3977999999999999  0.52301  1.0000
  C   C172      1.0  0.2468000000000001  0.3365699999999999  0.51675  1.0000
  C   C173      1.0  0.24933  0.28509  0.57389  1.0000
  C   C174      1.0  0.28635000000000005  0.21801999999999994  0.56882  1.0000
  C   C175      1.0  0.3580100000000001  0.11285999999999997  0.53792  1.0000
  C   C176      1.0  0.32019  0.10665  0.60222  1.0000
  C   C177      1.0  0.3201700000000001  0.04459999999999999  0.65278  1.0000
  C   C178      1.0  0.25844  0.024010000000000007  0.68867  1.0000
  C   C179      1.0  0.26006000000000007  0.9699399999999999  0.74332  1.0000
  C   C180      1.0  0.32397000000000004  0.9370299999999998  0.76001  1.0000
  C   C181      1.0  0.38565000000000005  0.9545599999999997  0.72353  1.0000
  C   C182      1.0  0.38277  0.008430000000000007  0.66979  1.0000
  C   C183      1.0  0.45304  0.91932  0.74465  1.0000
  C   C184      1.0  0.18061  0.06160999999999999  0.60551  1.0000
  C   C185      1.0  0.19791000000000006  0.9480199999999999  0.78501  1.0000
  C   C186      1.0  0.1360300000000001  0.9884299999999999  0.80008  1.0000
  C   C187      1.0  0.14202000000000004  0.87002  0.85678  1.0000
  C   C188      1.0  0.13099000000000002  0.8044599999999996  0.89528  1.0000
  C   C189      1.0  0.07365  0.7963600000000001  0.94547  1.0000
  C   C190      1.0  0.06789000000000006  0.7330799999999996  0.9839999999999999  1.0000
  C   C191      1.0  0.11858999999999999  0.6778400000000001  0.97089  1.0000
  C   C192      1.0  0.17332000000000003  0.6895999999999997  0.91993  1.0000
  C   C193      1.0  0.64138  0.17311  0.3558  1.0000
  C   C194      1.0  0.5868200000000002  0.16653  0.40818  1.0000
  C   C195      1.0  0.5230100000000001  0.20474999999999996  0.39779  1.0000
  C   C196      1.0  0.51676  0.24678999999999998  0.33655  1.0000
  C   C197      1.0  0.57391  0.24931  0.28506  1.0000
  C   C198      1.0  0.56882  0.28634  0.21799999999999997  1.0000
  C   C199      1.0  0.5379100000000001  0.35804  0.11287  1.0000
  C   C200      1.0  0.6022000000000001  0.32017999999999996  0.10662999999999999  1.0000
  C   C201      1.0  0.6527700000000001  0.32016  0.04459  1.0000
  C   C202      1.0  0.6886500000000001  0.2584699999999999  0.02397  1.0000
  C   C203      1.0  0.7433000000000002  0.26011  0.96989  1.0000
  C   C204      1.0  0.7599700000000003  0.32402000000000003  0.93697  1.0000
  C   C205      1.0  0.7235000000000001  0.38566000000000006  0.9545399999999999  1.0000
  C   C206      1.0  0.6697800000000002  0.38274  0.00844  1.0000
  C   C207      1.0  0.7446  0.45306  0.91937  1.0000
  C   C208      1.0  0.60549  0.18064  0.06165000000000001  1.0000
  C   C209      1.0  0.78499  0.19797999999999996  0.94794  1.0000
  C   C210      1.0  0.80006  0.13610999999999998  0.9883300000000002  1.0000
  C   C211      1.0  0.8567700000000001  0.14213999999999996  0.86991  1.0000
  C   C212      1.0  0.89526  0.13111000000000003  0.80436  1.0000
  C   C213      1.0  0.9454300000000002  0.07376000000000002  0.79627  1.0000
  C   C214      1.0  0.9839600000000001  0.06795000000000001  0.73298  1.0000
  C   C215      1.0  0.97085  0.11865  0.67775  1.0000
  C   C216      1.0  0.9199200000000001  0.17337999999999998  0.68949  1.0000
  C   C217      1.0  0.32722000000000007  0.85873  0.1439  1.0000
  C   C218      1.0  0.33357  0.9133399999999999  0.09154  1.0000
  C   C219      1.0  0.29524  0.97709  0.10202  1.0000
  C   C220      1.0  0.25332000000000005  0.9831999999999999  0.16336  1.0000
  C   C221      1.0  0.25097000000000014  0.9259599999999999  0.21477  1.0000
  C   C222      1.0  0.21394999999999997  0.93091  0.28183  1.0000
  C   C223      1.0  0.14244  0.96187  0.38701  1.0000
  C   C224      1.0  0.18032  0.8975799999999999  0.39332  1.0000
  C   C225      1.0  0.18056000000000003  0.8470499999999999  0.45544  1.0000
  C   C226      1.0  0.24216000000000013  0.81119  0.47652999999999995  1.0000
  C   C227      1.0  0.24016000000000004  0.7563699999999999  0.53041  1.0000
  C   C228      1.0  0.17620000000000002  0.7397199999999999  0.5631  1.0000
  C   C229      1.0  0.11467999999999999  0.77636  0.54535  1.0000
  C   C230      1.0  0.11784000000000008  0.8299899999999999  0.49141  1.0000
  C   C231      1.0  0.047209999999999974  0.75547  0.58052  1.0000
  C   C232      1.0  0.32012  0.8944  0.43857  1.0000
  C   C233      1.0  0.30231  0.71468  0.55228  1.0000
  C   C234      1.0  0.36411000000000004  0.69946  0.51179  1.0000
  C   C235      1.0  0.3582400000000001  0.64294  0.63024  1.0000
  C   C236      1.0  0.36919000000000013  0.60447  0.69581  1.0000
  C   C237      1.0  0.42648  0.5542700000000002  0.70401  1.0000
  C   C238      1.0  0.4321600000000001  0.5157899999999999  0.76731  1.0000
  C   C239      1.0  0.3814200000000001  0.5289699999999999  0.8225  1.0000
  C   C240      1.0  0.32675  0.57998  0.81065  1.0000
  C   C241      1.0  0.85875  0.1438  0.32732  1.0000
  C   C242      1.0  0.91338  0.09145999999999997  0.33368  1.0000
  C   C243      1.0  0.97712  0.10196999999999999  0.29532  1.0000
  C   C244      1.0  0.9831700000000001  0.1633  0.25339  1.0000
  C   C245      1.0  0.9259200000000001  0.21470999999999996  0.25106  1.0000
  C   C246      1.0  0.93087  0.28178  0.21406000000000003  1.0000
  C   C247      1.0  0.96186  0.3869199999999998  0.14252  1.0000
  C   C248      1.0  0.89759  0.39325999999999994  0.18046  1.0000
  C   C249      1.0  0.8470700000000001  0.4553899999999999  0.1807  1.0000
  C   C250      1.0  0.8112100000000001  0.4765  0.24227000000000004  1.0000
  C   C251      1.0  0.7564000000000002  0.5304200000000001  0.24025  1.0000
  C   C252      1.0  0.73973  0.56307  0.1763  1.0000
  C   C253      1.0  0.77639  0.54529  0.11482  1.0000
  C   C254      1.0  0.83002  0.49134  0.11801  1.0000
  C   C255      1.0  0.75551  0.58039  0.04734  1.0000
  C   C256      1.0  0.8944600000000001  0.43841999999999987  0.32022  1.0000
  C   C257      1.0  0.7146700000000001  0.55231  0.30235  1.0000
  C   C258      1.0  0.6994500000000002  0.51183  0.36414  1.0000
  C   C259      1.0  0.64291  0.63029  0.3582  1.0000
  C   C260      1.0  0.6044600000000001  0.6958599999999998  0.36916  1.0000
  C   C261      1.0  0.55431  0.70409  0.42647999999999997  1.0000
  C   C262      1.0  0.5158600000000001  0.7674299999999997  0.43215000000000003  1.0000
  C   C263      1.0  0.52902  0.82258  0.38137  1.0000
  C   C264      1.0  0.5799599999999999  0.81069  0.32668  1.0000
  C   C265      1.0  0.14395  0.32727  0.85868  1.0000
  C   C266      1.0  0.09154000000000002  0.3336200000000001  0.91326  1.0000
  C   C267      1.0  0.10201  0.29532  0.97701  1.0000
  C   C268      1.0  0.16336  0.25341  0.9831499999999999  1.0000
  C   C269      1.0  0.21481  0.25100000000000006  0.92594  1.0000
  C   C270      1.0  0.28189  0.21394  0.9308899999999999  1.0000
  C   C271      1.0  0.38710000000000006  0.14245999999999998  0.96184  1.0000
  C   C272      1.0  0.39343  0.18035999999999994  0.89757  1.0000
  C   C273      1.0  0.45559  0.18058  0.84707  1.0000
  C   C274      1.0  0.47663  0.24217000000000002  0.81122  1.0000
  C   C275      1.0  0.5305200000000001  0.24018999999999988  0.75637  1.0000
  C   C276      1.0  0.56319  0.17624999999999993  0.73966  1.0000
  C   C277      1.0  0.54543  0.11474  0.77627  1.0000
  C   C278      1.0  0.49153  0.11791000000000003  0.8299399999999999  1.0000
  C   C279      1.0  0.5805300000000001  0.04727000000000001  0.75538  1.0000
  C   C280      1.0  0.43867000000000006  0.31998999999999994  0.8945100000000001  1.0000
  C   C281      1.0  0.55243  0.30228  0.71463  1.0000
  C   C282      1.0  0.51193  0.36405  0.69937  1.0000
  C   C283      1.0  0.6303900000000002  0.3582  0.64287  1.0000
  C   C284      1.0  0.6959600000000001  0.36916  0.60441  1.0000
  C   C285      1.0  0.70412  0.42646  0.55424  1.0000
  C   C286      1.0  0.7674700000000001  0.43219  0.51578  1.0000
  C   C287      1.0  0.82267  0.38147  0.52897  1.0000
  C   C288      1.0  0.8108300000000002  0.32676000000000005  0.57991  1.0000
  S   S1        1.0  0.80463  0.5035  0.65721  1.0000
  S   S2        1.0  0.05720999999999996  0.14288  0.9195500000000001  1.0000
  S   S3        1.0  0.65725  0.8046499999999999  0.5035  1.0000
  S   S4        1.0  0.91965  0.057129999999999986  0.14287  1.0000
  S   S5        1.0  0.50351  0.65719  0.80463  1.0000
  S   S6        1.0  0.14289000000000004  0.9195399999999998  0.05725  1.0000
  S   S7        1.0  0.8423800000000001  0.99677  0.69551  1.0000
  S   S8        1.0  0.58026  0.35766  0.44270000000000004  1.0000
  S   S9        1.0  0.9968300000000003  0.6956299999999999  0.84236  1.0000
  S   S10       1.0  0.35767999999999994  0.44263  0.58026  1.0000
  S   S11       1.0  0.6954400000000002  0.8424  0.9968  1.0000
  S   S12       1.0  0.4425800000000001  0.5803199999999998  0.35777  1.0000
  S   S13       1.0  0.19537999999999994  0.49649999999999994  0.34279  1.0000
  S   S14       1.0  0.9428000000000001  0.85712  0.08045  1.0000
  S   S15       1.0  0.3427500000000001  0.19535  0.4965  1.0000
  S   S16       1.0  0.08035000000000007  0.94287  0.85713  1.0000
  S   S17       1.0  0.4965000000000001  0.3428099999999999  0.19537  1.0000
  S   S18       1.0  0.8571100000000003  0.08046  0.94275  1.0000
  S   S19       1.0  0.15762000000000004  0.0032300000000000033  0.30449  1.0000
  S   S20       1.0  0.41975000000000007  0.64233  0.5573  1.0000
  S   S21       1.0  0.0031800000000000023  0.30436  0.15764  1.0000
  S   S22       1.0  0.64232  0.5573699999999998  0.41974000000000006  1.0000
  S   S23       1.0  0.30456  0.1576  0.0032  1.0000
  S   S24       1.0  0.55742  0.41968  0.64223  1.0000
  N   N1        1.0  0.70438  0.36355999999999994  0.7874  1.0000
  N   N2        1.0  0.83432  0.38104  0.71927  1.0000
  N   N3        1.0  0.11835000000000001  0.18278999999999995  0.79963  1.0000
  N   N4        1.0  0.24952000000000005  0.11691999999999995  0.8191199999999998  1.0000
  N   N5        1.0  0.7873900000000003  0.70439  0.36357  1.0000
  N   N6        1.0  0.7193000000000002  0.8343199999999998  0.38103  1.0000
  N   N7        1.0  0.7996900000000002  0.11825999999999999  0.18278  1.0000
  N   N8        1.0  0.81916  0.24938  0.11691  1.0000
  N   N9        1.0  0.36355  0.78742  0.70442  1.0000
  N   N10       1.0  0.3810500000000001  0.71933  0.8343499999999999  1.0000
  N   N11       1.0  0.1828100000000001  0.7995899999999998  0.11834  1.0000
  N   N12       1.0  0.11693000000000002  0.8190599999999999  0.2495  1.0000
  N   N13       1.0  0.7122  0.1365  0.79583  1.0000
  N   N14       1.0  0.78035  0.11923000000000003  0.66578  1.0000
  N   N15       1.0  0.7000100000000001  0.31736  0.38141  1.0000
  N   N16       1.0  0.68069  0.3832699999999999  0.2504  1.0000
  N   N17       1.0  0.13654  0.7959099999999999  0.7121  1.0000
  N   N18       1.0  0.11924000000000003  0.6658199999999997  0.78017  1.0000
  N   N19       1.0  0.31738000000000005  0.3813799999999999  0.7  1.0000
  N   N20       1.0  0.38330999999999993  0.25037  0.68074  1.0000
  N   N21       1.0  0.79577  0.71216  0.13652  1.0000
  N   N22       1.0  0.6657000000000002  0.7803099999999998  0.11921999999999999  1.0000
  N   N23       1.0  0.38125000000000003  0.70004  0.31745  1.0000
  N   N24       1.0  0.25025  0.6807  0.38335  1.0000
  N   N25       1.0  0.29563  0.63644  0.2126  1.0000
  N   N26       1.0  0.16568000000000005  0.61896  0.28073  1.0000
  N   N27       1.0  0.8816500000000002  0.81721  0.20037  1.0000
  N   N28       1.0  0.75048  0.88308  0.18088  1.0000
  N   N29       1.0  0.21262000000000003  0.2955999999999999  0.63643  1.0000
  N   N30       1.0  0.28071  0.16567999999999997  0.61897  1.0000
  N   N31       1.0  0.20031000000000013  0.88174  0.81722  1.0000
  N   N32       1.0  0.18085000000000007  0.75061  0.88309  1.0000
  N   N33       1.0  0.63645  0.21257999999999994  0.29558  1.0000
  N   N34       1.0  0.61896  0.28067  0.16565  1.0000
  N   N35       1.0  0.8172000000000001  0.20040999999999995  0.88166  1.0000
  N   N36       1.0  0.88308  0.18094  0.7505  1.0000
  N   N37       1.0  0.2878  0.8634999999999999  0.20417  1.0000
  N   N38       1.0  0.21966000000000002  0.88077  0.33422  1.0000
  N   N39       1.0  0.3000000000000001  0.6826399999999999  0.61859  1.0000
  N   N40       1.0  0.31931000000000004  0.61672  0.7496  1.0000
  N   N41       1.0  0.8634600000000001  0.20408999999999997  0.2879  1.0000
  N   N42       1.0  0.8807600000000001  0.33418  0.21983  1.0000
  N   N43       1.0  0.68262  0.61862  0.3  1.0000
  N   N44       1.0  0.6167  0.74963  0.31926  1.0000
  N   N45       1.0  0.2042300000000001  0.28784  0.86348  1.0000
  N   N46       1.0  0.33430000000000004  0.21968999999999997  0.88078  1.0000
  N   N47       1.0  0.6187500000000002  0.29995999999999995  0.68255  1.0000
  N   N48       1.0  0.7497600000000001  0.31928999999999996  0.61665  1.0000
  O   O1        1.0  0.9428400000000002  0.32547  0.80482  1.0000
  O   O2        1.0  0.8048900000000001  0.94278  0.3255  1.0000
  O   O3        1.0  0.32549000000000006  0.80485  0.94282  1.0000
  O   O4        1.0  0.6939600000000001  0.17492  0.55539  1.0000
  O   O5        1.0  0.17488999999999993  0.55541  0.69389  1.0000
  O   O6        1.0  0.55549  0.69405  0.17483  1.0000
  O   O7        1.0  0.05716000000000001  0.67452  0.19518  1.0000
  O   O8        1.0  0.19511000000000003  0.05721  0.6745  1.0000
  O   O9        1.0  0.67451  0.19515  0.05718  1.0000
  O   O10       1.0  0.3060500000000001  0.8250799999999997  0.44461  1.0000
  O   O11       1.0  0.8251100000000001  0.44459  0.30611  1.0000
  O   O12       1.0  0.4445200000000001  0.30594999999999994  0.8251699999999998  1.0000
