data_image0
_chemical_formula_structural       Ni8H224C288N16O48
_chemical_formula_sum              "Ni8 H224 C288 N16 O48"
_cell_length_a       13.73455
_cell_length_b       23.75441
_cell_length_c       23.75645
_cell_angle_alpha    74.58624
_cell_angle_beta     73.15089000000002
_cell_angle_gamma    73.14941

_space_group_name_H-M_alt    "P 1"
_space_group_IT_number       1

loop_
  _space_group_symop_operation_xyz
  'x, y, z'

loop_
  _atom_site_type_symbol
  _atom_site_label
  _atom_site_symmetry_multiplicity
  _atom_site_fract_x
  _atom_site_fract_y
  _atom_site_fract_z
  _atom_site_occupancy
  Ni  Ni1       1.0  0.9308800000000004  0.24569  0.65551  1.0000
  Ni  Ni2       1.0  0.8019200000000002  0.06093  0.33066  1.0000
  Ni  Ni3       1.0  0.6684800000000002  0.7457200000000002  0.15534  1.0000
  Ni  Ni4       1.0  0.3072700000000001  0.56071  0.83095  1.0000
  Ni  Ni5       1.0  0.16847999999999996  0.65535  0.24572  1.0000
  Ni  Ni6       1.0  0.8072700000000003  0.33095  0.060700000000000004  1.0000
  Ni  Ni7       1.0  0.43088000000000004  0.15552  0.74568  1.0000
  Ni  Ni8       1.0  0.30189  0.83067  0.56094  1.0000
  H   H1        1.0  0.7677600000000001  0.08346000000000002  0.74396  1.0000
  H   H2        1.0  0.6300300000000003  0.8840500000000001  0.04703  1.0000
  H   H3        1.0  0.028300000000000006  0.046919999999999996  0.33739  1.0000
  H   H4        1.0  0.57421  0.05312999999999999  0.3448  1.0000
  H   H5        1.0  0.87378  0.17964  0.8395000000000001  1.0000
  H   H6        1.0  0.8908099999999999  0.16414000000000004  0.94348  1.0000
  H   H7        1.0  0.8593300000000003  0.11028999999999999  0.04936  1.0000
  H   H8        1.0  0.7728800000000002  0.02444  0.07955  1.0000
  H   H9        1.0  0.7163199999999998  0.9934200000000001  0.00551  1.0000
  H   H10       1.0  0.6776100000000003  0.98652  0.85757  1.0000
  H   H11       1.0  0.6246500000000001  0.9933300000000002  0.93259  1.0000
  H   H12       1.0  0.9367800000000003  0.76867  0.97544  1.0000
  H   H13       1.0  0.06281  0.77404  0.8787  1.0000
  H   H14       1.0  0.12200999999999992  0.82826  0.77499  1.0000
  H   H15       1.0  0.01888000000000001  0.93049  0.73902  1.0000
  H   H16       1.0  0.8568800000000002  0.9763700000000001  0.80321  1.0000
  H   H17       1.0  0.9671800000000002  0.23290999999999998  0.36185000000000006  1.0000
  H   H18       1.0  0.06865000000000003  0.2909  0.3827  1.0000
  H   H19       1.0  0.23690000000000003  0.30015  0.39604  1.0000
  H   H20       1.0  0.39242  0.21516  0.38605  1.0000
  H   H21       1.0  0.3827400000000001  0.12102999999999997  0.36627000000000004  1.0000
  H   H22       1.0  0.33339000000000013  0.03364  0.39033  1.0000
  H   H23       1.0  0.26898000000000005  0.0008400000000000013  0.35791  1.0000
  H   H24       1.0  0.63878  0.02395  0.16068  1.0000
  H   H25       1.0  0.5351400000000002  0.007449999999999996  0.10068000000000002  1.0000
  H   H26       1.0  0.36483000000000004  0.0007999999999999993  0.08871  1.0000
  H   H27       1.0  0.20719  0.013860000000000008  0.17219  1.0000
  H   H28       1.0  0.21804000000000012  0.03051  0.26771  1.0000
  H   H29       1.0  0.03689  0.40162000000000003  0.8243200000000002  1.0000
  H   H30       1.0  0.9341400000000002  0.3682599999999999  0.8683800000000002  1.0000
  H   H31       1.0  0.9667900000000003  0.36581  0.65389  1.0000
  H   H32       1.0  0.9847300000000001  0.41392  0.73011  1.0000
  H   H33       1.0  0.058640000000000025  0.23653999999999994  0.8383  1.0000
  H   H34       1.0  0.03490999999999996  0.1964  0.75924  1.0000
  H   H35       1.0  0.06723000000000001  0.27431999999999995  0.904  1.0000
  H   H36       1.0  0.06591999999999995  0.33876  0.9258500000000001  1.0000
  H   H37       1.0  0.22222000000000003  0.29809  0.81362  1.0000
  H   H38       1.0  0.24826000000000012  0.27719  0.88605  1.0000
  H   H39       1.0  0.3508500000000002  0.47748  0.74697  1.0000
  H   H40       1.0  0.29715  0.38300999999999996  0.7524000000000001  1.0000
  H   H41       1.0  0.1767  0.3758  0.94264  1.0000
  H   H42       1.0  0.22409000000000018  0.47145  0.92888  1.0000
  H   H43       1.0  0.05721999999999999  0.13149  0.71213  1.0000
  H   H44       1.0  0.24157000000000003  0.07583  0.68457  1.0000
  H   H45       1.0  0.24658000000000005  0.17129  0.5016  1.0000
  H   H46       1.0  0.0696  0.23052  0.53869  1.0000
  H   H47       1.0  0.41318  0.11769  0.58677  1.0000
  H   H48       1.0  0.4003399999999999  0.09943  0.5225  1.0000
  H   H49       1.0  0.3969499999999999  0.99589  0.57433  1.0000
  H   H50       1.0  0.37403  0.013050000000000003  0.64547  1.0000
  H   H51       1.0  0.5455200000000002  0.03482999999999999  0.62351  1.0000
  H   H52       1.0  0.5583099999999999  0.9615200000000002  0.6137  1.0000
  H   H53       1.0  0.68865  0.97269  0.40172  1.0000
  H   H54       1.0  0.5837500000000004  0.9462800000000001  0.50484  1.0000
  H   H55       1.0  0.6248700000000003  0.10584999999999999  0.54107  1.0000
  H   H56       1.0  0.7306500000000004  0.12558  0.43502  1.0000
  H   H57       1.0  0.9070000000000004  0.5839  0.24443  1.0000
  H   H58       1.0  0.9404  0.38377000000000006  0.54677  1.0000
  H   H59       1.0  0.08691999999999998  0.54631  0.8379500000000001  1.0000
  H   H60       1.0  0.5290400000000003  0.55154  0.84554  1.0000
  H   H61       1.0  0.60697  0.67938  0.33913  1.0000
  H   H62       1.0  0.50106  0.6643000000000001  0.44316  1.0000
  H   H63       1.0  0.48069000000000023  0.6112599999999999  0.54932  1.0000
  H   H64       1.0  0.6231300000000004  0.52562  0.57975  1.0000
  H   H65       1.0  0.78469  0.49387  0.50567  1.0000
  H   H66       1.0  0.9783400000000001  0.48652  0.35775  1.0000
  H   H67       1.0  0.94963  0.4933  0.43274  1.0000
  H   H68       1.0  0.8189400000000003  0.26882  0.47582  1.0000
  H   H69       1.0  0.7831200000000003  0.27462  0.37926000000000004  1.0000
  H   H70       1.0  0.77368  0.32881  0.27556  1.0000
  H   H71       1.0  0.8111400000000002  0.43087  0.23944000000000001  1.0000
  H   H72       1.0  0.8626700000000002  0.47671  0.30372  1.0000
  H   H73       1.0  0.9369300000000003  0.73208  0.86296  1.0000
  H   H74       1.0  0.7570500000000003  0.79044  0.88275  1.0000
  H   H75       1.0  0.5660500000000004  0.7999700000000001  0.89605  1.0000
  H   H76       1.0  0.5053500000000001  0.71527  0.88586  1.0000
  H   H77       1.0  0.62905  0.6210599999999998  0.8658100000000001  1.0000
  H   H78       1.0  0.7420000000000001  0.53332  0.89019  1.0000
  H   H79       1.0  0.8720300000000001  0.50034  0.8585  1.0000
  H   H80       1.0  0.6771699999999999  0.52421  0.66049  1.0000
  H   H81       1.0  0.8578400000000003  0.50721  0.60057  1.0000
  H   H82       1.0  0.04683000000000006  0.50055  0.58867  1.0000
  H   H83       1.0  0.10751000000000006  0.51401  0.67206  1.0000
  H   H84       1.0  0.9839900000000001  0.53053  0.76762  1.0000
  H   H85       1.0  0.23734999999999998  0.90149  0.32492  1.0000
  H   H86       1.0  0.32936000000000004  0.86771  0.36895000000000006  1.0000
  H   H87       1.0  0.5134400000000002  0.86593  0.15414  1.0000
  H   H88       1.0  0.37121  0.91386  0.23067  1.0000
  H   H89       1.0  0.36644000000000004  0.7363399999999999  0.33835  1.0000
  H   H90       1.0  0.50927  0.69632  0.25901  1.0000
  H   H91       1.0  0.25429  0.77407  0.40439  1.0000
  H   H92       1.0  0.16935999999999993  0.8385300000000001  0.4263  1.0000
  H   H93       1.0  0.16580999999999993  0.7979300000000001  0.31415  1.0000
  H   H94       1.0  0.08821  0.7771300000000001  0.38667  1.0000
  H   H95       1.0  0.9251200000000004  0.97724  0.24711  1.0000
  H   H96       1.0  0.0674500000000001  0.88244  0.2529  1.0000
  H   H97       1.0  0.004039999999999971  0.8757699999999999  0.44315000000000004  1.0000
  H   H98       1.0  0.8754600000000003  0.9718900000000001  0.42884  1.0000
  H   H99       1.0  0.5991299999999999  0.63175  0.21176  1.0000
  H   H100      1.0  0.49822000000000016  0.57615  0.18412  1.0000
  H   H101      1.0  0.5816900000000003  0.67141  0.00113  1.0000
  H   H102      1.0  0.6618799999999999  0.73068  0.03835  1.0000
  H   H103      1.0  0.38316000000000006  0.6176  0.08631  1.0000
  H   H104      1.0  0.47878000000000004  0.59954  0.02202  1.0000
  H   H105      1.0  0.5344600000000002  0.49601000000000006  0.07359  1.0000
  H   H106      1.0  0.46957000000000015  0.513  0.14487  1.0000
  H   H107      1.0  0.2977  0.53456  0.12354000000000001  1.0000
  H   H108      1.0  0.36838000000000004  0.46132  0.11361  1.0000
  H   H109      1.0  0.4365000000000001  0.47166  0.90219  1.0000
  H   H110      1.0  0.4657800000000001  0.44575000000000004  0.005  1.0000
  H   H111      1.0  0.2297500000000001  0.60573  0.04115  1.0000
  H   H112      1.0  0.20906  0.62512  0.93536  1.0000
  H   H113      1.0  0.40698000000000006  0.74444  0.0839  1.0000
  H   H114      1.0  0.44040000000000007  0.04678000000000002  0.88376  1.0000
  H   H115      1.0  0.5869200000000002  0.33795  0.04631  1.0000
  H   H116      1.0  0.029030000000000018  0.34555  0.05153  1.0000
  H   H117      1.0  0.10697000000000008  0.83916  0.17938  1.0000
  H   H118      1.0  0.0010799999999999749  0.94321  0.1643  1.0000
  H   H119      1.0  0.9807100000000002  0.04937  0.11126  1.0000
  H   H120      1.0  0.12312000000000001  0.07978  0.025599999999999998  1.0000
  H   H121      1.0  0.28464999999999996  0.005699999999999997  0.9938500000000001  1.0000
  H   H122      1.0  0.4783100000000001  0.85776  0.9865100000000001  1.0000
  H   H123      1.0  0.44960000000000006  0.93276  0.99328  1.0000
  H   H124      1.0  0.31897  0.9758000000000001  0.76881  1.0000
  H   H125      1.0  0.28316000000000013  0.8792399999999999  0.7746200000000001  1.0000
  H   H126      1.0  0.27369  0.77553  0.82884  1.0000
  H   H127      1.0  0.31111  0.73942  0.93089  1.0000
  H   H128      1.0  0.3626199999999998  0.8037200000000001  0.97672  1.0000
  H   H129      1.0  0.43692999999999993  0.36296  0.23206  1.0000
  H   H130      1.0  0.25705000000000006  0.38275000000000003  0.29042  1.0000
  H   H131      1.0  0.06605999999999998  0.39604  0.29994  1.0000
  H   H132      1.0  0.005359999999999972  0.38585  0.21525  1.0000
  H   H133      1.0  0.12904999999999997  0.3658100000000001  0.12105  1.0000
  H   H134      1.0  0.24200000000000002  0.39021  0.03332  1.0000
  H   H135      1.0  0.37203  0.35851  0.00034  1.0000
  H   H136      1.0  0.17718  0.16048  0.024200000000000003  1.0000
  H   H137      1.0  0.35784  0.10056000000000001  0.00719  1.0000
  H   H138      1.0  0.54683  0.08866  0.00052  1.0000
  H   H139      1.0  0.6075200000000001  0.17206  0.01398  1.0000
  H   H140      1.0  0.484  0.26762  0.03051  1.0000
  H   H141      1.0  0.7373400000000004  0.82492  0.40149000000000007  1.0000
  H   H142      1.0  0.8293400000000001  0.86897  0.3677000000000001  1.0000
  H   H143      1.0  0.013440000000000075  0.6541399999999999  0.36592  1.0000
  H   H144      1.0  0.8712100000000003  0.73067  0.41384  1.0000
  H   H145      1.0  0.8664300000000004  0.8383800000000001  0.23635  1.0000
  H   H146      1.0  0.009269999999999994  0.7590300000000001  0.19633  1.0000
  H   H147      1.0  0.7542300000000002  0.90441  0.27408  1.0000
  H   H148      1.0  0.66932  0.92632  0.33854  1.0000
  H   H149      1.0  0.6657600000000001  0.8141600000000001  0.29795  1.0000
  H   H150      1.0  0.5881400000000001  0.88668  0.27716  1.0000
  H   H151      1.0  0.42513000000000023  0.74709  0.47724  1.0000
  H   H152      1.0  0.56744  0.7529000000000001  0.38243999999999995  1.0000
  H   H153      1.0  0.5040100000000002  0.9431600000000001  0.3758000000000001  1.0000
  H   H154      1.0  0.37546999999999986  0.92883  0.47192  1.0000
  H   H155      1.0  0.09912000000000001  0.71178  0.13177  1.0000
  H   H156      1.0  0.99822  0.68414  0.07616  1.0000
  H   H157      1.0  0.08172  0.50112  0.1714  1.0000
  H   H158      1.0  0.1619000000000001  0.5383399999999999  0.23067  1.0000
  H   H159      1.0  0.8831699999999999  0.58633  0.11759  1.0000
  H   H160      1.0  0.97878  0.52202  0.09953000000000001  1.0000
  H   H161      1.0  0.03449000000000002  0.5736  0.99603  1.0000
  H   H162      1.0  0.9696000000000002  0.64488  0.013  1.0000
  H   H163      1.0  0.7977200000000001  0.62358  0.03455  1.0000
  H   H164      1.0  0.8684200000000004  0.6136399999999999  0.96132  1.0000
  H   H165      1.0  0.93648  0.4022000000000001  0.97165  1.0000
  H   H166      1.0  0.96578  0.50501  0.94575  1.0000
  H   H167      1.0  0.7297800000000001  0.54118  0.10571  1.0000
  H   H168      1.0  0.7090700000000002  0.43538000000000004  0.1251  1.0000
  H   H169      1.0  0.26776000000000005  0.24397000000000005  0.58346  1.0000
  H   H170      1.0  0.13005999999999998  0.54705  0.38405  1.0000
  H   H171      1.0  0.5282800000000004  0.8374100000000001  0.54691  1.0000
  H   H172      1.0  0.07415999999999995  0.84482  0.55313  1.0000
  H   H173      1.0  0.37375  0.33953000000000005  0.67963  1.0000
  H   H174      1.0  0.39074999999999993  0.4435299999999999  0.66413  1.0000
  H   H175      1.0  0.35928000000000015  0.54942  0.61029  1.0000
  H   H176      1.0  0.27289  0.5796  0.52442  1.0000
  H   H177      1.0  0.21634999999999996  0.50554  0.4934  1.0000
  H   H178      1.0  0.17764000000000005  0.35758000000000006  0.48651  1.0000
  H   H179      1.0  0.1246799999999999  0.43261  0.4933100000000001  1.0000
  H   H180      1.0  0.43678000000000006  0.47542  0.26867  1.0000
  H   H181      1.0  0.5628  0.37866000000000005  0.27405  1.0000
  H   H182      1.0  0.6220200000000002  0.27494  0.32829  1.0000
  H   H183      1.0  0.5189099999999998  0.23899000000000004  0.43051000000000006  1.0000
  H   H184      1.0  0.35693000000000025  0.30321  0.47639  1.0000
  H   H185      1.0  0.46717999999999993  0.86189  0.73288  1.0000
  H   H186      1.0  0.5686699999999999  0.88268  0.79087  1.0000
  H   H187      1.0  0.7369199999999999  0.8960400000000001  0.80011  1.0000
  H   H188      1.0  0.89243  0.88605  0.71514  1.0000
  H   H189      1.0  0.8827300000000001  0.86628  0.62102  1.0000
  H   H190      1.0  0.8333600000000003  0.8903300000000001  0.53364  1.0000
  H   H191      1.0  0.7689500000000001  0.85791  0.50084  1.0000
  H   H192      1.0  0.13878000000000004  0.66067  0.52394  1.0000
  H   H193      1.0  0.03513999999999992  0.6006600000000002  0.50743  1.0000
  H   H194      1.0  0.8648299999999999  0.5886900000000002  0.50078  1.0000
  H   H195      1.0  0.7071900000000005  0.67219  0.51383  1.0000
  H   H196      1.0  0.7180300000000001  0.76771  0.53049  1.0000
  H   H197      1.0  0.5369000000000002  0.32433  0.90161  1.0000
  H   H198      1.0  0.43415000000000004  0.36841000000000007  0.86825  1.0000
  H   H199      1.0  0.46680000000000005  0.15388999999999997  0.8658  1.0000
  H   H200      1.0  0.48476  0.23012  0.9139000000000002  1.0000
  H   H201      1.0  0.5586200000000003  0.33832999999999996  0.7365500000000001  1.0000
  H   H202      1.0  0.53489  0.25926  0.6964  1.0000
  H   H203      1.0  0.5672600000000002  0.40402000000000005  0.7743299999999999  1.0000
  H   H204      1.0  0.5659199999999999  0.42588000000000004  0.83876  1.0000
  H   H205      1.0  0.7222300000000001  0.31363  0.7981000000000001  1.0000
  H   H206      1.0  0.74828  0.38607  0.7772100000000001  1.0000
  H   H207      1.0  0.85086  0.24695999999999999  0.97748  1.0000
  H   H208      1.0  0.7971700000000005  0.25240000000000007  0.88302  1.0000
  H   H209      1.0  0.6766700000000001  0.44266  0.8758300000000001  1.0000
  H   H210      1.0  0.7240599999999999  0.42889  0.97147  1.0000
  H   H211      1.0  0.5571900000000004  0.21215  0.6315  1.0000
  H   H212      1.0  0.7415300000000002  0.18459  0.57584  1.0000
  H   H213      1.0  0.7465800000000001  0.001590000000000006  0.67128  1.0000
  H   H214      1.0  0.5696  0.03868000000000001  0.73051  1.0000
  H   H215      1.0  0.9131600000000002  0.08678999999999999  0.61768  1.0000
  H   H216      1.0  0.90033  0.022500000000000003  0.59943  1.0000
  H   H217      1.0  0.8969100000000004  0.07434  0.4959  1.0000
  H   H218      1.0  0.8739900000000004  0.14547999999999997  0.51306  1.0000
  H   H219      1.0  0.04549000000000004  0.12352  0.53481  1.0000
  H   H220      1.0  0.05827  0.11371  0.46151000000000003  1.0000
  H   H221      1.0  0.18865999999999997  0.90171  0.47269  1.0000
  H   H222      1.0  0.08375000000000003  0.0048499999999999975  0.44626  1.0000
  H   H223      1.0  0.12483999999999996  0.04109  0.60583  1.0000
  H   H224      1.0  0.23062999999999995  0.9350200000000001  0.62557  1.0000
  C   C1        1.0  0.83113  0.15627  0.7453700000000001  1.0000
  C   C2        1.0  0.7601800000000002  0.79959  0.05594  1.0000
  C   C3        1.0  0.83603  0.14216999999999996  0.85301  1.0000
  C   C4        1.0  0.8073700000000005  0.1255  0.8096  1.0000
  C   C5        1.0  0.7613599999999998  0.07472999999999996  0.8262600000000001  1.0000
  C   C6        1.0  0.7442000000000001  0.042009999999999985  0.88509  1.0000
  C   C7        1.0  0.7712799999999999  0.06056000000000004  0.92987  1.0000
  C   C8        1.0  0.81955  0.11086999999999998  0.91322  1.0000
  C   C9        1.0  0.8513400000000002  0.12733000000000003  0.9573199999999998  1.0000
  C   C10       1.0  0.83459  0.09709000000000001  0.0162  1.0000
  C   C11       1.0  0.7852400000000002  0.04845  0.03305  1.0000
  C   C12       1.0  0.7544100000000006  0.030709999999999966  0.99127  1.0000
  C   C13       1.0  0.6983600000000002  0.98766  0.89847  1.0000
  C   C14       1.0  0.8906399999999998  0.8127000000000001  0.9594800000000001  1.0000
  C   C15       1.0  0.7967400000000001  0.83564  0.99652  1.0000
  C   C16       1.0  0.7350700000000003  0.8936000000000001  0.9753600000000001  1.0000
  C   C17       1.0  0.7683000000000002  0.9274200000000001  0.91873  1.0000
  C   C18       1.0  0.8641600000000003  0.90282  0.88044  1.0000
  C   C19       1.0  0.9257700000000003  0.8445100000000001  0.90124  1.0000
  C   C20       1.0  0.018969999999999994  0.81874  0.86249  1.0000
  C   C21       1.0  0.05169000000000007  0.84873  0.8047599999999999  1.0000
  C   C22       1.0  0.9926700000000005  0.90645  0.78445  1.0000
  C   C23       1.0  0.9016199999999998  0.93282  0.82091  1.0000
  C   C24       1.0  0.91942  0.1377  0.34761  1.0000
  C   C25       1.0  0.6853200000000002  0.04088  0.25471  1.0000
  C   C26       1.0  0.03447000000000001  0.19492999999999994  0.35979000000000005  1.0000
  C   C27       1.0  0.023979999999999998  0.14172  0.35125  1.0000
  C   C28       1.0  0.11264999999999997  0.09123  0.34905  1.0000
  C   C29       1.0  0.21014000000000008  0.09524  0.35236  1.0000
  C   C30       1.0  0.21919999999999992  0.15026  0.36222000000000004  1.0000
  C   C31       1.0  0.12984  0.20032000000000003  0.36671  1.0000
  C   C32       1.0  0.13775  0.25403  0.37916  1.0000
  C   C33       1.0  0.23057  0.25916  0.38653  1.0000
  C   C34       1.0  0.31893000000000005  0.21051000000000003  0.38115  1.0000
  C   C35       1.0  0.31361000000000006  0.15757  0.36959000000000003  1.0000
  C   C36       1.0  0.3012500000000001  0.039959999999999996  0.35124  1.0000
  C   C37       1.0  0.5704900000000003  0.027520000000000006  0.19797  1.0000
  C   C38       1.0  0.58058  0.03667999999999999  0.25095  1.0000
  C   C39       1.0  0.4905300000000002  0.04082999999999999  0.30056  1.0000
  C   C40       1.0  0.39268  0.03846000000000001  0.29605  1.0000
  C   C41       1.0  0.3835  0.02973  0.24055  1.0000
  C   C42       1.0  0.4741  0.023189999999999995  0.19142  1.0000
  C   C43       1.0  0.4655500000000001  0.012439999999999996  0.13712  1.0000
  C   C44       1.0  0.3712500000000002  0.008960000000000003  0.13027  1.0000
  C   C45       1.0  0.2815900000000001  0.016429999999999997  0.17789  1.0000
  C   C46       1.0  0.2876200000000001  0.02616  0.23157  1.0000
  C   C47       1.0  0.016209999999999995  0.35790000000000005  0.84324  1.0000
  C   C48       1.0  0.9856800000000001  0.33891  0.69575  1.0000
  C   C49       1.0  0.9959  0.3654  0.73873  1.0000
  C   C50       1.0  0.018269999999999946  0.32976  0.7928500000000002  1.0000
  C   C51       1.0  0.036969999999999975  0.26752  0.7987  1.0000
  C   C52       1.0  0.024480000000000026  0.24434999999999998  0.75413  1.0000
  C   C53       1.0  0.08503000000000001  0.31875  0.8862  1.0000
  C   C54       1.0  0.20262000000000013  0.31228  0.8567700000000001  1.0000
  C   C55       1.0  0.31062  0.45336  0.78892  1.0000
  C   C56       1.0  0.28213  0.40044  0.79282  1.0000
  C   C57       1.0  0.23434  0.3700899999999999  0.84836  1.0000
  C   C58       1.0  0.21432  0.39637  0.89808  1.0000
  C   C59       1.0  0.24148000000000006  0.44990999999999987  0.89099  1.0000
  C   C60       1.0  0.10302  0.13970000000000002  0.66626  1.0000
  C   C61       1.0  0.20469000000000007  0.10705000000000003  0.64989  1.0000
  C   C62       1.0  0.26071999999999995  0.11807000000000001  0.59001  1.0000
  C   C63       1.0  0.20848000000000003  0.1609  0.54896  1.0000
  C   C64       1.0  0.10847999999999998  0.19408999999999998  0.5691  1.0000
  C   C65       1.0  0.3754200000000002  0.09101  0.57167  1.0000
  C   C66       1.0  0.41400000000000003  0.02444  0.59814  1.0000
  C   C67       1.0  0.53207  0.00941000000000001  0.59526  1.0000
  C   C68       1.0  0.67246  0.000929999999999998  0.43411  1.0000
  C   C69       1.0  0.61337  0.9868700000000001  0.49174  1.0000
  C   C70       1.0  0.5954100000000002  0.02400000000000001  0.53253  1.0000
  C   C71       1.0  0.6370999999999999  0.07511999999999999  0.51157  1.0000
  C   C72       1.0  0.69599  0.08670000000000001  0.45301  1.0000
  C   C73       1.0  0.7673800000000001  0.6561  0.24545  1.0000
  C   C74       1.0  0.88539  0.29948  0.55584  1.0000
  C   C75       1.0  0.6687100000000002  0.64203  0.3529  1.0000
  C   C76       1.0  0.7579000000000004  0.62543  0.30966  1.0000
  C   C77       1.0  0.8383800000000002  0.5748999999999999  0.32649  1.0000
  C   C78       1.0  0.8288499999999995  0.54213  0.38529  1.0000
  C   C79       1.0  0.73816  0.56074  0.42995  1.0000
  C   C80       1.0  0.65612  0.61097  0.41317000000000004  1.0000
  C   C81       1.0  0.5636000000000002  0.62764  0.45717  1.0000
  C   C82       1.0  0.5518200000000002  0.59782  0.51617  1.0000
  C   C83       1.0  0.6331000000000001  0.54926  0.53314  1.0000
  C   C84       1.0  0.7234500000000004  0.53115  0.49141  1.0000
  C   C85       1.0  0.9155600000000007  0.4876999999999999  0.39870000000000005  1.0000
  C   C86       1.0  0.83708  0.31282  0.45972  1.0000
  C   C87       1.0  0.87159  0.33562  0.49656  1.0000
  C   C88       1.0  0.8962799999999999  0.3936  0.47546000000000005  1.0000
  C   C89       1.0  0.8854500000000002  0.42754  0.41896  1.0000
  C   C90       1.0  0.8519999999999999  0.40308000000000005  0.38083000000000006  1.0000
  C   C91       1.0  0.8277900000000004  0.34482  0.40163000000000004  1.0000
  C   C92       1.0  0.7986900000000003  0.31924  0.36298  1.0000
  C   C93       1.0  0.7938400000000001  0.34925  0.30526  1.0000
  C   C94       1.0  0.8156100000000002  0.4069  0.28492  1.0000
  C   C95       1.0  0.84385  0.43317  0.32138  1.0000
  C   C96       1.0  0.09441999999999996  0.6366  0.84948  1.0000
  C   C97       1.0  0.5198599999999999  0.54074  0.7547  1.0000
  C   C98       1.0  0.9099699999999997  0.69423  0.8604100000000001  1.0000
  C   C99       1.0  0.98237  0.6409900000000001  0.85201  1.0000
  C   C100      1.0  0.9465200000000003  0.59082  0.84909  1.0000
  C   C101      1.0  0.8416799999999999  0.5948699999999999  0.8523300000000001  1.0000
  C   C102      1.0  0.7674900000000001  0.64992  0.8621500000000001  1.0000
  C   C103      1.0  0.8023300000000003  0.69987  0.86676  1.0000
  C   C104      1.0  0.7282899999999998  0.7536500000000002  0.87917  1.0000
  C   C105      1.0  0.6228999999999998  0.7589600000000001  0.8865  1.0000
  C   C106      1.0  0.5884699999999999  0.7104300000000001  0.88102  1.0000
  C   C107      1.0  0.6583000000000004  0.65745  0.8693799999999999  1.0000
  C   C108      1.0  0.8074500000000003  0.53946  0.8513500000000002  1.0000
  C   C109      1.0  0.70482  0.5273  0.69786  1.0000
  C   C110      1.0  0.6326399999999998  0.53615  0.7509700000000001  1.0000
  C   C111      1.0  0.6690100000000004  0.53981  0.80065  1.0000
  C   C112      1.0  0.7735400000000001  0.53777  0.79606  1.0000
  C   C113      1.0  0.8469299999999996  0.5293799999999999  0.7404500000000002  1.0000
  C   C114      1.0  0.8121100000000004  0.52296  0.69129  1.0000
  C   C115      1.0  0.8858800000000001  0.5123  0.63697  1.0000
  C   C116      1.0  0.9905100000000003  0.50882  0.63018  1.0000
  C   C117      1.0  0.024889999999999985  0.51641  0.67777  1.0000
  C   C118      1.0  0.9552600000000001  0.52605  0.73145  1.0000
  C   C119      1.0  0.28269000000000005  0.85764  0.34372  1.0000
  C   C120      1.0  0.4796299999999999  0.8389500000000001  0.19598  1.0000
  C   C121      1.0  0.39997999999999995  0.86534  0.23914000000000002  1.0000
  C   C122      1.0  0.35913  0.8296  0.2932  1.0000
  C   C123      1.0  0.3968  0.76737  0.29881  1.0000
  C   C124      1.0  0.4769600000000001  0.74429  0.25407  1.0000
  C   C125      1.0  0.2099099999999999  0.8185400000000002  0.38663  1.0000
  C   C126      1.0  0.12814999999999993  0.8121300000000001  0.3573  1.0000
  C   C127      1.0  0.9474200000000002  0.95321  0.2891  1.0000
  C   C128      1.0  0.02466999999999996  0.9001300000000001  0.29321  1.0000
  C   C129      1.0  0.04705000000000005  0.86995  0.34884  1.0000
  C   C130      1.0  0.99086  0.8963700000000001  0.39849  1.0000
  C   C131      1.0  0.9176000000000001  0.95008  0.39113000000000003  1.0000
  C   C132      1.0  0.5912000000000002  0.63995  0.16588  1.0000
  C   C133      1.0  0.5386800000000002  0.60733  0.14946  1.0000
  C   C134      1.0  0.53188  0.61829  0.08955  1.0000
  C   C135      1.0  0.5825000000000002  0.66108  0.04852000000000001  1.0000
  C   C136      1.0  0.62895  0.69427  0.06873  1.0000
  C   C137      1.0  0.4629300000000002  0.59107  0.07119  1.0000
  C   C138      1.0  0.46502000000000016  0.52443  0.09764  1.0000
  C   C139      1.0  0.3648100000000001  0.50922  0.09516  1.0000
  C   C140      1.0  0.39263  0.50021  0.93442  1.0000
  C   C141      1.0  0.40861  0.4863300000000001  0.9919  1.0000
  C   C142      1.0  0.34909000000000023  0.52367  0.03259  1.0000
  C   C143      1.0  0.27721000000000007  0.57482  0.0117  1.0000
  C   C144      1.0  0.26483999999999996  0.58627  0.9532700000000001  1.0000
  C   C145      1.0  0.26735000000000003  0.7454599999999999  0.15609  1.0000
  C   C146      1.0  0.38539  0.05584999999999998  0.7994700000000001  1.0000
  C   C147      1.0  0.16870000000000004  0.85293  0.14202  1.0000
  C   C148      1.0  0.25788  0.80968  0.12542  1.0000
  C   C149      1.0  0.33836000000000005  0.8265  0.07489  1.0000
  C   C150      1.0  0.32883000000000023  0.88531  0.04211  1.0000
  C   C151      1.0  0.23813999999999996  0.92998  0.060730000000000006  1.0000
  C   C152      1.0  0.15611000000000005  0.9132  0.11096000000000002  1.0000
  C   C153      1.0  0.06360999999999986  0.9572100000000001  0.12763  1.0000
  C   C154      1.0  0.05183  0.016209999999999992  0.09781000000000001  1.0000
  C   C155      1.0  0.13309000000000004  0.03318  0.049240000000000006  1.0000
  C   C156      1.0  0.22343  0.99144  0.031130000000000005  1.0000
  C   C157      1.0  0.4155400000000005  0.89872  0.98769  1.0000
  C   C158      1.0  0.33708999999999995  0.95971  0.81281  1.0000
  C   C159      1.0  0.3715800000000001  0.99656  0.83561  1.0000
  C   C160      1.0  0.39626  0.9754600000000001  0.8936  1.0000
  C   C161      1.0  0.3854300000000001  0.9189599999999999  0.9275300000000001  1.0000
  C   C162      1.0  0.35197999999999985  0.88083  0.90308  1.0000
  C   C163      1.0  0.3278  0.90162  0.8448100000000001  1.0000
  C   C164      1.0  0.29872000000000004  0.8629600000000002  0.8192399999999999  1.0000
  C   C165      1.0  0.29385000000000006  0.80524  0.8492600000000001  1.0000
  C   C166      1.0  0.3156  0.7849  0.90692  1.0000
  C   C167      1.0  0.34382000000000007  0.8213800000000002  0.93318  1.0000
  C   C168      1.0  0.59441  0.34949  0.1366  1.0000
  C   C169      1.0  0.019860000000000006  0.2547  0.04073  1.0000
  C   C170      1.0  0.40996  0.36041000000000006  0.19422  1.0000
  C   C171      1.0  0.48237000000000013  0.35201999999999994  0.14098  1.0000
  C   C172      1.0  0.44652  0.3491  0.09082  1.0000
  C   C173      1.0  0.34168  0.35233000000000003  0.09487000000000001  1.0000
  C   C174      1.0  0.26749  0.36215  0.14991  1.0000
  C   C175      1.0  0.30233  0.36676000000000003  0.19985  1.0000
  C   C176      1.0  0.22829  0.37917  0.25363  1.0000
  C   C177      1.0  0.12290000000000008  0.38649  0.25894  1.0000
  C   C178      1.0  0.08847000000000009  0.3810199999999999  0.21042  1.0000
  C   C179      1.0  0.1583  0.36938  0.15744  1.0000
  C   C180      1.0  0.30745  0.35136  0.03946  1.0000
  C   C181      1.0  0.20482  0.19786  0.02729  1.0000
  C   C182      1.0  0.13264000000000004  0.25097  0.03614  1.0000
  C   C183      1.0  0.169  0.30066  0.0398  1.0000
  C   C184      1.0  0.27354  0.29606  0.03776  1.0000
  C   C185      1.0  0.34693  0.24046  0.029370000000000004  1.0000
  C   C186      1.0  0.3121100000000001  0.19128  0.02294  1.0000
  C   C187      1.0  0.3858800000000001  0.13696  0.012280000000000001  1.0000
  C   C188      1.0  0.49052  0.13017  0.0088  1.0000
  C   C189      1.0  0.5248900000000001  0.17777  0.01638  1.0000
  C   C190      1.0  0.45526  0.23145  0.02603  1.0000
  C   C191      1.0  0.7826699999999999  0.8437400000000002  0.35763  1.0000
  C   C192      1.0  0.9796200000000002  0.69598  0.33895  1.0000
  C   C193      1.0  0.8999800000000003  0.73914  0.36533  1.0000
  C   C194      1.0  0.8591099999999999  0.7932100000000001  0.3296  1.0000
  C   C195      1.0  0.89678  0.7988300000000002  0.26737  1.0000
  C   C196      1.0  0.9769500000000003  0.7540800000000002  0.2443  1.0000
  C   C197      1.0  0.70987  0.8866399999999999  0.31855  1.0000
  C   C198      1.0  0.6281100000000001  0.8573100000000001  0.31215  1.0000
  C   C199      1.0  0.44742  0.78908  0.45322  1.0000
  C   C200      1.0  0.5246600000000002  0.7932000000000001  0.40014  1.0000
  C   C201      1.0  0.54703  0.84884  0.36997  1.0000
  C   C202      1.0  0.49084  0.8985  0.39639  1.0000
  C   C203      1.0  0.41759999999999997  0.89113  0.45011000000000007  1.0000
  C   C204      1.0  0.0912  0.66589  0.13996  1.0000
  C   C205      1.0  0.03868999999999999  0.64947  0.10734  1.0000
  C   C206      1.0  0.03188999999999995  0.58956  0.11829  1.0000
  C   C207      1.0  0.08251  0.5485200000000001  0.16107  1.0000
  C   C208      1.0  0.12896000000000002  0.56873  0.19427000000000003  1.0000
  C   C209      1.0  0.9629400000000001  0.5712  0.09107  1.0000
  C   C210      1.0  0.96505  0.59765  0.02444  1.0000
  C   C211      1.0  0.8648399999999999  0.59518  0.00922  1.0000
  C   C212      1.0  0.8926200000000002  0.43443  0.00019999999999999998  1.0000
  C   C213      1.0  0.9086000000000001  0.49192  0.98632  1.0000
  C   C214      1.0  0.8491  0.53261  0.02366  1.0000
  C   C215      1.0  0.77723  0.51172  0.07481  1.0000
  C   C216      1.0  0.7648500000000003  0.45329  0.08625  1.0000
  C   C217      1.0  0.33112  0.24539  0.65627  1.0000
  C   C218      1.0  0.26021  0.55595  0.29959  1.0000
  C   C219      1.0  0.3360100000000001  0.35304  0.64215  1.0000
  C   C220      1.0  0.3073600000000001  0.30962999999999996  0.62549  1.0000
  C   C221      1.0  0.26136000000000004  0.32628  0.57472  1.0000
  C   C222      1.0  0.24422000000000002  0.38511  0.542  1.0000
  C   C223      1.0  0.27128  0.4299  0.56054  1.0000
  C   C224      1.0  0.31954  0.41326  0.61086  1.0000
  C   C225      1.0  0.35130000000000006  0.45737  0.62732  1.0000
  C   C226      1.0  0.3345600000000001  0.51625  0.59708  1.0000
  C   C227      1.0  0.28524  0.53309  0.54843  1.0000
  C   C228      1.0  0.25442000000000004  0.4913  0.53068  1.0000
  C   C229      1.0  0.19839000000000007  0.39849  0.48765  1.0000
  C   C230      1.0  0.39066000000000006  0.45946  0.3127  1.0000
  C   C231      1.0  0.29676  0.49652  0.33563  1.0000
  C   C232      1.0  0.2351  0.47536  0.39359  1.0000
  C   C233      1.0  0.26833  0.41873  0.42741  1.0000
  C   C234      1.0  0.36419  0.38043000000000005  0.40282  1.0000
  C   C235      1.0  0.4257900000000003  0.40122  0.34451  1.0000
  C   C236      1.0  0.5189700000000004  0.36245  0.31874  1.0000
  C   C237      1.0  0.5517100000000003  0.3047199999999999  0.34875  1.0000
  C   C238      1.0  0.4927  0.28443  0.40647  1.0000
  C   C239      1.0  0.40166  0.3209  0.43283  1.0000
  C   C240      1.0  0.41935000000000006  0.84787  0.63762  1.0000
  C   C241      1.0  0.18530999999999997  0.7547100000000001  0.54088  1.0000
  C   C242      1.0  0.5344800000000001  0.8598300000000001  0.6949  1.0000
  C   C243      1.0  0.52396  0.85135  0.64168  1.0000
  C   C244      1.0  0.6126400000000002  0.84907  0.59121  1.0000
  C   C245      1.0  0.7101500000000001  0.85235  0.59524  1.0000
  C   C246      1.0  0.7192200000000004  0.8622000000000001  0.65026  1.0000
  C   C247      1.0  0.62987  0.86668  0.70031  1.0000
  C   C248      1.0  0.63777  0.87913  0.7540099999999998  1.0000
  C   C249      1.0  0.7305800000000001  0.88651  0.75914  1.0000
  C   C250      1.0  0.8189500000000004  0.88115  0.71049  1.0000
  C   C251      1.0  0.81362  0.86958  0.65756  1.0000
  C   C252      1.0  0.80124  0.85124  0.53996  1.0000
  C   C253      1.0  0.0704800000000001  0.69796  0.52752  1.0000
  C   C254      1.0  0.08056999999999985  0.7509500000000001  0.53667  1.0000
  C   C255      1.0  0.9905000000000004  0.80057  0.54082  1.0000
  C   C256      1.0  0.8926600000000002  0.7960500000000001  0.53845  1.0000
  C   C257      1.0  0.8835  0.7405500000000003  0.52971  1.0000
  C   C258      1.0  0.9741  0.69141  0.52318  1.0000
  C   C259      1.0  0.9655600000000001  0.6371000000000002  0.51242  1.0000
  C   C260      1.0  0.8712600000000001  0.63026  0.50894  1.0000
  C   C261      1.0  0.7815900000000001  0.6778800000000003  0.5164  1.0000
  C   C262      1.0  0.78762  0.73157  0.52614  1.0000
  C   C263      1.0  0.5162200000000001  0.34325000000000006  0.85789  1.0000
  C   C264      1.0  0.4856800000000004  0.19575999999999996  0.8389  1.0000
  C   C265      1.0  0.49591000000000013  0.23873999999999998  0.86539  1.0000
  C   C266      1.0  0.51827  0.29287  0.82976  1.0000
  C   C267      1.0  0.53696  0.29872  0.7675200000000001  1.0000
  C   C268      1.0  0.52446  0.25415000000000004  0.74436  1.0000
  C   C269      1.0  0.5850400000000001  0.38622  0.81875  1.0000
  C   C270      1.0  0.70263  0.35678  0.8123000000000001  1.0000
  C   C271      1.0  0.81063  0.28891999999999995  0.9533600000000001  1.0000
  C   C272      1.0  0.7821400000000004  0.29282  0.90045  1.0000
  C   C273      1.0  0.7343299999999998  0.34837000000000007  0.8701000000000001  1.0000
  C   C274      1.0  0.7143099999999999  0.39809  0.8963900000000001  1.0000
  C   C275      1.0  0.7414600000000007  0.39099999999999996  0.94993  1.0000
  C   C276      1.0  0.6029999999999999  0.16627  0.63971  1.0000
  C   C277      1.0  0.7046700000000001  0.1499  0.60705  1.0000
  C   C278      1.0  0.7607000000000003  0.09002000000000003  0.61807  1.0000
  C   C279      1.0  0.7084700000000002  0.04896000000000002  0.66089  1.0000
  C   C280      1.0  0.60848  0.0691  0.69409  1.0000
  C   C281      1.0  0.8754000000000001  0.07167999999999998  0.591  1.0000
  C   C282      1.0  0.91396  0.09815000000000003  0.52444  1.0000
  C   C283      1.0  0.03203000000000001  0.09528  0.5094  1.0000
  C   C284      1.0  0.17244000000000012  0.9341199999999998  0.50093  1.0000
  C   C285      1.0  0.11335000000000002  0.99176  0.48685  1.0000
  C   C286      1.0  0.09537999999999998  0.032540000000000006  0.52398  1.0000
  C   C287      1.0  0.13706000000000002  0.011590000000000003  0.57511  1.0000
  C   C288      1.0  0.19595000000000018  0.9530300000000002  0.58669  1.0000
  N   N1        1.0  0.05628999999999998  0.1844  0.62708  1.0000
  N   N2        1.0  0.7143700000000002  0.04967000000000001  0.41475  1.0000
  N   N3        1.0  0.9958300000000001  0.27919  0.70392  1.0000
  N   N4        1.0  0.2907900000000001  0.4778499999999999  0.83745  1.0000
  N   N5        1.0  0.6325600000000001  0.6846200000000001  0.12673  1.0000
  N   N6        1.0  0.3214300000000002  0.5490600000000001  0.9150899999999998  1.0000
  N   N7        1.0  0.5209900000000002  0.77923  0.20392  1.0000
  N   N8        1.0  0.8943700000000004  0.97799  0.33749  1.0000
  N   N9        1.0  0.13256  0.62674  0.18463  1.0000
  N   N10       1.0  0.8214200000000003  0.4151  0.04905  1.0000
  N   N11       1.0  0.02098999999999998  0.70393  0.27923  1.0000
  N   N12       1.0  0.39436999999999994  0.8374800000000001  0.47801000000000005  1.0000
  N   N13       1.0  0.55628  0.12709  0.68441  1.0000
  N   N14       1.0  0.21434999999999987  0.91477  0.54966  1.0000
  N   N15       1.0  0.49582000000000004  0.20394000000000004  0.77919  1.0000
  N   N16       1.0  0.7907800000000005  0.33745  0.97785  1.0000
  O   O1        1.0  0.8626600000000002  0.20522999999999997  0.7343300000000001  1.0000
  O   O2        1.0  0.8229599999999999  0.13328  0.70507  1.0000
  O   O3        1.0  0.6643300000000002  0.8185600000000001  0.08602  1.0000
  O   O4        1.0  0.8141800000000003  0.7505  0.07911  1.0000
  O   O5        1.0  0.7376099999999999  0.05680999999999997  0.7831800000000001  1.0000
  O   O6        1.0  0.6426200000000002  0.91715  0.01121  1.0000
  O   O7        1.0  0.92177  0.08836999999999999  0.32981  1.0000
  O   O8        1.0  0.8375200000000003  0.17563  0.36102  1.0000
  O   O9        1.0  0.6825400000000001  0.05925999999999999  0.3038  1.0000
  O   O10       1.0  0.7666600000000002  0.027960000000000002  0.21630999999999997  1.0000
  O   O11       1.0  0.10014000000000003  0.03692000000000001  0.34623  1.0000
  O   O12       1.0  0.5019300000000002  0.044929999999999984  0.35467  1.0000
  O   O13       1.0  0.6962000000000004  0.70427  0.2343  1.0000
  O   O14       1.0  0.8404300000000006  0.63367  0.20537  1.0000
  O   O15       1.0  0.9331400000000006  0.3182  0.58553  1.0000
  O   O16       1.0  0.8568800000000004  0.25056000000000006  0.57928  1.0000
  O   O17       1.0  0.92394  0.55707  0.28368  1.0000
  O   O18       1.0  0.9293200000000005  0.4171099999999999  0.51128  1.0000
  O   O19       1.0  0.15997999999999993  0.5876400000000002  0.83141  1.0000
  O   O20       1.0  0.12401999999999999  0.6740299999999999  0.8641500000000001  1.0000
  O   O21       1.0  0.45522  0.55915  0.8038300000000002  1.0000
  O   O22       1.0  0.4898800000000002  0.52811  0.71619  1.0000
  O   O23       1.0  0.01634000000000004  0.53658  0.84592  1.0000
  O   O24       1.0  0.5998800000000004  0.5428099999999999  0.85511  1.0000
  O   O25       1.0  0.19616000000000003  0.73433  0.20426  1.0000
  O   O26       1.0  0.34040000000000015  0.70537  0.13368  1.0000
  O   O27       1.0  0.4331400000000001  0.08553999999999999  0.81819  1.0000
  O   O28       1.0  0.3568800000000002  0.07929  0.75056  1.0000
  O   O29       1.0  0.42392  0.78369  0.05707  1.0000
  O   O30       1.0  0.4293199999999999  0.011289999999999982  0.91709  1.0000
  O   O31       1.0  0.65997  0.33143  0.08763  1.0000
  O   O32       1.0  0.62402  0.36416  0.17403  1.0000
  O   O33       1.0  0.95521  0.30384  0.05915  1.0000
  O   O34       1.0  0.9898800000000001  0.21619  0.0281  1.0000
  O   O35       1.0  0.5163300000000002  0.34591999999999995  0.03658  1.0000
  O   O36       1.0  0.09987000000000008  0.35511999999999994  0.04281  1.0000
  O   O37       1.0  0.36266000000000004  0.23437  0.70522  1.0000
  O   O38       1.0  0.32294999999999996  0.20508000000000007  0.63328  1.0000
  O   O39       1.0  0.16436999999999996  0.58604  0.31856  1.0000
  O   O40       1.0  0.3141900000000002  0.57911  0.25049  1.0000
  O   O41       1.0  0.23761999999999991  0.28319  0.55681  1.0000
  O   O42       1.0  0.14265000000000003  0.51122  0.41713  1.0000
  O   O43       1.0  0.42164999999999986  0.82984  0.58843  1.0000
  O   O44       1.0  0.33746  0.8614999999999999  0.67547  1.0000
  O   O45       1.0  0.18253000000000005  0.80381  0.55924  1.0000
  O   O46       1.0  0.26665000000000005  0.71631  0.52796  1.0000
  O   O47       1.0  0.6001100000000004  0.84625  0.53691  1.0000
  O   O48       1.0  0.0018799999999998915  0.8546800000000001  0.54493  1.0000
