data_image0
_chemical_formula_structural       Zn14Cd4H268C280N20O52
_chemical_formula_sum              "Zn14 Cd4 H268 C280 N20 O52"
_cell_length_a       17.30716
_cell_length_b       26.95441
_cell_length_c       26.96956
_cell_angle_alpha    76.34579
_cell_angle_beta     71.21366
_cell_angle_gamma    71.2526

_space_group_name_H-M_alt    "P 1"
_space_group_IT_number       1

loop_
  _space_group_symop_operation_xyz
  'x, y, z'

loop_
  _atom_site_type_symbol
  _atom_site_label
  _atom_site_symmetry_multiplicity
  _atom_site_fract_x
  _atom_site_fract_y
  _atom_site_fract_z
  _atom_site_occupancy
  Zn  Zn1       1.0  0.91261  0.89867  0.52367  1.0000
  Zn  Zn2       1.0  0.6481099999999999  0.4115200000000001  0.01631  1.0000
  Zn  Zn3       1.0  0.5873999999999999  0.4763600000000001  0.10144  1.0000
  Zn  Zn4       1.0  0.83345  0.60126  0.9780800000000001  1.0000
  Zn  Zn5       1.0  0.8522  0.98387  0.58846  1.0000
  Zn  Zn6       1.0  0.7461099999999999  0.50362  0.00435  1.0000
  Zn  Zn7       1.0  0.9280600000000001  0.49777000000000005  0.02419  1.0000
  Zn  Zn8       1.0  0.92475  0.51558  0.9132  1.0000
  Zn  Zn9       1.0  0.7539299999999999  0.9957900000000002  0.49640000000000006  1.0000
  Zn  Zn10      1.0  0.5721099999999999  0.9757700000000002  0.50235  1.0000
  Zn  Zn11      1.0  0.6669  0.02162  0.39876000000000006  1.0000
  Zn  Zn12      1.0  0.94977  0.0018600000000000036  0.47712  1.0000
  Zn  Zn13      1.0  0.5750199999999999  0.08690000000000003  0.48410000000000003  1.0000
  Zn  Zn14      1.0  0.5502299999999997  0.52267  0.9981  1.0000
  Cd  Cd1       1.0  0.2395599999999999  0.74951  0.74979  1.0000
  Cd  Cd2       1.0  0.74886  0.059200000000000016  0.94125  1.0000
  Cd  Cd3       1.0  0.26032  0.25033000000000005  0.25046  1.0000
  Cd  Cd4       1.0  0.25094999999999995  0.4402900000000001  0.55991  1.0000
  H   H1        1.0  0.14462000000000005  0.30871  0.98002  1.0000
  H   H2        1.0  0.41977  0.03737000000000003  0.62681  1.0000
  H   H3        1.0  0.7904100000000001  0.54078  0.73975  1.0000
  H   H4        1.0  0.08014999999999994  0.3729500000000001  0.96284  1.0000
  H   H5        1.0  0.7536  0.09663  0.67596  1.0000
  H   H6        1.0  0.80762  0.8635100000000002  0.69035  1.0000
  H   H7        1.0  0.61535  0.06538000000000001  0.75278  1.0000
  H   H8        1.0  0.9864300000000001  0.71223  0.70105  1.0000
  H   H9        1.0  0.5173300000000001  0.89707  0.73376  1.0000
  H   H10       1.0  0.32673  0.35184  0.9863000000000001  1.0000
  H   H11       1.0  0.8493100000000001  0.23350000000000004  0.39826  1.0000
  H   H12       1.0  0.55941  0.7403700000000001  0.82609  1.0000
  H   H13       1.0  0.68628  0.7896200000000001  0.51328  1.0000
  H   H14       1.0  0.6264899999999998  0.7586900000000002  0.67333  1.0000
  H   H15       1.0  0.43989000000000017  0.39574  0.56778  1.0000
  H   H16       1.0  0.16416999999999993  0.14937000000000006  0.51334  1.0000
  H   H17       1.0  0.35552999999999996  0.020169999999999987  0.6911100000000001  1.0000
  H   H18       1.0  0.49495  0.16931  0.37006  1.0000
  H   H19       1.0  0.60046  0.20013000000000006  0.21254  1.0000
  H   H20       1.0  0.25263  0.32272  0.06943  1.0000
  H   H21       1.0  0.46145999999999987  0.6718800000000001  0.9444900000000002  1.0000
  H   H22       1.0  0.6843  0.16766000000000003  0.16288  1.0000
  H   H23       1.0  0.68823  0.21896000000000004  0.42542  1.0000
  H   H24       1.0  0.9702300000000001  0.2606  0.88256  1.0000
  H   H25       1.0  0.32433000000000006  0.08359  0.65431  1.0000
  H   H26       1.0  0.95946  0.43978  0.47545  1.0000
  H   H27       1.0  0.010320000000000041  0.89283  0.86697  1.0000
  H   H28       1.0  0.70956  0.26046  0.45896  1.0000
  H   H29       1.0  0.7207599999999998  0.81027  0.94243  1.0000
  H   H30       1.0  0.9791399999999998  0.7735300000000003  0.41802  1.0000
  H   H31       1.0  0.29015  0.55401  0.29906  1.0000
  H   H32       1.0  0.03940999999999998  0.3894500000000001  0.18924  1.0000
  H   H33       1.0  0.038950000000000005  0.05541000000000001  0.32807  1.0000
  H   H34       1.0  0.29667000000000004  0.5498200000000002  0.53655  1.0000
  H   H35       1.0  0.61609  0.03557  0.05097  1.0000
  H   H36       1.0  0.8442600000000001  0.44465999999999994  0.7267400000000002  1.0000
  H   H37       1.0  0.47499000000000013  0.89372  0.68368  1.0000
  H   H38       1.0  0.07818999999999998  0.87128  0.38934  1.0000
  H   H39       1.0  0.8990599999999997  0.7882200000000001  0.80091  1.0000
  H   H40       1.0  0.61309  0.23936  0.61791  1.0000
  H   H41       1.0  0.98445  0.6625000000000004  0.66893  1.0000
  H   H42       1.0  0.94572  0.18380000000000005  0.39448  1.0000
  H   H43       1.0  0.3598100000000001  0.054000000000000006  0.54517  1.0000
  H   H44       1.0  0.37116  0.061340000000000006  0.02541  1.0000
  H   H45       1.0  0.0018799999999999728  0.9224000000000001  0.22406  1.0000
  H   H46       1.0  0.4618999999999999  0.04067  0.08813000000000001  1.0000
  H   H47       1.0  0.18276999999999996  0.8668400000000002  0.34783  1.0000
  H   H48       1.0  0.9320100000000001  0.19112000000000007  0.5214  1.0000
  H   H49       1.0  0.02480999999999999  0.31615  0.10631  1.0000
  H   H50       1.0  0.8145199999999999  0.8378100000000003  0.83295  1.0000
  H   H51       1.0  0.79476  0.07913  0.25967  1.0000
  H   H52       1.0  0.97314  0.6898200000000002  0.55794  1.0000
  H   H53       1.0  0.23903999999999995  0.42256000000000005  0.90582  1.0000
  H   H54       1.0  0.5601200000000001  0.63739  0.21717  1.0000
  H   H55       1.0  0.6009399999999999  0.5266900000000001  0.27894  1.0000
  H   H56       1.0  0.54286  0.52487  0.55983  1.0000
  H   H57       1.0  0.88283  0.94936  0.96405  1.0000
  H   H58       1.0  0.6557099999999999  0.27345  0.55499  1.0000
  H   H59       1.0  0.5969100000000002  0.06684  0.89673  1.0000
  H   H60       1.0  0.3157999999999999  0.3340200000000001  0.93021  1.0000
  H   H61       1.0  0.4975699999999999  0.7760900000000001  0.07741  1.0000
  H   H62       1.0  0.94364  0.42558  0.57355  1.0000
  H   H63       1.0  0.26434  0.037570000000000006  0.55376  1.0000
  H   H64       1.0  0.08156  0.58369  0.66795  1.0000
  H   H65       1.0  0.66203  0.9783700000000002  0.74918  1.0000
  H   H66       1.0  0.6927299999999997  0.31033000000000005  0.13727  1.0000
  H   H67       1.0  0.9209499999999999  0.8398500000000002  0.81963  1.0000
  H   H68       1.0  0.83218  0.9174700000000001  0.83317  1.0000
  H   H69       1.0  0.6442699999999999  0.25502  0.34896000000000005  1.0000
  H   H70       1.0  0.7475699999999998  0.7780600000000001  0.61797  1.0000
  H   H71       1.0  0.28780999999999984  0.29621  0.9933200000000001  1.0000
  H   H72       1.0  0.57758  0.18173000000000006  0.16115  1.0000
  H   H73       1.0  0.15877999999999987  0.7666800000000003  0.56808  1.0000
  H   H74       1.0  0.60896  0.24861000000000005  0.4786  1.0000
  H   H75       1.0  0.5136400000000001  0.054869999999999995  0.77371  1.0000
  H   H76       1.0  0.0035500000000000063  0.6933900000000001  0.79152  1.0000
  H   H77       1.0  0.9395500000000001  0.7823800000000002  0.3631  1.0000
  H   H78       1.0  0.36849  0.64864  0.18189000000000002  1.0000
  H   H79       1.0  0.9762800000000001  0.34712000000000004  0.8649200000000001  1.0000
  H   H80       1.0  0.44056  0.07396000000000001  0.92736  1.0000
  H   H81       1.0  0.52577  0.92553  0.25058  1.0000
  H   H82       1.0  0.5691199999999998  0.9588000000000002  0.76112  1.0000
  H   H83       1.0  0.8809  0.7527100000000002  0.12819  1.0000
  H   H84       1.0  0.26512  0.5764  0.12977  1.0000
  H   H85       1.0  0.4895099999999999  0.7089400000000002  0.98697  1.0000
  H   H86       1.0  0.15896999999999997  0.79575  0.64988  1.0000
  H   H87       1.0  0.8661999999999999  0.7596000000000003  0.57935  1.0000
  H   H88       1.0  0.34154999999999996  0.35045  0.20406000000000005  1.0000
  H   H89       1.0  0.35535  0.56908  0.82276  1.0000
  H   H90       1.0  0.98605  0.22619  0.9449500000000001  1.0000
  H   H91       1.0  0.010310000000000008  0.013040000000000001  0.29099  1.0000
  H   H92       1.0  0.20084999999999997  0.5751400000000001  0.24873  1.0000
  H   H93       1.0  0.8565799999999999  0.7994200000000002  0.05332  1.0000
  H   H94       1.0  0.027190000000000002  0.40323000000000003  0.82447  1.0000
  H   H95       1.0  0.1327599999999999  0.8741200000000001  0.46920000000000006  1.0000
  H   H96       1.0  0.007249999999999933  0.8614600000000001  0.72469  1.0000
  H   H97       1.0  0.9308399999999999  0.23905000000000007  0.04173  1.0000
  H   H98       1.0  0.1269499999999997  0.9757000000000005  0.93909  1.0000
  H   H99       1.0  0.7931999999999999  0.7151200000000002  0.49036  1.0000
  H   H100      1.0  0.5136  0.29893  0.28777  1.0000
  H   H101      1.0  0.6628  0.88782  0.37048  1.0000
  H   H102      1.0  0.97108  0.3227800000000001  0.19097  1.0000
  H   H103      1.0  0.9779799999999997  0.8326600000000002  0.37191  1.0000
  H   H104      1.0  0.9081099999999998  0.9731300000000003  0.22188  1.0000
  H   H105      1.0  0.057019999999999973  0.07366999999999999  0.9266500000000001  1.0000
  H   H106      1.0  0.57757  0.8268  0.55572  1.0000
  H   H107      1.0  0.61893  0.8717999999999999  0.24715000000000006  1.0000
  H   H108      1.0  0.12039999999999997  0.85677  0.78697  1.0000
  H   H109      1.0  0.74982  0.24305000000000004  0.15134  1.0000
  H   H110      1.0  0.9871300000000001  0.80632  0.7108  1.0000
  H   H111      1.0  0.9403900000000001  0.17424  0.2594  1.0000
  H   H112      1.0  0.8368  0.6294  0.11189  1.0000
  H   H113      1.0  0.09289999999999997  0.4602900000000001  0.41307  1.0000
  H   H114      1.0  0.34043  0.43264000000000014  0.23309  1.0000
  H   H115      1.0  0.5846199999999998  0.46132000000000006  0.8731900000000001  1.0000
  H   H116      1.0  0.18412  0.06969  0.66626  1.0000
  H   H117      1.0  0.4222199999999999  0.6106100000000002  0.12892  1.0000
  H   H118      1.0  0.9740599999999999  0.62609  0.03143  1.0000
  H   H119      1.0  0.5540999999999999  0.60514  0.81661  1.0000
  H   H120      1.0  0.17329000000000003  0.013629999999999998  0.64829  1.0000
  H   H121      1.0  0.8668899999999999  0.6993100000000001  0.77439  1.0000
  H   H122      1.0  0.7001299999999999  0.8507300000000001  0.31688  1.0000
  H   H123      1.0  0.8864199999999999  0.38174  0.76102  1.0000
  H   H124      1.0  0.8983800000000001  0.72062  0.47392  1.0000
  H   H125      1.0  0.23789999999999994  0.6286  0.25168  1.0000
  H   H126      1.0  0.2346899999999999  0.8699500000000002  0.424  1.0000
  H   H127      1.0  0.47336000000000006  0.9821000000000002  0.3229600000000001  1.0000
  H   H128      1.0  0.49438000000000004  0.95381  0.68603  1.0000
  H   H129      1.0  0.13975999999999994  0.45477999999999996  0.9461600000000002  1.0000
  H   H130      1.0  0.9167199999999998  0.8622100000000003  0.28351  1.0000
  H   H131      1.0  0.7994699999999999  0.6828700000000001  0.14922  1.0000
  H   H132      1.0  0.5824900000000002  0.79613  0.72659  1.0000
  H   H133      1.0  0.13143999999999997  0.81815  0.3515  1.0000
  H   H134      1.0  0.8564  0.11767000000000004  0.27848  1.0000
  H   H135      1.0  0.42093000000000014  0.31842  0.33899  1.0000
  H   H136      1.0  0.26174999999999987  0.7481700000000002  0.37154  1.0000
  H   H137      1.0  0.4092500000000002  0.5872900000000002  0.53988  1.0000
  H   H138      1.0  0.5619799999999998  0.4154800000000001  0.8457  1.0000
  H   H139      1.0  0.07969999999999994  0.16655000000000003  0.56992  1.0000
  H   H140      1.0  0.26075000000000004  0.09431000000000005  0.57773  1.0000
  H   H141      1.0  0.14476999999999998  0.05416000000000003  0.53735  1.0000
  H   H142      1.0  0.3553699999999999  0.4623200000000002  0.9458300000000001  1.0000
  H   H143      1.0  0.8835099999999999  0.24675  0.93574  1.0000
  H   H144      1.0  0.8909099999999999  0.52112  0.7516900000000001  1.0000
  H   H145      1.0  0.23558000000000004  0.28796  0.35747  1.0000
  H   H146      1.0  0.4245499999999998  0.49324  0.79545  1.0000
  H   H147      1.0  0.9732500000000001  0.70023  0.13165  1.0000
  H   H148      1.0  0.3804699999999999  0.21288000000000007  0.14321  1.0000
  H   H149      1.0  0.20537999999999998  0.4635100000000001  0.45049  1.0000
  H   H150      1.0  0.51249  0.29124  0.19325  1.0000
  H   H151      1.0  0.491  0.1332  0.10687  1.0000
  H   H152      1.0  0.98297  0.17816000000000004  0.30971  1.0000
  H   H153      1.0  0.11596000000000002  0.11089999999999998  0.31156  1.0000
  H   H154      1.0  0.9222  0.44464  0.17313000000000006  1.0000
  H   H155      1.0  0.8116799999999998  0.57434  0.78127  1.0000
  H   H156      1.0  0.14217999999999997  0.17863000000000007  0.43065  1.0000
  H   H157      1.0  0.5054  0.06745  0.26699  1.0000
  H   H158      1.0  0.07938999999999986  0.6611200000000002  0.6820100000000001  1.0000
  H   H159      1.0  0.03682999999999992  0.9126299999999999  0.9592100000000001  1.0000
  H   H160      1.0  0.6875300000000001  0.15252  0.63565  1.0000
  H   H161      1.0  0.64356  0.72138  0.88248  1.0000
  H   H162      1.0  0.52261  0.13522  0.65274  1.0000
  H   H163      1.0  0.86406  0.18547999999999998  0.45469000000000004  1.0000
  H   H164      1.0  0.52211  0.62856  0.16677000000000003  1.0000
  H   H165      1.0  0.83886  0.80057  0.7281400000000001  1.0000
  H   H166      1.0  0.6690699999999999  0.7257400000000002  0.08264  1.0000
  H   H167      1.0  0.36708  0.5311700000000001  0.12555  1.0000
  H   H168      1.0  0.26511000000000007  0.64236  0.7121700000000001  1.0000
  H   H169      1.0  0.002340000000000087  0.9895600000000001  0.21665  1.0000
  H   H170      1.0  0.5168599999999997  0.69001  0.82218  1.0000
  H   H171      1.0  0.9646000000000002  0.8691  0.67054  1.0000
  H   H172      1.0  0.47279  0.17547000000000001  0.59656  1.0000
  H   H173      1.0  0.46044999999999997  0.8107400000000001  0.61091  1.0000
  H   H174      1.0  0.812  0.36408  0.84772  1.0000
  H   H175      1.0  0.7358899999999997  0.24237000000000014  0.9248800000000001  1.0000
  H   H176      1.0  0.28188  0.4416900000000001  0.33047000000000004  1.0000
  H   H177      1.0  0.5913799999999998  0.7784400000000002  0.026770000000000002  1.0000
  H   H178      1.0  0.8190299999999998  0.8707  0.33372  1.0000
  H   H179      1.0  0.31786999999999993  0.65232  0.13287  1.0000
  H   H180      1.0  0.7501  0.84955  0.7575800000000001  1.0000
  H   H181      1.0  0.6330599999999998  0.42087  0.24073  1.0000
  H   H182      1.0  0.4206399999999999  0.43016000000000004  0.83312  1.0000
  H   H183      1.0  0.60764  0.7022  0.7733900000000001  1.0000
  H   H184      1.0  0.43193999999999994  0.40537000000000006  0.92179  1.0000
  H   H185      1.0  0.63605  0.54506  0.81461  1.0000
  H   H186      1.0  0.49582999999999994  0.20886000000000005  0.30686  1.0000
  H   H187      1.0  0.5275  0.11771000000000001  0.7393200000000001  1.0000
  H   H188      1.0  0.5680799999999999  0.4786300000000001  0.80874  1.0000
  H   H189      1.0  0.21707999999999988  0.6693100000000002  0.55898  1.0000
  H   H190      1.0  0.19467999999999994  0.6317800000000001  0.19932  1.0000
  H   H191      1.0  0.63259  0.22576999999999997  0.30038  1.0000
  H   H192      1.0  0.29869  0.75088  0.42511  1.0000
  H   H193      1.0  0.52508  0.4420600000000001  0.31053  1.0000
  H   H194      1.0  0.09702000000000001  0.42451  0.7429  1.0000
  H   H195      1.0  0.41952999999999996  0.33243000000000006  0.41659  1.0000
  H   H196      1.0  0.24740999999999974  0.93051  0.6775800000000001  1.0000
  H   H197      1.0  0.9744000000000002  0.74915  0.07461  1.0000
  H   H198      1.0  0.68093  0.6667700000000002  0.12897  1.0000
  H   H199      1.0  0.004540000000000043  0.63013  0.83097  1.0000
  H   H200      1.0  0.3052099999999999  0.8003900000000002  0.36859000000000003  1.0000
  H   H201      1.0  0.9376899999999999  0.15411000000000005  0.58457  1.0000
  H   H202      1.0  0.10526999999999997  0.7034500000000001  0.84972  1.0000
  H   H203      1.0  0.17570999999999998  0.34554  0.91657  1.0000
  H   H204      1.0  0.49333  0.276  0.13843  1.0000
  H   H205      1.0  0.8922200000000001  0.22692000000000007  0.29759  1.0000
  H   H206      1.0  0.982  0.2662  0.10302  1.0000
  H   H207      1.0  0.63866  0.18804  0.36334000000000005  1.0000
  H   H208      1.0  0.2224399999999998  0.8231700000000002  0.4825200000000001  1.0000
  H   H209      1.0  0.07570000000000002  0.20461  0.5071  1.0000
  H   H210      1.0  0.39499000000000006  0.14938  0.29645  1.0000
  H   H211      1.0  0.5830899999999999  0.71684  0.13746  1.0000
  H   H212      1.0  0.005199999999999948  0.3139200000000001  0.04629  1.0000
  H   H213      1.0  0.66074  0.27253  0.20006  1.0000
  H   H214      1.0  0.06248000000000005  0.43146  0.60459  1.0000
  H   H215      1.0  0.026519999999999974  0.67684  0.01777  1.0000
  H   H216      1.0  0.40638  0.22384  0.36172  1.0000
  H   H217      1.0  0.74572  0.3237  0.90379  1.0000
  H   H218      1.0  0.40387  0.25704  0.57559  1.0000
  H   H219      1.0  0.45877  0.4452200000000001  0.95446  1.0000
  H   H220      1.0  0.83074  0.91705  0.27475  1.0000
  H   H221      1.0  0.2698999999999999  0.6064  0.63252  1.0000
  H   H222      1.0  0.5364  0.33022  0.12979  1.0000
  H   H223      1.0  0.23504999999999976  0.4465200000000001  0.9626400000000002  1.0000
  H   H224      1.0  0.66509  0.16719  0.08366  1.0000
  H   H225      1.0  0.91753  0.27354  0.20395  1.0000
  H   H226      1.0  0.7060700000000002  0.51021  0.28466  1.0000
  H   H227      1.0  0.3829499999999998  0.6884800000000001  0.88954  1.0000
  H   H228      1.0  0.86135  0.63619  0.8118700000000001  1.0000
  H   H229      1.0  0.8740999999999999  0.32688  0.24133  1.0000
  H   H230      1.0  0.06861000000000002  0.07826  0.59438  1.0000
  H   H231      1.0  0.5291900000000002  0.80869  0.67735  1.0000
  H   H232      1.0  0.49735  0.7834100000000002  0.01024  1.0000
  H   H233      1.0  0.5204599999999999  0.58246  0.22589000000000004  1.0000
  H   H234      1.0  0.21230999999999994  0.006499999999999985  0.7038500000000001  1.0000
  H   H235      1.0  0.51644  0.33124  0.33711  1.0000
  H   H236      1.0  0.041349999999999956  0.04548000000000002  0.55485  1.0000
  H   H237      1.0  0.20839000000000002  0.7005  0.44558  1.0000
  H   H238      1.0  0.027609999999999905  0.6299100000000001  0.07616  1.0000
  H   H239      1.0  0.27736000000000005  0.51776  0.17645  1.0000
  H   H240      1.0  0.33597999999999983  0.48660000000000003  0.8506200000000002  1.0000
  H   H241      1.0  0.9007899999999998  0.10392999999999998  0.9338800000000002  1.0000
  H   H242      1.0  0.9353100000000001  0.43405  0.74787  1.0000
  H   H243      1.0  0.55337  0.05878000000000001  0.16959000000000002  1.0000
  H   H244      1.0  0.8339000000000003  0.28013  0.07536  1.0000
  H   H245      1.0  0.6450499999999999  0.94585  0.20046  1.0000
  H   H246      1.0  0.47201999999999994  0.9237900000000002  0.3699  1.0000
  H   H247      1.0  0.83814  0.25036  0.02218  1.0000
  H   H248      1.0  0.66573  0.9249600000000002  0.7199  1.0000
  H   H249      1.0  0.55884  0.4267500000000001  0.57372  1.0000
  H   H250      1.0  0.85347  0.72245  0.42325  1.0000
  H   H251      1.0  0.8132699999999998  0.48715000000000014  0.21027  1.0000
  H   H252      1.0  0.6041299999999998  0.84654  0.3657  1.0000
  H   H253      1.0  0.52553  0.96855  0.37376  1.0000
  H   H254      1.0  0.77884  0.05775000000000003  0.18955000000000002  1.0000
  H   H255      1.0  0.9949099999999999  0.7326600000000002  0.93187  1.0000
  H   H256      1.0  0.76269  0.07608000000000002  0.75702  1.0000
  H   H257      1.0  0.9476500000000001  0.8300299999999999  0.9409600000000002  1.0000
  H   H258      1.0  0.23016000000000003  0.36781  0.39337  1.0000
  H   H259      1.0  0.8955100000000001  0.63397  0.15322  1.0000
  H   H260      1.0  0.5263299999999999  0.8684700000000001  0.29947  1.0000
  H   H261      1.0  0.9157500000000002  0.12658  0.5385  1.0000
  H   H262      1.0  0.65047  0.60174  0.7668  1.0000
  H   H263      1.0  0.7042099999999999  0.7403000000000001  0.92154  1.0000
  H   H264      1.0  0.7523199999999999  0.3822200000000001  0.22214  1.0000
  H   H265      1.0  0.5644399999999999  0.25253  0.56553  1.0000
  H   H266      1.0  0.8563500000000001  0.6505600000000001  0.74484  1.0000
  H   H267      1.0  0.09319999999999994  0.6386700000000002  0.77662  1.0000
  H   H268      1.0  0.64593  0.5773800000000001  0.27716  1.0000
  C   C1        1.0  0.75658  0.09692  0.57984  1.0000
  C   C2        1.0  0.6630399999999999  0.6791700000000003  0.88049  1.0000
  C   C3        1.0  0.6021899999999999  0.44417000000000006  0.20983000000000002  1.0000
  C   C4        1.0  0.03039999999999996  0.8505700000000002  0.8648  1.0000
  C   C5        1.0  0.5572599999999999  0.6078800000000002  0.19619  1.0000
  C   C6        1.0  0.7581499999999999  0.54576  0.09473  1.0000
  C   C7        1.0  0.23390000000000005  0.60509  0.22485000000000002  1.0000
  C   C8        1.0  0.5712100000000001  0.057120000000000004  0.68927  1.0000
  C   C9        1.0  0.8554100000000003  0.82824  0.42459  1.0000
  C   C10       1.0  0.78709  0.12748  0.42953  1.0000
  C   C11       1.0  0.2580299999999999  0.32112000000000007  0.33177000000000006  1.0000
  C   C12       1.0  0.0015299999999998516  0.44267000000000023  0.83644  1.0000
  C   C13       1.0  0.8414  0.92256  0.75059  1.0000
  C   C14       1.0  0.5112399999999999  0.9506200000000002  0.3464400000000001  1.0000
  C   C15       1.0  0.41833000000000004  0.14413  0.25485  1.0000
  C   C16       1.0  0.40518999999999994  0.49791  0.30987  1.0000
  C   C17       1.0  0.8135099999999997  0.8433200000000002  0.72976  1.0000
  C   C18       1.0  0.17975999999999998  0.18290000000000003  0.32568  1.0000
  C   C19       1.0  0.72416  0.024210000000000002  0.27007  1.0000
  C   C20       1.0  0.7757800000000001  0.51182  0.1835  1.0000
  C   C21       1.0  0.80961  0.51297  0.12856  1.0000
  C   C22       1.0  0.12847000000000003  0.63113  0.50976  1.0000
  C   C23       1.0  0.82322  0.88364  0.42182000000000003  1.0000
  C   C24       1.0  0.59244  0.7983999999999999  0.68379  1.0000
  C   C25       1.0  0.9351700000000001  0.72556  0.10491000000000002  1.0000
  C   C26       1.0  0.9072899999999998  0.6902600000000002  0.08034  1.0000
  C   C27       1.0  0.95102  0.98668  0.37269  1.0000
  C   C28       1.0  0.3100799999999999  0.8254500000000002  0.68179  1.0000
  C   C29       1.0  0.49318000000000034  0.50979  0.55729  1.0000
  C   C30       1.0  0.79378  0.4968400000000001  0.81735  1.0000
  C   C31       1.0  0.47693  0.6285700000000001  0.9506  1.0000
  C   C32       1.0  0.42288  0.44616  0.92729  1.0000
  C   C33       1.0  0.17815999999999996  0.8099800000000003  0.42027  1.0000
  C   C34       1.0  0.56468  0.8951400000000002  0.27424  1.0000
  C   C35       1.0  0.43695000000000017  0.43766  0.56181  1.0000
  C   C36       1.0  0.7226399999999998  0.8202600000000001  0.62006  1.0000
  C   C37       1.0  0.7719899999999998  0.8553  0.59097  1.0000
  C   C38       1.0  0.4770900000000002  0.20507  0.51619  1.0000
  C   C39       1.0  0.6945599999999998  0.54182  0.20523000000000002  1.0000
  C   C40       1.0  0.09052999999999982  0.8311600000000002  0.8202500000000001  1.0000
  C   C41       1.0  0.32160999999999995  0.5799300000000001  0.18979  1.0000
  C   C42       1.0  0.7427700000000002  0.7094700000000002  0.94488  1.0000
  C   C43       1.0  0.020849999999999962  0.04483999999999997  0.9353900000000002  1.0000
  C   C44       1.0  0.35344999999999993  0.5337100000000001  0.27803  1.0000
  C   C45       1.0  0.36895  0.48993  0.36874  1.0000
  C   C46       1.0  0.6904200000000001  0.8713  0.4874  1.0000
  C   C47       1.0  0.18975  0.34983  0.0785  1.0000
  C   C48       1.0  0.38223999999999997  0.5781  0.84976  1.0000
  C   C49       1.0  0.6229699999999999  0.5882200000000001  0.80883  1.0000
  C   C50       1.0  0.89872  0.95366  0.40644  1.0000
  C   C51       1.0  0.94355  0.45061000000000007  0.12982  1.0000
  C   C52       1.0  0.9524800000000001  0.1511  0.54243  1.0000
  C   C53       1.0  0.43876  0.05804  0.01049  1.0000
  C   C54       1.0  0.37954999999999994  0.5421400000000001  0.22336  1.0000
  C   C55       1.0  0.9235799999999998  0.9754600000000001  0.95641  1.0000
  C   C56       1.0  0.6416599999999999  0.8378700000000001  0.6524  1.0000
  C   C57       1.0  0.02305999999999999  0.04939999999999999  0.37137  1.0000
  C   C58       1.0  0.6769200000000001  0.57854  0.11602000000000001  1.0000
  C   C59       1.0  0.84232  0.15632  0.39352  1.0000
  C   C60       1.0  0.8971900000000003  0.79042  0.55581  1.0000
  C   C61       1.0  0.47581  0.20977  0.34976  1.0000
  C   C62       1.0  0.5502399999999998  0.09399  0.64691  1.0000
  C   C63       1.0  0.6015399999999999  0.5936300000000001  0.04607  1.0000
  C   C64       1.0  6.999999999991136e-05  0.4344200000000001  0.54498  1.0000
  C   C65       1.0  0.41027  0.17952  0.16878  1.0000
  C   C66       1.0  0.11982999999999996  0.77642  0.45772  1.0000
  C   C67       1.0  0.3507899999999999  0.8671400000000001  0.64717  1.0000
  C   C68       1.0  0.07731999999999997  0.0727  0.55368  1.0000
  C   C69       1.0  0.18262999999999993  0.75422  0.6443500000000001  1.0000
  C   C70       1.0  0.43048999999999993  0.8527200000000003  0.61289  1.0000
  C   C71       1.0  0.9838099999999997  0.6376000000000002  0.75291  1.0000
  C   C72       1.0  0.72289  0.47415000000000007  0.91061  1.0000
  C   C73       1.0  0.68646  0.27091  0.15733  1.0000
  C   C74       1.0  0.8772400000000001  0.36570000000000014  0.01391  1.0000
  C   C75       1.0  0.7720300000000001  0.8687800000000002  0.98873  1.0000
  C   C76       1.0  0.94258  0.8033300000000002  0.39258  1.0000
  C   C77       1.0  0.9807699999999999  0.3082500000000001  0.08943000000000001  1.0000
  C   C78       1.0  0.6574700000000001  0.60626  0.8439600000000002  1.0000
  C   C79       1.0  0.012449999999999932  0.71439  0.53024  1.0000
  C   C80       1.0  0.59252  0.91959  0.30963  1.0000
  C   C81       1.0  0.7772899999999999  0.38009  0.17997  1.0000
  C   C82       1.0  0.6465000000000001  0.95731  0.27634  1.0000
  C   C83       1.0  0.14603  0.45577  0.47632  1.0000
  C   C84       1.0  0.2836600000000001  0.40685  0.31568  1.0000
  C   C85       1.0  0.06951999999999997  0.3873800000000001  0.14729  1.0000
  C   C86       1.0  0.6068799999999996  0.8928500000000003  0.65674  1.0000
  C   C87       1.0  0.7863699999999999  0.80992  0.9975400000000002  1.0000
  C   C88       1.0  0.9635199999999997  0.8493300000000001  0.71115  1.0000
  C   C89       1.0  0.40647000000000005  0.29874  0.49787  1.0000
  C   C90       1.0  0.8928799999999998  0.31652  0.9977900000000001  1.0000
  C   C91       1.0  0.6769599999999999  0.22985000000000005  0.46417  1.0000
  C   C92       1.0  0.50681  0.20196000000000006  0.45952  1.0000
  C   C93       1.0  0.70593  0.18289000000000005  0.50292  1.0000
  C   C94       1.0  0.90772  0.3163599999999999  0.2016  1.0000
  C   C95       1.0  0.34764999999999996  0.9614600000000001  0.62142  1.0000
  C   C96       1.0  0.9954499999999997  0.8151600000000002  0.9061100000000002  1.0000
  C   C97       1.0  0.20220999999999995  0.4278200000000001  0.94673  1.0000
  C   C98       1.0  0.61401  0.22754  0.34307  1.0000
  C   C99       1.0  0.48606000000000005  0.24949000000000005  0.42233  1.0000
  C   C100      1.0  0.9489600000000001  0.3529000000000001  0.90617  1.0000
  C   C101      1.0  0.18332000000000004  0.73778  0.59887  1.0000
  C   C102      1.0  0.21329000000000004  0.02741000000000001  0.66353  1.0000
  C   C103      1.0  0.47296999999999967  0.8909600000000001  0.58144  1.0000
  C   C104      1.0  0.023009999999999947  0.4837300000000001  0.79498  1.0000
  C   C105      1.0  0.18976999999999997  0.31824  0.17455  1.0000
  C   C106      1.0  0.65851  0.24954000000000007  0.07816  1.0000
  C   C107      1.0  0.19216000000000005  0.84662  0.4512  1.0000
  C   C108      1.0  0.8051499999999999  0.79449  0.45866  1.0000
  C   C109      1.0  0.44576000000000027  0.60808  0.91878  1.0000
  C   C110      1.0  0.87293  0.8625400000000002  0.74884  1.0000
  C   C111      1.0  0.53676  0.28994000000000003  0.15043  1.0000
  C   C112      1.0  0.47694  0.06516  0.95607  1.0000
  C   C113      1.0  0.06537000000000003  0.4376300000000001  0.56268  1.0000
  C   C114      1.0  0.6272599999999998  0.9638400000000003  0.73051  1.0000
  C   C115      1.0  0.5760499999999998  0.7004400000000001  0.81607  1.0000
  C   C116      1.0  0.6603599999999998  0.53873  0.26447  1.0000
  C   C117      1.0  0.92377  0.18423  0.29934  1.0000
  C   C118      1.0  0.83413  0.77832  0.03343  1.0000
  C   C119      1.0  0.8671900000000001  0.15220000000000006  0.33849  1.0000
  C   C120      1.0  0.6805999999999998  0.18897000000000008  0.55751  1.0000
  C   C121      1.0  0.7138299999999999  0.2454  0.9670000000000001  1.0000
  C   C122      1.0  0.60697  0.025049999999999992  0.59007  1.0000
  C   C123      1.0  0.9933199999999999  0.54042  0.79821  1.0000
  C   C124      1.0  0.3524499999999999  0.34971000000000013  0.51748  1.0000
  C   C125      1.0  0.5177599999999999  0.4753200000000001  0.2301  1.0000
  C   C126      1.0  0.08202999999999984  0.7449900000000003  0.8552400000000001  1.0000
  C   C127      1.0  0.21586999999999998  0.6840700000000001  0.59367  1.0000
  C   C128      1.0  0.72397  0.8163300000000002  0.4886300000000001  1.0000
  C   C129      1.0  0.96477  0.9610800000000003  0.23664000000000002  1.0000
  C   C130      1.0  0.42673  0.25396  0.53348  1.0000
  C   C131      1.0  0.9427800000000001  0.2584600000000001  0.92552  1.0000
  C   C132      1.0  0.7420299999999999  0.9050700000000003  0.45456  1.0000
  C   C133      1.0  0.03487999999999988  0.8022000000000002  0.48662  1.0000
  C   C134      1.0  0.6773  0.9857600000000002  0.30216  1.0000
  C   C135      1.0  0.7361  0.9106800000000002  0.5939  1.0000
  C   C136      1.0  0.021330000000000075  0.76148  0.90092  1.0000
  C   C137      1.0  0.19602000000000003  0.37322  0.97998  1.0000
  C   C138      1.0  0.5577599999999999  0.70424  0.04183  1.0000
  C   C139      1.0  0.7755000000000001  0.7299  0.97598  1.0000
  C   C140      1.0  0.09290999999999994  0.6900300000000003  0.5015  1.0000
  C   C141      1.0  0.3966100000000001  0.6465699999999999  0.8873400000000002  1.0000
  C   C142      1.0  0.43099000000000004  0.5379800000000002  0.87842  1.0000
  C   C143      1.0  0.75563  0.13373  0.48679  1.0000
  C   C144      1.0  0.51629  0.24732000000000007  0.36241  1.0000
  C   C145      1.0  0.80061  0.01627  0.7057  1.0000
  C   C146      1.0  0.10224999999999998  0.11317  0.35343  1.0000
  C   C147      1.0  0.014319999999999961  0.5776600000000002  0.75073  1.0000
  C   C148      1.0  0.05937999999999996  0.9904500000000003  0.94233  1.0000
  C   C149      1.0  0.0738199999999999  0.46659000000000017  0.74609  1.0000
  C   C150      1.0  0.30392  0.020060000000000012  0.62681  1.0000
  C   C151      1.0  0.010419999999999782  0.6697800000000003  0.6979200000000001  1.0000
  C   C152      1.0  0.7441299999999997  0.51296  0.8665300000000001  1.0000
  C   C153      1.0  0.4512099999999999  0.47945000000000004  0.8728200000000002  1.0000
  C   C154      1.0  0.74329  0.4198600000000001  0.90337  1.0000
  C   C155      1.0  0.8722999999999999  0.9206300000000001  0.38502  1.0000
  C   C156      1.0  0.04882000000000001  0.12719  0.52053  1.0000
  C   C157      1.0  0.11603999999999992  0.15112  0.42182000000000003  1.0000
  C   C158      1.0  0.74214  0.030439999999999995  0.21443  1.0000
  C   C159      1.0  0.56584  0.07937000000000001  0.59711  1.0000
  C   C160      1.0  0.6547699999999999  0.92901  0.62817  1.0000
  C   C161      1.0  0.15229999999999988  0.3786600000000001  0.03856  1.0000
  C   C162      1.0  0.55604  0.07485999999999998  0.74133  1.0000
  C   C163      1.0  0.85626  0.65697  0.12632  1.0000
  C   C164      1.0  0.023760000000000062  0.65048  0.79056  1.0000
  C   C165      1.0  0.72788  0.40919  0.145  1.0000
  C   C166      1.0  0.8189999999999998  0.44224000000000013  0.81127  1.0000
  C   C167      1.0  0.78486  0.03387999999999999  0.75438  1.0000
  C   C168      1.0  0.8228899999999998  0.53557  0.7704  1.0000
  C   C169      1.0  0.43164999999999987  0.9466400000000003  0.5861  1.0000
  C   C170      1.0  0.2545199999999999  0.36559  0.3511200000000001  1.0000
  C   C171      1.0  0.48597999999999986  0.4694400000000001  0.28571  1.0000
  C   C172      1.0  0.6326  0.66131  0.84808  1.0000
  C   C173      1.0  0.7923300000000001  0.40533  0.8535300000000001  1.0000
  C   C174      1.0  0.9885399999999999  0.6534000000000001  0.04929  1.0000
  C   C175      1.0  0.9343200000000004  0.06208000000000002  0.93935  1.0000
  C   C176      1.0  0.9421899999999999  0.9579200000000001  0.2959  1.0000
  C   C177      1.0  0.71428  0.0020400000000000014  0.19013  1.0000
  C   C178      1.0  0.8768599999999996  0.83071  0.8039100000000001  1.0000
  C   C179      1.0  0.2455899999999999  0.6486500000000001  0.63472  1.0000
  C   C180      1.0  0.83904  0.7352300000000002  0.46183  1.0000
  C   C181      1.0  0.60666  0.002479999999999999  0.6834  1.0000
  C   C182      1.0  0.06849999999999999  0.12182000000000001  0.46203  1.0000
  C   C183      1.0  0.47072  0.13515  0.14917  1.0000
  C   C184      1.0  0.7014  0.20083000000000004  0.00259  1.0000
  C   C185      1.0  0.7179200000000001  0.64431  0.90994  1.0000
  C   C186      1.0  0.6667399999999998  0.9660200000000002  0.2217  1.0000
  C   C187      1.0  0.7577199999999996  0.78553  0.96964  1.0000
  C   C188      1.0  0.14929999999999985  0.4825900000000001  0.65051  1.0000
  C   C189      1.0  0.86296  0.89155  0.30452  1.0000
  C   C190      1.0  0.009119999999999937  0.44234000000000007  0.49053000000000013  1.0000
  C   C191      1.0  0.02703999999999993  0.4187700000000001  0.10906  1.0000
  C   C192      1.0  0.31775000000000025  0.67427  0.81824  1.0000
  C   C193      1.0  0.8535800000000001  0.7236700000000001  0.04254  1.0000
  C   C194      1.0  0.7592799999999998  0.09291  0.41099  1.0000
  C   C195      1.0  0.5475800000000001  0.4576000000000001  0.84877  1.0000
  C   C196      1.0  0.8450500000000001  0.37193  0.07119  1.0000
  C   C197      1.0  0.14557  0.34871  0.95871  1.0000
  C   C198      1.0  0.66997  0.29691000000000006  0.04106  1.0000
  C   C199      1.0  0.31634999999999996  0.40166  0.26199  1.0000
  C   C200      1.0  0.14913  0.35297  0.13288  1.0000
  C   C201      1.0  0.5564900000000002  0.87013  0.54971  1.0000
  C   C202      1.0  0.7791  0.018189999999999994  0.85012  1.0000
  C   C203      1.0  0.62708  0.25188  0.13801  1.0000
  C   C204      1.0  0.63695  0.6958800000000003  0.10812000000000001  1.0000
  C   C205      1.0  0.4369799999999999  0.2957200000000001  0.44273000000000007  1.0000
  C   C206      1.0  0.40509999999999996  0.47244  0.83575  1.0000
  C   C207      1.0  0.5634800000000001  0.061209999999999994  0.93861  1.0000
  C   C208      1.0  0.31020999999999976  0.9215000000000001  0.65036  1.0000
  C   C209      1.0  0.92794  0.3105700000000001  0.94315  1.0000
  C   C210      1.0  0.06826999999999994  0.41393000000000013  0.0534  1.0000
  C   C211      1.0  0.6224699999999996  0.9862900000000001  0.63428  1.0000
  C   C212      1.0  0.7797699999999999  0.057150000000000006  0.66409  1.0000
  C   C213      1.0  0.9813199999999997  0.7700200000000003  0.52444  1.0000
  C   C214      1.0  0.06388999999999996  0.55739  0.70451  1.0000
  C   C215      1.0  0.87255  0.26941000000000004  0.03656  1.0000
  C   C216      1.0  0.83676  0.11973000000000004  0.32067000000000007  1.0000
  C   C217      1.0  0.7961899999999998  0.99848  0.79924  1.0000
  C   C218      1.0  0.64449  0.57585  0.1714  1.0000
  C   C219      1.0  0.09507000000000002  0.16419  0.52761  1.0000
  C   C220      1.0  0.6256600000000001  0.24112000000000014  0.57508  1.0000
  C   C221      1.0  0.48869  0.04677  0.045430000000000005  1.0000
  C   C222      1.0  0.5289100000000001  0.68226  0.01178  1.0000
  C   C223      1.0  0.82254  0.69779  0.014270000000000001  1.0000
  C   C224      1.0  0.13264999999999996  0.14795  0.36750000000000005  1.0000
  C   C225      1.0  0.8928499999999998  0.40984  0.9750200000000001  1.0000
  C   C226      1.0  0.36537999999999987  0.6324699999999999  0.8530000000000001  1.0000
  C   C227      1.0  0.35610000000000014  0.52405  0.54413  1.0000
  C   C228      1.0  0.13960999999999998  0.84374  0.37459  1.0000
  C   C229      1.0  0.49844  0.16352000000000008  0.55713  1.0000
  C   C230      1.0  0.8928999999999999  0.3433400000000001  0.10732  1.0000
  C   C231      1.0  0.03504999999999998  0.08606000000000001  0.4476200000000001  1.0000
  C   C232      1.0  0.14516999999999994  0.72172  0.46582000000000007  1.0000
  C   C233      1.0  0.8769  0.19143  0.41156  1.0000
  C   C234      1.0  0.24254999999999996  0.66802  0.67906  1.0000
  C   C235      1.0  0.47924  0.09857000000000003  0.2382  1.0000
  C   C236      1.0  0.7404999999999999  0.5888400000000001  0.90728  1.0000
  C   C237      1.0  0.69926  0.29405000000000003  0.9843200000000001  1.0000
  C   C238      1.0  0.009759999999999826  0.9553200000000002  0.95335  1.0000
  C   C239      1.0  0.7126800000000002  0.57025  0.8727700000000002  1.0000
  C   C240      1.0  0.8582600000000001  0.34774  0.1623  1.0000
  C   C241      1.0  0.5023199999999999  0.45531000000000016  0.56502  1.0000
  C   C242      1.0  0.7072899999999995  0.14672000000000002  0.59441  1.0000
  C   C243      1.0  0.7168500000000001  0.15014  0.98294  1.0000
  C   C244      1.0  0.3076299999999999  0.5491300000000001  0.15304  1.0000
  C   C245      1.0  0.87401  0.42459000000000013  0.75917  1.0000
  C   C246      1.0  0.78183  0.09028000000000003  0.35555  1.0000
  C   C247      1.0  0.4646799999999999  0.55242  0.914  1.0000
  C   C248      1.0  0.26582  0.77487  0.39516  1.0000
  C   C249      1.0  0.053679999999999936  0.08144  0.39197000000000004  1.0000
  C   C250      1.0  0.8860800000000001  0.65662  0.77248  1.0000
  C   C251      1.0  0.8243799999999998  0.9433000000000002  0.79649  1.0000
  C   C252      1.0  0.6073999999999999  0.6706500000000002  0.07606  1.0000
  C   C253      1.0  0.50564  0.09365000000000002  0.18443  1.0000
  C   C254      1.0  0.72959  0.009890000000000006  0.13126  1.0000
  C   C255      1.0  0.36059999999999987  0.6255200000000002  0.15621  1.0000
  C   C256      1.0  0.35441  0.041440000000000005  0.65114  1.0000
  C   C257      1.0  0.29746999999999996  0.05341  0.57231  1.0000
  C   C258      1.0  0.8302200000000002  0.9594600000000002  0.70304  1.0000
  C   C259      1.0  0.76381  0.40627  0.08962000000000002  1.0000
  C   C260      1.0  0.4898899999999999  0.30232000000000003  0.33016000000000006  1.0000
  C   C261      1.0  0.62232  0.19703000000000004  0.17011  1.0000
  C   C262      1.0  0.9338  0.4027000000000001  0.92069  1.0000
  C   C263      1.0  0.62792  0.6152200000000001  0.07899  1.0000
  C   C264      1.0  0.08301999999999995  0.45355000000000006  0.45578  1.0000
  C   C265      1.0  0.09464999999999994  0.5022500000000002  0.70141  1.0000
  C   C266      1.0  0.41915  0.54457  0.54637  1.0000
  C   C267      1.0  0.28672  0.3366  0.9725200000000002  1.0000
  C   C268      1.0  0.75661  0.05548000000000001  0.29047  1.0000
  C   C269      1.0  0.7201300000000002  0.33555  0.94327  1.0000
  C   C270      1.0  0.97112  0.9880700000000002  0.31772  1.0000
  C   C271      1.0  0.5749  0.043640000000000005  0.025090000000000005  1.0000
  C   C272      1.0  0.5348399999999999  0.76352  0.03875  1.0000
  C   C273      1.0  0.5188700000000002  0.9106700000000001  0.6917  1.0000
  C   C274      1.0  0.89271  0.9235800000000002  0.32962  1.0000
  C   C275      1.0  0.67381  0.2037  0.05772  1.0000
  C   C276      1.0  0.64334  0.8735200000000001  0.34284  1.0000
  C   C277      1.0  0.77698  0.08968000000000001  0.52558  1.0000
  C   C278      1.0  0.4646499999999999  0.5132600000000002  0.19777  1.0000
  C   C279      1.0  0.54923  0.6272700000000001  0.01308  1.0000
  C   C280      1.0  0.3176899999999999  0.3559900000000001  0.24559  1.0000
  N   N1        1.0  0.9552699999999998  0.44655000000000006  0.88591  1.0000
  N   N2        1.0  0.8552299999999998  0.84036  0.55957  1.0000
  N   N3        1.0  0.7871400000000001  0.05317  0.61468  1.0000
  N   N4        1.0  0.75458  0.6595  0.94124  1.0000
  N   N5        1.0  0.6088200000000005  0.8965100000000001  0.51559  1.0000
  N   N6        1.0  0.88681  0.028020000000000007  0.94934  1.0000
  N   N7        1.0  0.11621999999999988  0.77918  0.8155600000000001  1.0000
  N   N8        1.0  0.54458  0.11405  0.55321  1.0000
  N   N9        1.0  0.7130499999999999  0.38496000000000014  0.94716  1.0000
  N   N10       1.0  0.97895  0.015020000000000004  0.39786  1.0000
  N   N11       1.0  0.2889399999999998  0.3163300000000001  0.27981  1.0000
  N   N12       1.0  0.6112400000000001  0.05097000000000001  0.97251  1.0000
  N   N13       1.0  0.21174999999999997  0.7199900000000001  0.6838300000000002  1.0000
  N   N14       1.0  0.5210999999999999  0.6020200000000001  0.9849000000000001  1.0000
  N   N15       1.0  0.74516  0.058899999999999994  0.34044  1.0000
  N   N16       1.0  0.8912899999999999  0.4847500000000001  0.10342000000000001  1.0000
  N   N17       1.0  0.38414  0.18400000000000005  0.22081  1.0000
  N   N18       1.0  0.13705999999999993  0.4478100000000001  0.52891  1.0000
  N   N19       1.0  0.6444900000000001  0.4404300000000001  0.15993000000000002  1.0000
  N   N20       1.0  0.36518  0.47143  0.55185  1.0000
  O   O1        1.0  0.55857  0.03767000000000001  0.45007  1.0000
  O   O2        1.0  0.008280000000000051  0.8529  0.47741  1.0000
  O   O3        1.0  0.2666  0.29017  0.16027000000000005  1.0000
  O   O4        1.0  0.98779  0.060090000000000005  0.48473  1.0000
  O   O5        1.0  0.65557  0.34034  0.05894  1.0000
  O   O6        1.0  0.8355599999999999  0.64718  0.024750000000000005  1.0000
  O   O7        1.0  0.6288799999999999  0.012459999999999994  0.54173  1.0000
  O   O8        1.0  0.9476200000000001  0.55796  0.8420400000000002  1.0000
  O   O9        1.0  0.14580000000000004  0.31724  0.22272  1.0000
  O   O10       1.0  0.69172  0.11247000000000003  0.01539  1.0000
  O   O11       1.0  0.31504000000000026  0.72239  0.81677  1.0000
  O   O12       1.0  0.9528999999999997  0.95009  0.53967  1.0000
  O   O13       1.0  0.8362  0.88484  0.98312  1.0000
  O   O14       1.0  0.6248300000000001  0.54135  0.04503  1.0000
  O   O15       1.0  0.5523600000000001  0.15812  0.44197  1.0000
  O   O16       1.0  0.8050600000000001  0.98585  0.88761  1.0000
  O   O17       1.0  0.7103400000000001  0.06301  0.44448  1.0000
  O   O18       1.0  0.031159999999999913  0.4392700000000001  0.01666  1.0000
  O   O19       1.0  0.8711399999999999  0.45821000000000006  0.98752  1.0000
  O   O20       1.0  0.4149799999999999  0.4876500000000001  0.3976  1.0000
  O   O21       1.0  0.08206999999999998  0.6024  0.51217  1.0000
  O   O22       1.0  0.54713  0.46028  0.05002  1.0000
  O   O23       1.0  0.28278  0.66  0.7904400000000001  1.0000
  O   O24       1.0  0.7550399999999999  0.14746  0.93369  1.0000
  O   O25       1.0  0.80091  0.015210000000000007  0.10247  1.0000
  O   O26       1.0  0.3539200000000001  0.77725  0.6827  1.0000
  O   O27       1.0  0.78863  0.54464  0.04249  1.0000
  O   O28       1.0  0.94152  0.54985  0.96215  1.0000
  O   O29       1.0  0.18521999999999997  0.18282  0.27744  1.0000
  O   O30       1.0  0.66817  0.01005  0.11501  1.0000
  O   O31       1.0  0.73888  0.06709000000000001  0.85307  1.0000
  O   O32       1.0  0.7116799999999999  0.95738  0.45544  1.0000
  O   O33       1.0  0.8165599999999998  0.04141  0.51289  1.0000
  O   O34       1.0  0.20406999999999995  0.6149800000000002  0.5137  1.0000
  O   O35       1.0  0.71857  0.43563000000000013  0.05596  1.0000
  O   O36       1.0  0.8446299999999999  0.94147  0.65968  1.0000
  O   O37       1.0  0.23327999999999974  0.83976  0.7098900000000002  1.0000
  O   O38       1.0  0.2930899999999999  0.4863800000000001  0.3847700000000001  1.0000
  O   O39       1.0  0.46865999999999997  0.9834500000000002  0.56062  1.0000
  O   O40       1.0  0.6643599999999998  0.9752100000000002  0.35275  1.0000
  O   O41       1.0  0.49188999999999994  0.52273  0.14712  1.0000
  O   O42       1.0  0.51249  0.51536  0.93963  1.0000
  O   O43       1.0  0.68343  0.48682  0.95891  1.0000
  O   O44       1.0  0.8752299999999998  0.9549200000000002  0.4586700000000001  1.0000
  O   O45       1.0  0.21194999999999992  0.21224  0.34006  1.0000
  O   O46       1.0  0.7812899999999998  0.9444300000000002  0.56453  1.0000
  O   O47       1.0  0.17953000000000005  0.5151  0.61281  1.0000
  O   O48       1.0  0.3235799999999999  0.3877000000000001  0.48477  1.0000
  O   O49       1.0  0.33788  0.3522500000000001  0.56684  1.0000
  O   O50       1.0  0.7895499999999999  0.5554000000000002  0.93708  1.0000
  O   O51       1.0  0.69881  0.8975900000000002  0.9876600000000002  1.0000
  O   O52       1.0  0.16303999999999993  0.4333700000000001  0.6477  1.0000
