data_image0
_chemical_formula_structural       Cu12H288C384N8O48
_chemical_formula_sum              "Cu12 H288 C384 N8 O48"
_cell_length_a       35.74771
_cell_length_b       35.74771
_cell_length_c       35.74771
_cell_angle_alpha    90.0
_cell_angle_beta     90.0
_cell_angle_gamma    90.0

_space_group_name_H-M_alt    "P 1"
_space_group_IT_number       1

loop_
  _space_group_symop_operation_xyz
  'x, y, z'

loop_
  _atom_site_type_symbol
  _atom_site_label
  _atom_site_symmetry_multiplicity
  _atom_site_fract_x
  _atom_site_fract_y
  _atom_site_fract_z
  _atom_site_occupancy
  Cu  Cu1       1.0  0.0  0.5  0.7840199999999999  1.0000
  Cu  Cu2       1.0  0.0  0.5  0.21598  1.0000
  Cu  Cu3       1.0  0.7840199999999999  0.0  0.5  1.0000
  Cu  Cu4       1.0  0.21598  0.0  0.5  1.0000
  Cu  Cu5       1.0  0.5  0.7840199999999999  0.0  1.0000
  Cu  Cu6       1.0  0.5  0.21598  0.0  1.0000
  Cu  Cu7       1.0  0.0  0.5  0.7159599999999999  1.0000
  Cu  Cu8       1.0  0.0  0.5  0.28404  1.0000
  Cu  Cu9       1.0  0.5  0.28404  0.0  1.0000
  Cu  Cu10      1.0  0.5  0.7159599999999999  0.0  1.0000
  Cu  Cu11      1.0  0.28404  0.0  0.5  1.0000
  Cu  Cu12      1.0  0.7159599999999999  0.0  0.5  1.0000
  H   H1        1.0  0.0868  0.57983  0.80983  1.0000
  H   H2        1.0  0.13566  0.62923  0.81007  1.0000
  H   H3        1.0  0.19319  0.64558  0.7993099999999999  1.0000
  H   H4        1.0  0.24974999999999997  0.62956  0.80733  1.0000
  H   H5        1.0  0.28507  0.65037  0.77929  1.0000
  H   H6        1.0  0.29014  0.64878  0.8287399999999999  1.0000
  H   H7        1.0  0.9132  0.4201699999999999  0.80983  1.0000
  H   H8        1.0  0.86434  0.37076  0.81007  1.0000
  H   H9        1.0  0.80681  0.35441  0.7993099999999999  1.0000
  H   H10       1.0  0.75025  0.37044  0.80733  1.0000
  H   H11       1.0  0.71492  0.34963  0.77929  1.0000
  H   H12       1.0  0.70986  0.35122  0.8287399999999999  1.0000
  H   H13       1.0  0.9132  0.57983  0.19016999999999998  1.0000
  H   H14       1.0  0.86434  0.62923  0.18993  1.0000
  H   H15       1.0  0.80681  0.64558  0.20069  1.0000
  H   H16       1.0  0.75025  0.62956  0.19267  1.0000
  H   H17       1.0  0.71492  0.65037  0.22071  1.0000
  H   H18       1.0  0.70986  0.64878  0.17126  1.0000
  H   H19       1.0  0.0868  0.4201699999999999  0.19016999999999998  1.0000
  H   H20       1.0  0.13566  0.37076  0.18993  1.0000
  H   H21       1.0  0.19319  0.35441  0.20069  1.0000
  H   H22       1.0  0.24974999999999997  0.37044  0.19267  1.0000
  H   H23       1.0  0.28507  0.34963  0.22071  1.0000
  H   H24       1.0  0.29014  0.35122  0.17126  1.0000
  H   H25       1.0  0.80983  0.0868  0.57983  1.0000
  H   H26       1.0  0.81007  0.13566  0.62923  1.0000
  H   H27       1.0  0.7993099999999999  0.19319  0.64558  1.0000
  H   H28       1.0  0.80733  0.24974999999999997  0.62956  1.0000
  H   H29       1.0  0.77929  0.28507  0.65037  1.0000
  H   H30       1.0  0.8287399999999999  0.29014  0.64878  1.0000
  H   H31       1.0  0.80983  0.9132  0.4201699999999999  1.0000
  H   H32       1.0  0.81007  0.86434  0.37076  1.0000
  H   H33       1.0  0.7993099999999999  0.80681  0.35441  1.0000
  H   H34       1.0  0.80733  0.75025  0.37044  1.0000
  H   H35       1.0  0.77929  0.71492  0.34963  1.0000
  H   H36       1.0  0.8287399999999999  0.70986  0.35122  1.0000
  H   H37       1.0  0.19016999999999998  0.9132  0.57983  1.0000
  H   H38       1.0  0.18993  0.86434  0.62923  1.0000
  H   H39       1.0  0.20069  0.80681  0.64558  1.0000
  H   H40       1.0  0.19267  0.75025  0.62956  1.0000
  H   H41       1.0  0.22071  0.71492  0.65037  1.0000
  H   H42       1.0  0.17126  0.70986  0.64878  1.0000
  H   H43       1.0  0.19016999999999998  0.0868  0.4201699999999999  1.0000
  H   H44       1.0  0.18993  0.13566  0.37076  1.0000
  H   H45       1.0  0.20069  0.19319  0.35441  1.0000
  H   H46       1.0  0.19267  0.24974999999999997  0.37044  1.0000
  H   H47       1.0  0.22071  0.28507  0.34963  1.0000
  H   H48       1.0  0.17126  0.29014  0.35122  1.0000
  H   H49       1.0  0.57983  0.80983  0.0868  1.0000
  H   H50       1.0  0.62923  0.81007  0.13566  1.0000
  H   H51       1.0  0.64558  0.7993099999999999  0.19319  1.0000
  H   H52       1.0  0.62956  0.80733  0.24974999999999997  1.0000
  H   H53       1.0  0.65037  0.77929  0.28507  1.0000
  H   H54       1.0  0.64878  0.8287399999999999  0.29014  1.0000
  H   H55       1.0  0.4201699999999999  0.80983  0.9132  1.0000
  H   H56       1.0  0.37076  0.81007  0.86434  1.0000
  H   H57       1.0  0.35441  0.7993099999999999  0.80681  1.0000
  H   H58       1.0  0.37044  0.80733  0.75025  1.0000
  H   H59       1.0  0.34963  0.77929  0.71492  1.0000
  H   H60       1.0  0.35122  0.8287399999999999  0.70986  1.0000
  H   H61       1.0  0.57983  0.19016999999999998  0.9132  1.0000
  H   H62       1.0  0.62923  0.18993  0.86434  1.0000
  H   H63       1.0  0.64558  0.20069  0.80681  1.0000
  H   H64       1.0  0.62956  0.19267  0.75025  1.0000
  H   H65       1.0  0.65037  0.22071  0.71492  1.0000
  H   H66       1.0  0.64878  0.17126  0.70986  1.0000
  H   H67       1.0  0.4201699999999999  0.19016999999999998  0.0868  1.0000
  H   H68       1.0  0.37076  0.18993  0.13566  1.0000
  H   H69       1.0  0.35441  0.20069  0.19319  1.0000
  H   H70       1.0  0.37044  0.19267  0.24974999999999997  1.0000
  H   H71       1.0  0.34963  0.22071  0.28507  1.0000
  H   H72       1.0  0.35122  0.17126  0.29014  1.0000
  H   H73       1.0  0.07982  0.58679  0.6901899999999999  1.0000
  H   H74       1.0  0.12923  0.63565  0.6899399999999999  1.0000
  H   H75       1.0  0.14558  0.69318  0.70069  1.0000
  H   H76       1.0  0.12956  0.74975  0.69267  1.0000
  H   H77       1.0  0.15037  0.78507  0.7207  1.0000
  H   H78       1.0  0.14878  0.79014  0.67126  1.0000
  H   H79       1.0  0.9201799999999999  0.41321  0.6901899999999999  1.0000
  H   H80       1.0  0.87077  0.36434999999999995  0.6899399999999999  1.0000
  H   H81       1.0  0.8544099999999999  0.30682  0.70069  1.0000
  H   H82       1.0  0.87044  0.25025  0.69267  1.0000
  H   H83       1.0  0.84963  0.21492  0.7207  1.0000
  H   H84       1.0  0.85121  0.20986  0.67126  1.0000
  H   H85       1.0  0.07982  0.41321  0.30981  1.0000
  H   H86       1.0  0.12923  0.36434999999999995  0.31006  1.0000
  H   H87       1.0  0.14558  0.30682  0.29931  1.0000
  H   H88       1.0  0.12956  0.25025  0.30733  1.0000
  H   H89       1.0  0.15037  0.21492  0.27929  1.0000
  H   H90       1.0  0.14878  0.20986  0.32874  1.0000
  H   H91       1.0  0.9201799999999999  0.58679  0.30981  1.0000
  H   H92       1.0  0.87077  0.63565  0.31006  1.0000
  H   H93       1.0  0.8544099999999999  0.69318  0.29931  1.0000
  H   H94       1.0  0.87044  0.74975  0.30733  1.0000
  H   H95       1.0  0.84963  0.78507  0.27929  1.0000
  H   H96       1.0  0.85121  0.79014  0.32874  1.0000
  H   H97       1.0  0.58679  0.30981  0.9201799999999999  1.0000
  H   H98       1.0  0.63565  0.31006  0.87077  1.0000
  H   H99       1.0  0.69318  0.29931  0.8544099999999999  1.0000
  H   H100      1.0  0.74975  0.30733  0.87044  1.0000
  H   H101      1.0  0.78507  0.27929  0.84963  1.0000
  H   H102      1.0  0.79014  0.32874  0.85121  1.0000
  H   H103      1.0  0.41321  0.30981  0.07982  1.0000
  H   H104      1.0  0.36434999999999995  0.31006  0.12923  1.0000
  H   H105      1.0  0.30682  0.29931  0.14558  1.0000
  H   H106      1.0  0.25025  0.30733  0.12956  1.0000
  H   H107      1.0  0.21492  0.27929  0.15037  1.0000
  H   H108      1.0  0.20986  0.32874  0.14878  1.0000
  H   H109      1.0  0.41321  0.6901899999999999  0.9201799999999999  1.0000
  H   H110      1.0  0.36434999999999995  0.6899399999999999  0.87077  1.0000
  H   H111      1.0  0.30682  0.70069  0.8544099999999999  1.0000
  H   H112      1.0  0.25025  0.69267  0.87044  1.0000
  H   H113      1.0  0.21492  0.7207  0.84963  1.0000
  H   H114      1.0  0.20986  0.67126  0.85121  1.0000
  H   H115      1.0  0.58679  0.6901899999999999  0.07982  1.0000
  H   H116      1.0  0.63565  0.6899399999999999  0.12923  1.0000
  H   H117      1.0  0.69318  0.70068  0.14558  1.0000
  H   H118      1.0  0.74975  0.69267  0.12956  1.0000
  H   H119      1.0  0.78507  0.7207  0.15037  1.0000
  H   H120      1.0  0.79014  0.67126  0.14878  1.0000
  H   H121      1.0  0.30981  0.07982  0.41321  1.0000
  H   H122      1.0  0.31006  0.12923  0.36434999999999995  1.0000
  H   H123      1.0  0.29931  0.14558  0.30682  1.0000
  H   H124      1.0  0.30733  0.12956  0.25025  1.0000
  H   H125      1.0  0.27929  0.15037  0.21492  1.0000
  H   H126      1.0  0.32874  0.14878  0.20986  1.0000
  H   H127      1.0  0.30981  0.9201799999999999  0.58679  1.0000
  H   H128      1.0  0.31006  0.87077  0.63565  1.0000
  H   H129      1.0  0.29931  0.8544099999999999  0.69318  1.0000
  H   H130      1.0  0.30733  0.87044  0.74975  1.0000
  H   H131      1.0  0.27929  0.84963  0.78507  1.0000
  H   H132      1.0  0.32874  0.85121  0.79014  1.0000
  H   H133      1.0  0.6901899999999999  0.07982  0.58679  1.0000
  H   H134      1.0  0.6899399999999999  0.12923  0.63565  1.0000
  H   H135      1.0  0.70068  0.14558  0.69318  1.0000
  H   H136      1.0  0.69267  0.12956  0.74975  1.0000
  H   H137      1.0  0.7207  0.15037  0.78507  1.0000
  H   H138      1.0  0.67126  0.14878  0.79014  1.0000
  H   H139      1.0  0.6901899999999999  0.9201799999999999  0.41321  1.0000
  H   H140      1.0  0.6899399999999999  0.87077  0.36434999999999995  1.0000
  H   H141      1.0  0.70068  0.8544099999999999  0.30682  1.0000
  H   H142      1.0  0.69267  0.87044  0.25025  1.0000
  H   H143      1.0  0.7207  0.84963  0.21492  1.0000
  H   H144      1.0  0.67126  0.85121  0.20986  1.0000
  H   H145      1.0  0.9132  0.4201699999999999  0.19016999999999998  1.0000
  H   H146      1.0  0.86434  0.37076  0.18993  1.0000
  H   H147      1.0  0.80681  0.35441  0.20069  1.0000
  H   H148      1.0  0.75025  0.37044  0.19267  1.0000
  H   H149      1.0  0.71492  0.34963  0.22071  1.0000
  H   H150      1.0  0.70986  0.35122  0.17126  1.0000
  H   H151      1.0  0.0868  0.57983  0.19016999999999998  1.0000
  H   H152      1.0  0.13566  0.62923  0.18993  1.0000
  H   H153      1.0  0.19319  0.64558  0.20069  1.0000
  H   H154      1.0  0.24974999999999997  0.62956  0.19267  1.0000
  H   H155      1.0  0.28507  0.65037  0.22071  1.0000
  H   H156      1.0  0.29014  0.64878  0.17126  1.0000
  H   H157      1.0  0.0868  0.4201699999999999  0.80983  1.0000
  H   H158      1.0  0.13566  0.37076  0.81007  1.0000
  H   H159      1.0  0.19319  0.35441  0.7993099999999999  1.0000
  H   H160      1.0  0.24974999999999997  0.37044  0.80733  1.0000
  H   H161      1.0  0.28507  0.34963  0.77929  1.0000
  H   H162      1.0  0.29014  0.35122  0.8287399999999999  1.0000
  H   H163      1.0  0.9132  0.57983  0.80983  1.0000
  H   H164      1.0  0.86434  0.62923  0.81007  1.0000
  H   H165      1.0  0.80681  0.64558  0.7993099999999999  1.0000
  H   H166      1.0  0.75025  0.62956  0.80733  1.0000
  H   H167      1.0  0.71492  0.65037  0.77929  1.0000
  H   H168      1.0  0.70986  0.64878  0.8287399999999999  1.0000
  H   H169      1.0  0.19016999999999998  0.9132  0.4201699999999999  1.0000
  H   H170      1.0  0.18993  0.86434  0.37076  1.0000
  H   H171      1.0  0.20069  0.80681  0.35441  1.0000
  H   H172      1.0  0.19267  0.75025  0.37044  1.0000
  H   H173      1.0  0.22071  0.71492  0.34963  1.0000
  H   H174      1.0  0.17126  0.70986  0.35122  1.0000
  H   H175      1.0  0.19016999999999998  0.0868  0.57983  1.0000
  H   H176      1.0  0.18993  0.13566  0.62923  1.0000
  H   H177      1.0  0.20069  0.19319  0.64558  1.0000
  H   H178      1.0  0.19267  0.24974999999999997  0.62956  1.0000
  H   H179      1.0  0.22071  0.28507  0.65037  1.0000
  H   H180      1.0  0.17126  0.29014  0.64878  1.0000
  H   H181      1.0  0.80983  0.0868  0.4201699999999999  1.0000
  H   H182      1.0  0.81007  0.13566  0.37076  1.0000
  H   H183      1.0  0.7993099999999999  0.19319  0.35441  1.0000
  H   H184      1.0  0.80733  0.24974999999999997  0.37044  1.0000
  H   H185      1.0  0.77929  0.28507  0.34963  1.0000
  H   H186      1.0  0.8287399999999999  0.29014  0.35122  1.0000
  H   H187      1.0  0.80983  0.9132  0.57983  1.0000
  H   H188      1.0  0.81007  0.86434  0.62923  1.0000
  H   H189      1.0  0.7993099999999999  0.80681  0.64558  1.0000
  H   H190      1.0  0.80733  0.75025  0.62956  1.0000
  H   H191      1.0  0.77929  0.71492  0.65037  1.0000
  H   H192      1.0  0.8287399999999999  0.70986  0.64878  1.0000
  H   H193      1.0  0.4201699999999999  0.19016999999999998  0.9132  1.0000
  H   H194      1.0  0.37076  0.18993  0.86434  1.0000
  H   H195      1.0  0.35441  0.20069  0.80681  1.0000
  H   H196      1.0  0.37044  0.19267  0.75025  1.0000
  H   H197      1.0  0.34963  0.22071  0.71492  1.0000
  H   H198      1.0  0.35122  0.17126  0.70986  1.0000
  H   H199      1.0  0.57983  0.19016999999999998  0.0868  1.0000
  H   H200      1.0  0.62923  0.18993  0.13566  1.0000
  H   H201      1.0  0.64558  0.20069  0.19319  1.0000
  H   H202      1.0  0.62956  0.19267  0.24974999999999997  1.0000
  H   H203      1.0  0.65037  0.22071  0.28507  1.0000
  H   H204      1.0  0.64878  0.17126  0.29014  1.0000
  H   H205      1.0  0.4201699999999999  0.80983  0.0868  1.0000
  H   H206      1.0  0.37076  0.81007  0.13566  1.0000
  H   H207      1.0  0.35441  0.7993099999999999  0.19319  1.0000
  H   H208      1.0  0.37044  0.80733  0.24974999999999997  1.0000
  H   H209      1.0  0.34963  0.77929  0.28507  1.0000
  H   H210      1.0  0.35122  0.8287399999999999  0.29014  1.0000
  H   H211      1.0  0.57983  0.80983  0.9132  1.0000
  H   H212      1.0  0.62923  0.81007  0.86434  1.0000
  H   H213      1.0  0.64558  0.7993099999999999  0.80681  1.0000
  H   H214      1.0  0.62956  0.80733  0.75025  1.0000
  H   H215      1.0  0.65037  0.77929  0.71492  1.0000
  H   H216      1.0  0.64878  0.8287399999999999  0.70986  1.0000
  H   H217      1.0  0.9201799999999999  0.41321  0.30981  1.0000
  H   H218      1.0  0.87077  0.36434999999999995  0.31006  1.0000
  H   H219      1.0  0.8544099999999999  0.30682  0.29931  1.0000
  H   H220      1.0  0.87044  0.25025  0.30733  1.0000
  H   H221      1.0  0.84963  0.21492  0.27929  1.0000
  H   H222      1.0  0.85121  0.20986  0.32874  1.0000
  H   H223      1.0  0.07982  0.58679  0.30981  1.0000
  H   H224      1.0  0.12923  0.63565  0.31006  1.0000
  H   H225      1.0  0.14558  0.69318  0.29931  1.0000
  H   H226      1.0  0.12956  0.74975  0.30733  1.0000
  H   H227      1.0  0.15037  0.78507  0.27929  1.0000
  H   H228      1.0  0.14878  0.79014  0.32874  1.0000
  H   H229      1.0  0.9201799999999999  0.58679  0.6901899999999999  1.0000
  H   H230      1.0  0.87077  0.63565  0.6899399999999999  1.0000
  H   H231      1.0  0.8544099999999999  0.69318  0.70069  1.0000
  H   H232      1.0  0.87044  0.74975  0.69267  1.0000
  H   H233      1.0  0.84963  0.78507  0.7207  1.0000
  H   H234      1.0  0.85121  0.79014  0.67126  1.0000
  H   H235      1.0  0.07982  0.41321  0.6901899999999999  1.0000
  H   H236      1.0  0.12923  0.36434999999999995  0.6899399999999999  1.0000
  H   H237      1.0  0.14558  0.30682  0.70069  1.0000
  H   H238      1.0  0.12956  0.25025  0.69267  1.0000
  H   H239      1.0  0.15037  0.21492  0.7207  1.0000
  H   H240      1.0  0.14878  0.20986  0.67126  1.0000
  H   H241      1.0  0.41321  0.6901899999999999  0.07982  1.0000
  H   H242      1.0  0.36434999999999995  0.6899399999999999  0.12923  1.0000
  H   H243      1.0  0.30682  0.70069  0.14558  1.0000
  H   H244      1.0  0.25025  0.69267  0.12956  1.0000
  H   H245      1.0  0.21492  0.7207  0.15037  1.0000
  H   H246      1.0  0.20986  0.67126  0.14878  1.0000
  H   H247      1.0  0.58679  0.6901899999999999  0.9201799999999999  1.0000
  H   H248      1.0  0.63565  0.6899399999999999  0.87077  1.0000
  H   H249      1.0  0.69318  0.70069  0.8544099999999999  1.0000
  H   H250      1.0  0.74975  0.69267  0.87044  1.0000
  H   H251      1.0  0.78507  0.7207  0.84963  1.0000
  H   H252      1.0  0.79014  0.67126  0.85121  1.0000
  H   H253      1.0  0.58679  0.30981  0.07982  1.0000
  H   H254      1.0  0.63565  0.31006  0.12923  1.0000
  H   H255      1.0  0.69318  0.29931  0.14558  1.0000
  H   H256      1.0  0.74975  0.30733  0.12956  1.0000
  H   H257      1.0  0.78507  0.27929  0.15037  1.0000
  H   H258      1.0  0.79014  0.32874  0.14878  1.0000
  H   H259      1.0  0.41321  0.30981  0.9201799999999999  1.0000
  H   H260      1.0  0.36434999999999995  0.31006  0.87077  1.0000
  H   H261      1.0  0.30682  0.29931  0.8544099999999999  1.0000
  H   H262      1.0  0.25025  0.30733  0.87044  1.0000
  H   H263      1.0  0.21492  0.27929  0.84963  1.0000
  H   H264      1.0  0.20986  0.32874  0.85121  1.0000
  H   H265      1.0  0.6901899999999999  0.9201799999999999  0.58679  1.0000
  H   H266      1.0  0.6899399999999999  0.87077  0.63565  1.0000
  H   H267      1.0  0.70068  0.8544099999999999  0.69318  1.0000
  H   H268      1.0  0.69267  0.87044  0.74975  1.0000
  H   H269      1.0  0.7207  0.84963  0.78507  1.0000
  H   H270      1.0  0.67126  0.85121  0.79014  1.0000
  H   H271      1.0  0.6901899999999999  0.07982  0.41321  1.0000
  H   H272      1.0  0.6899399999999999  0.12923  0.36434999999999995  1.0000
  H   H273      1.0  0.70068  0.14558  0.30682  1.0000
  H   H274      1.0  0.69267  0.12956  0.25025  1.0000
  H   H275      1.0  0.7207  0.15037  0.21492  1.0000
  H   H276      1.0  0.67126  0.14878  0.20986  1.0000
  H   H277      1.0  0.30981  0.9201799999999999  0.41321  1.0000
  H   H278      1.0  0.31006  0.87077  0.36434999999999995  1.0000
  H   H279      1.0  0.29931  0.8544099999999999  0.30682  1.0000
  H   H280      1.0  0.30733  0.87044  0.25025  1.0000
  H   H281      1.0  0.27929  0.84963  0.21492  1.0000
  H   H282      1.0  0.32874  0.85121  0.20986  1.0000
  H   H283      1.0  0.30981  0.07982  0.58679  1.0000
  H   H284      1.0  0.31006  0.12923  0.63565  1.0000
  H   H285      1.0  0.29931  0.14558  0.69318  1.0000
  H   H286      1.0  0.30733  0.12956  0.74975  1.0000
  H   H287      1.0  0.27929  0.15037  0.78507  1.0000
  H   H288      1.0  0.32874  0.14878  0.79014  1.0000
  C   C1        1.0  0.0964  0.59224  0.78378  1.0000
  C   C2        1.0  0.1239  0.61972  0.7836699999999999  1.0000
  C   C3        1.0  0.19295  0.66687  0.77761  1.0000
  C   C4        1.0  0.22111  0.69391  0.778  1.0000
  C   C5        1.0  0.26999  0.65258  0.80593  1.0000
  C   C6        1.0  0.9035999999999998  0.40776  0.78378  1.0000
  C   C7        1.0  0.8761  0.38028  0.7836699999999999  1.0000
  C   C8        1.0  0.80705  0.33313  0.77761  1.0000
  C   C9        1.0  0.77889  0.30609  0.778  1.0000
  C   C10       1.0  0.73001  0.34742  0.80593  1.0000
  C   C11       1.0  0.9035999999999998  0.59224  0.21621999999999997  1.0000
  C   C12       1.0  0.8761  0.61972  0.21632  1.0000
  C   C13       1.0  0.80705  0.66687  0.22239  1.0000
  C   C14       1.0  0.77889  0.69391  0.22199999999999998  1.0000
  C   C15       1.0  0.73001  0.65258  0.19407  1.0000
  C   C16       1.0  0.0964  0.40776  0.21621999999999997  1.0000
  C   C17       1.0  0.1239  0.38028  0.21632  1.0000
  C   C18       1.0  0.19295  0.33313  0.22239  1.0000
  C   C19       1.0  0.22111  0.30609  0.22199999999999998  1.0000
  C   C20       1.0  0.26999  0.34742  0.19407  1.0000
  C   C21       1.0  0.78378  0.0964  0.59224  1.0000
  C   C22       1.0  0.7836699999999999  0.1239  0.61972  1.0000
  C   C23       1.0  0.77761  0.19295  0.66687  1.0000
  C   C24       1.0  0.778  0.22111  0.69391  1.0000
  C   C25       1.0  0.80593  0.26999  0.65258  1.0000
  C   C26       1.0  0.78378  0.9035999999999998  0.40776  1.0000
  C   C27       1.0  0.7836699999999999  0.8761  0.38028  1.0000
  C   C28       1.0  0.77761  0.80705  0.33313  1.0000
  C   C29       1.0  0.778  0.77889  0.30609  1.0000
  C   C30       1.0  0.80593  0.73001  0.34742  1.0000
  C   C31       1.0  0.21621999999999997  0.9035999999999998  0.59224  1.0000
  C   C32       1.0  0.21632  0.8761  0.61972  1.0000
  C   C33       1.0  0.22239  0.80705  0.66687  1.0000
  C   C34       1.0  0.22199999999999998  0.77889  0.69391  1.0000
  C   C35       1.0  0.19407  0.73001  0.65258  1.0000
  C   C36       1.0  0.21621999999999997  0.0964  0.40776  1.0000
  C   C37       1.0  0.21632  0.1239  0.38028  1.0000
  C   C38       1.0  0.22239  0.19295  0.33313  1.0000
  C   C39       1.0  0.22199999999999998  0.22111  0.30609  1.0000
  C   C40       1.0  0.19407  0.26999  0.34742  1.0000
  C   C41       1.0  0.59224  0.78378  0.0964  1.0000
  C   C42       1.0  0.61972  0.7836699999999999  0.1239  1.0000
  C   C43       1.0  0.66687  0.77761  0.19295  1.0000
  C   C44       1.0  0.69391  0.778  0.22111  1.0000
  C   C45       1.0  0.65258  0.80593  0.26999  1.0000
  C   C46       1.0  0.40776  0.78378  0.9035999999999998  1.0000
  C   C47       1.0  0.38028  0.7836699999999999  0.8761  1.0000
  C   C48       1.0  0.33313  0.77761  0.80705  1.0000
  C   C49       1.0  0.30609  0.778  0.77889  1.0000
  C   C50       1.0  0.34742  0.80593  0.73001  1.0000
  C   C51       1.0  0.59224  0.21621999999999997  0.9035999999999998  1.0000
  C   C52       1.0  0.61972  0.21632  0.8761  1.0000
  C   C53       1.0  0.66687  0.22239  0.80705  1.0000
  C   C54       1.0  0.69391  0.22199999999999998  0.77889  1.0000
  C   C55       1.0  0.65258  0.19407  0.73001  1.0000
  C   C56       1.0  0.40776  0.21621999999999997  0.0964  1.0000
  C   C57       1.0  0.38028  0.21632  0.1239  1.0000
  C   C58       1.0  0.33313  0.22239  0.19295  1.0000
  C   C59       1.0  0.30609  0.22199999999999998  0.22111  1.0000
  C   C60       1.0  0.34742  0.19407  0.26999  1.0000
  C   C61       1.0  0.09224999999999997  0.59638  0.7162399999999999  1.0000
  C   C62       1.0  0.11970999999999998  0.6238999999999999  0.71633  1.0000
  C   C63       1.0  0.16687  0.69295  0.7223899999999999  1.0000
  C   C64       1.0  0.19391  0.7211  0.72199  1.0000
  C   C65       1.0  0.15258  0.7699799999999998  0.6940699999999999  1.0000
  C   C66       1.0  0.90775  0.40362  0.7162399999999999  1.0000
  C   C67       1.0  0.88029  0.3761  0.71633  1.0000
  C   C68       1.0  0.83313  0.30705  0.7223899999999999  1.0000
  C   C69       1.0  0.8060899999999998  0.27889  0.72199  1.0000
  C   C70       1.0  0.84742  0.23001  0.6940699999999999  1.0000
  C   C71       1.0  0.09224999999999997  0.40362  0.28376  1.0000
  C   C72       1.0  0.11970999999999998  0.3761  0.28367  1.0000
  C   C73       1.0  0.16687  0.30705  0.2776  1.0000
  C   C74       1.0  0.19391  0.27889  0.27801  1.0000
  C   C75       1.0  0.15258  0.23001  0.30593  1.0000
  C   C76       1.0  0.90775  0.59638  0.28376  1.0000
  C   C77       1.0  0.88029  0.6238999999999999  0.28367  1.0000
  C   C78       1.0  0.83313  0.69295  0.2776  1.0000
  C   C79       1.0  0.8060899999999998  0.7211  0.27801  1.0000
  C   C80       1.0  0.84742  0.7699799999999998  0.30593  1.0000
  C   C81       1.0  0.59638  0.28376  0.90775  1.0000
  C   C82       1.0  0.6238999999999999  0.28367  0.88029  1.0000
  C   C83       1.0  0.69295  0.2776  0.83313  1.0000
  C   C84       1.0  0.7211  0.27801  0.8060899999999998  1.0000
  C   C85       1.0  0.7699799999999998  0.30593  0.84742  1.0000
  C   C86       1.0  0.40362  0.28376  0.09224999999999997  1.0000
  C   C87       1.0  0.3761  0.28367  0.11970999999999998  1.0000
  C   C88       1.0  0.30705  0.2776  0.16687  1.0000
  C   C89       1.0  0.27889  0.27801  0.19391  1.0000
  C   C90       1.0  0.23001  0.30593  0.15258  1.0000
  C   C91       1.0  0.40362  0.7162399999999999  0.90775  1.0000
  C   C92       1.0  0.3761  0.71633  0.88029  1.0000
  C   C93       1.0  0.30705  0.7223899999999999  0.83313  1.0000
  C   C94       1.0  0.27889  0.72199  0.8060899999999998  1.0000
  C   C95       1.0  0.23001  0.6940699999999999  0.84742  1.0000
  C   C96       1.0  0.59638  0.7162399999999999  0.09224999999999997  1.0000
  C   C97       1.0  0.6238999999999999  0.71633  0.11970999999999998  1.0000
  C   C98       1.0  0.69295  0.7223899999999999  0.16687  1.0000
  C   C99       1.0  0.7211  0.72199  0.19391  1.0000
  C   C100      1.0  0.7699799999999998  0.6940699999999999  0.15258  1.0000
  C   C101      1.0  0.28376  0.09224999999999997  0.40362  1.0000
  C   C102      1.0  0.28367  0.11970999999999998  0.3761  1.0000
  C   C103      1.0  0.2776  0.16687  0.30705  1.0000
  C   C104      1.0  0.27801  0.19391  0.27889  1.0000
  C   C105      1.0  0.30593  0.15258  0.23001  1.0000
  C   C106      1.0  0.28376  0.90775  0.59638  1.0000
  C   C107      1.0  0.28367  0.88029  0.6238999999999999  1.0000
  C   C108      1.0  0.2776  0.83313  0.69295  1.0000
  C   C109      1.0  0.27801  0.8060899999999998  0.7211  1.0000
  C   C110      1.0  0.30593  0.84742  0.7699799999999998  1.0000
  C   C111      1.0  0.7162399999999999  0.09224999999999997  0.59638  1.0000
  C   C112      1.0  0.71633  0.11970999999999998  0.6238999999999999  1.0000
  C   C113      1.0  0.7223899999999999  0.16687  0.69295  1.0000
  C   C114      1.0  0.72199  0.19391  0.7211  1.0000
  C   C115      1.0  0.6940699999999999  0.15258  0.7699799999999998  1.0000
  C   C116      1.0  0.7162399999999999  0.90775  0.40362  1.0000
  C   C117      1.0  0.71633  0.88029  0.3761  1.0000
  C   C118      1.0  0.7223899999999999  0.83313  0.30705  1.0000
  C   C119      1.0  0.72199  0.8060899999999998  0.27889  1.0000
  C   C120      1.0  0.6940699999999999  0.84742  0.23001  1.0000
  C   C121      1.0  0.9035999999999998  0.40776  0.21621999999999997  1.0000
  C   C122      1.0  0.8761  0.38028  0.21632  1.0000
  C   C123      1.0  0.80705  0.33313  0.22239  1.0000
  C   C124      1.0  0.77889  0.30609  0.22199999999999998  1.0000
  C   C125      1.0  0.73001  0.34742  0.19407  1.0000
  C   C126      1.0  0.0964  0.59224  0.21621999999999997  1.0000
  C   C127      1.0  0.1239  0.61972  0.21632  1.0000
  C   C128      1.0  0.19295  0.66687  0.22239  1.0000
  C   C129      1.0  0.22111  0.69391  0.22199999999999998  1.0000
  C   C130      1.0  0.26999  0.65258  0.19407  1.0000
  C   C131      1.0  0.0964  0.40776  0.78378  1.0000
  C   C132      1.0  0.1239  0.38028  0.7836699999999999  1.0000
  C   C133      1.0  0.19295  0.33313  0.77761  1.0000
  C   C134      1.0  0.22111  0.30609  0.778  1.0000
  C   C135      1.0  0.26999  0.34742  0.80593  1.0000
  C   C136      1.0  0.9035999999999998  0.59224  0.78378  1.0000
  C   C137      1.0  0.8761  0.61972  0.7836699999999999  1.0000
  C   C138      1.0  0.80705  0.66687  0.77761  1.0000
  C   C139      1.0  0.77889  0.69391  0.778  1.0000
  C   C140      1.0  0.73001  0.65258  0.80593  1.0000
  C   C141      1.0  0.21621999999999997  0.9035999999999998  0.40776  1.0000
  C   C142      1.0  0.21632  0.8761  0.38028  1.0000
  C   C143      1.0  0.22239  0.80705  0.33313  1.0000
  C   C144      1.0  0.22199999999999998  0.77889  0.30609  1.0000
  C   C145      1.0  0.19407  0.73001  0.34742  1.0000
  C   C146      1.0  0.21621999999999997  0.0964  0.59224  1.0000
  C   C147      1.0  0.21632  0.1239  0.61972  1.0000
  C   C148      1.0  0.22239  0.19295  0.66687  1.0000
  C   C149      1.0  0.22199999999999998  0.22111  0.69391  1.0000
  C   C150      1.0  0.19407  0.26999  0.65258  1.0000
  C   C151      1.0  0.78378  0.0964  0.40776  1.0000
  C   C152      1.0  0.7836699999999999  0.1239  0.38028  1.0000
  C   C153      1.0  0.77761  0.19295  0.33313  1.0000
  C   C154      1.0  0.778  0.22111  0.30609  1.0000
  C   C155      1.0  0.80593  0.26999  0.34742  1.0000
  C   C156      1.0  0.78378  0.9035999999999998  0.59224  1.0000
  C   C157      1.0  0.7836699999999999  0.8761  0.61972  1.0000
  C   C158      1.0  0.77761  0.80705  0.66687  1.0000
  C   C159      1.0  0.778  0.77889  0.69391  1.0000
  C   C160      1.0  0.80593  0.73001  0.65258  1.0000
  C   C161      1.0  0.40776  0.21621999999999997  0.9035999999999998  1.0000
  C   C162      1.0  0.38028  0.21632  0.8761  1.0000
  C   C163      1.0  0.33313  0.22239  0.80705  1.0000
  C   C164      1.0  0.30609  0.22199999999999998  0.77889  1.0000
  C   C165      1.0  0.34742  0.19407  0.73001  1.0000
  C   C166      1.0  0.59224  0.21621999999999997  0.0964  1.0000
  C   C167      1.0  0.61972  0.21632  0.1239  1.0000
  C   C168      1.0  0.66687  0.22239  0.19295  1.0000
  C   C169      1.0  0.69391  0.22199999999999998  0.22111  1.0000
  C   C170      1.0  0.65258  0.19407  0.26999  1.0000
  C   C171      1.0  0.40776  0.78378  0.0964  1.0000
  C   C172      1.0  0.38028  0.7836699999999999  0.1239  1.0000
  C   C173      1.0  0.33313  0.77761  0.19295  1.0000
  C   C174      1.0  0.30609  0.778  0.22111  1.0000
  C   C175      1.0  0.34742  0.80593  0.26999  1.0000
  C   C176      1.0  0.59224  0.78378  0.9035999999999998  1.0000
  C   C177      1.0  0.61972  0.7836699999999999  0.8761  1.0000
  C   C178      1.0  0.66687  0.77761  0.80705  1.0000
  C   C179      1.0  0.69391  0.778  0.77889  1.0000
  C   C180      1.0  0.65258  0.80593  0.73001  1.0000
  C   C181      1.0  0.90775  0.40362  0.28376  1.0000
  C   C182      1.0  0.88029  0.3761  0.28367  1.0000
  C   C183      1.0  0.83313  0.30705  0.2776  1.0000
  C   C184      1.0  0.8060899999999998  0.27889  0.27801  1.0000
  C   C185      1.0  0.84742  0.23001  0.30593  1.0000
  C   C186      1.0  0.09224999999999997  0.59638  0.28376  1.0000
  C   C187      1.0  0.11970999999999998  0.6238999999999999  0.28367  1.0000
  C   C188      1.0  0.16687  0.69295  0.2776  1.0000
  C   C189      1.0  0.19391  0.7211  0.27801  1.0000
  C   C190      1.0  0.15258  0.7699799999999998  0.30593  1.0000
  C   C191      1.0  0.90775  0.59638  0.7162399999999999  1.0000
  C   C192      1.0  0.88029  0.6238999999999999  0.71633  1.0000
  C   C193      1.0  0.83313  0.69295  0.7223899999999999  1.0000
  C   C194      1.0  0.8060899999999998  0.7211  0.72199  1.0000
  C   C195      1.0  0.84742  0.7699799999999998  0.6940699999999999  1.0000
  C   C196      1.0  0.09224999999999997  0.40362  0.7162399999999999  1.0000
  C   C197      1.0  0.11970999999999998  0.3761  0.71633  1.0000
  C   C198      1.0  0.16687  0.30705  0.7223899999999999  1.0000
  C   C199      1.0  0.19391  0.27889  0.72199  1.0000
  C   C200      1.0  0.15258  0.23001  0.6940699999999999  1.0000
  C   C201      1.0  0.40362  0.7162399999999999  0.09224999999999997  1.0000
  C   C202      1.0  0.3761  0.71633  0.11970999999999998  1.0000
  C   C203      1.0  0.30705  0.7223899999999999  0.16687  1.0000
  C   C204      1.0  0.27889  0.72199  0.19391  1.0000
  C   C205      1.0  0.23001  0.6940699999999999  0.15258  1.0000
  C   C206      1.0  0.59638  0.7162399999999999  0.90775  1.0000
  C   C207      1.0  0.6238999999999999  0.71633  0.88029  1.0000
  C   C208      1.0  0.69295  0.7223899999999999  0.83313  1.0000
  C   C209      1.0  0.7211  0.72199  0.8060899999999998  1.0000
  C   C210      1.0  0.7699799999999998  0.6940699999999999  0.84742  1.0000
  C   C211      1.0  0.59638  0.28376  0.09224999999999997  1.0000
  C   C212      1.0  0.6238999999999999  0.28367  0.11970999999999998  1.0000
  C   C213      1.0  0.69295  0.2776  0.16687  1.0000
  C   C214      1.0  0.7211  0.27801  0.19391  1.0000
  C   C215      1.0  0.7699799999999998  0.30593  0.15258  1.0000
  C   C216      1.0  0.40362  0.28376  0.90775  1.0000
  C   C217      1.0  0.3761  0.28367  0.88029  1.0000
  C   C218      1.0  0.30705  0.2776  0.83313  1.0000
  C   C219      1.0  0.27889  0.27801  0.8060899999999998  1.0000
  C   C220      1.0  0.23001  0.30593  0.84742  1.0000
  C   C221      1.0  0.7162399999999999  0.90775  0.59638  1.0000
  C   C222      1.0  0.71633  0.88029  0.6238999999999999  1.0000
  C   C223      1.0  0.7223899999999999  0.83313  0.69295  1.0000
  C   C224      1.0  0.72199  0.8060899999999998  0.7211  1.0000
  C   C225      1.0  0.6940699999999999  0.84742  0.7699799999999998  1.0000
  C   C226      1.0  0.7162399999999999  0.09224999999999997  0.40362  1.0000
  C   C227      1.0  0.71633  0.11970999999999998  0.3761  1.0000
  C   C228      1.0  0.7223899999999999  0.16687  0.30705  1.0000
  C   C229      1.0  0.72199  0.19391  0.27889  1.0000
  C   C230      1.0  0.6940699999999999  0.15258  0.23001  1.0000
  C   C231      1.0  0.28376  0.90775  0.40362  1.0000
  C   C232      1.0  0.28367  0.88029  0.3761  1.0000
  C   C233      1.0  0.2776  0.83313  0.30705  1.0000
  C   C234      1.0  0.27801  0.8060899999999998  0.27889  1.0000
  C   C235      1.0  0.30593  0.84742  0.23001  1.0000
  C   C236      1.0  0.28376  0.09224999999999997  0.59638  1.0000
  C   C237      1.0  0.28367  0.11970999999999998  0.6238999999999999  1.0000
  C   C238      1.0  0.2776  0.16687  0.69295  1.0000
  C   C239      1.0  0.27801  0.19391  0.7211  1.0000
  C   C240      1.0  0.30593  0.15258  0.7699799999999998  1.0000
  C   C241      1.0  0.05084999999999999  0.55086  0.75  1.0000
  C   C242      1.0  0.08027  0.58028  0.75001  1.0000
  C   C243      1.0  0.13617  0.63616  0.75001  1.0000
  C   C244      1.0  0.16530999999999998  0.66531  0.75  1.0000
  C   C245      1.0  0.22187999999999994  0.72188  0.75  1.0000
  C   C246      1.0  0.94915  0.44914  0.75  1.0000
  C   C247      1.0  0.91973  0.41972  0.75001  1.0000
  C   C248      1.0  0.86383  0.36384  0.75001  1.0000
  C   C249      1.0  0.83469  0.33469  0.75  1.0000
  C   C250      1.0  0.7781199999999999  0.27812  0.75  1.0000
  C   C251      1.0  0.94915  0.55086  0.25  1.0000
  C   C252      1.0  0.91973  0.58028  0.24999  1.0000
  C   C253      1.0  0.86383  0.63616  0.24999  1.0000
  C   C254      1.0  0.83469  0.66531  0.25  1.0000
  C   C255      1.0  0.7781199999999999  0.72188  0.25  1.0000
  C   C256      1.0  0.05084999999999999  0.44914  0.25  1.0000
  C   C257      1.0  0.08027  0.41972  0.24999  1.0000
  C   C258      1.0  0.13617  0.36384  0.24999  1.0000
  C   C259      1.0  0.16530999999999998  0.33469  0.25  1.0000
  C   C260      1.0  0.22187999999999994  0.27812  0.25  1.0000
  C   C261      1.0  0.75  0.05084999999999999  0.55086  1.0000
  C   C262      1.0  0.75001  0.08027  0.58028  1.0000
  C   C263      1.0  0.75001  0.13617  0.63616  1.0000
  C   C264      1.0  0.75  0.16530999999999998  0.66531  1.0000
  C   C265      1.0  0.75  0.22187999999999994  0.72188  1.0000
  C   C266      1.0  0.75  0.94915  0.44914  1.0000
  C   C267      1.0  0.75001  0.91973  0.41972  1.0000
  C   C268      1.0  0.75001  0.86383  0.36384  1.0000
  C   C269      1.0  0.75  0.83469  0.33469  1.0000
  C   C270      1.0  0.75  0.7781199999999999  0.27812  1.0000
  C   C271      1.0  0.25  0.94915  0.55086  1.0000
  C   C272      1.0  0.24999  0.91973  0.58028  1.0000
  C   C273      1.0  0.24999  0.86383  0.63616  1.0000
  C   C274      1.0  0.25  0.83469  0.66531  1.0000
  C   C275      1.0  0.25  0.7781199999999999  0.72188  1.0000
  C   C276      1.0  0.25  0.05084999999999999  0.44914  1.0000
  C   C277      1.0  0.24999  0.08027  0.41972  1.0000
  C   C278      1.0  0.24999  0.13617  0.36384  1.0000
  C   C279      1.0  0.25  0.16530999999999998  0.33469  1.0000
  C   C280      1.0  0.25  0.22187999999999994  0.27812  1.0000
  C   C281      1.0  0.55086  0.75  0.05084999999999999  1.0000
  C   C282      1.0  0.58028  0.75001  0.08027  1.0000
  C   C283      1.0  0.63616  0.75001  0.13617  1.0000
  C   C284      1.0  0.66531  0.75  0.16530999999999998  1.0000
  C   C285      1.0  0.72188  0.75  0.22187999999999994  1.0000
  C   C286      1.0  0.44914  0.75  0.94915  1.0000
  C   C287      1.0  0.41972  0.75001  0.91973  1.0000
  C   C288      1.0  0.36384  0.75001  0.86383  1.0000
  C   C289      1.0  0.33469  0.75  0.83469  1.0000
  C   C290      1.0  0.27812  0.75  0.7781199999999999  1.0000
  C   C291      1.0  0.55086  0.25  0.94915  1.0000
  C   C292      1.0  0.58028  0.24999  0.91973  1.0000
  C   C293      1.0  0.63616  0.24999  0.86383  1.0000
  C   C294      1.0  0.66531  0.25  0.83469  1.0000
  C   C295      1.0  0.72188  0.25  0.7781199999999999  1.0000
  C   C296      1.0  0.44914  0.25  0.05084999999999999  1.0000
  C   C297      1.0  0.41972  0.24999  0.08027  1.0000
  C   C298      1.0  0.36384  0.24999  0.13617  1.0000
  C   C299      1.0  0.33469  0.25  0.16530999999999998  1.0000
  C   C300      1.0  0.27812  0.25  0.22187999999999994  1.0000
  C   C301      1.0  0.94915  0.44914  0.25  1.0000
  C   C302      1.0  0.91973  0.41972  0.24999  1.0000
  C   C303      1.0  0.86383  0.36384  0.24999  1.0000
  C   C304      1.0  0.83469  0.33469  0.25  1.0000
  C   C305      1.0  0.7781199999999999  0.27812  0.25  1.0000
  C   C306      1.0  0.05084999999999999  0.55086  0.25  1.0000
  C   C307      1.0  0.08027  0.58028  0.24999  1.0000
  C   C308      1.0  0.13617  0.63616  0.24999  1.0000
  C   C309      1.0  0.16530999999999998  0.66531  0.25  1.0000
  C   C310      1.0  0.22187999999999994  0.72188  0.25  1.0000
  C   C311      1.0  0.05084999999999999  0.44914  0.75  1.0000
  C   C312      1.0  0.08027  0.41972  0.75001  1.0000
  C   C313      1.0  0.13617  0.36384  0.75001  1.0000
  C   C314      1.0  0.16530999999999998  0.33469  0.75  1.0000
  C   C315      1.0  0.22187999999999994  0.27812  0.75  1.0000
  C   C316      1.0  0.94915  0.55086  0.75  1.0000
  C   C317      1.0  0.91973  0.58028  0.75001  1.0000
  C   C318      1.0  0.86383  0.63616  0.75001  1.0000
  C   C319      1.0  0.83469  0.66531  0.75  1.0000
  C   C320      1.0  0.7781199999999999  0.72188  0.75  1.0000
  C   C321      1.0  0.25  0.94915  0.44914  1.0000
  C   C322      1.0  0.24999  0.91973  0.41972  1.0000
  C   C323      1.0  0.24999  0.86383  0.36384  1.0000
  C   C324      1.0  0.25  0.83469  0.33469  1.0000
  C   C325      1.0  0.25  0.7781199999999999  0.27812  1.0000
  C   C326      1.0  0.25  0.05084999999999999  0.55086  1.0000
  C   C327      1.0  0.24999  0.08027  0.58028  1.0000
  C   C328      1.0  0.24999  0.13617  0.63616  1.0000
  C   C329      1.0  0.25  0.16530999999999998  0.66531  1.0000
  C   C330      1.0  0.25  0.22187999999999994  0.72188  1.0000
  C   C331      1.0  0.75  0.05084999999999999  0.44914  1.0000
  C   C332      1.0  0.75001  0.08027  0.41972  1.0000
  C   C333      1.0  0.75001  0.13617  0.36384  1.0000
  C   C334      1.0  0.75  0.16530999999999998  0.33469  1.0000
  C   C335      1.0  0.75  0.22187999999999994  0.27812  1.0000
  C   C336      1.0  0.75  0.94915  0.55086  1.0000
  C   C337      1.0  0.75001  0.91973  0.58028  1.0000
  C   C338      1.0  0.75001  0.86383  0.63616  1.0000
  C   C339      1.0  0.75  0.83469  0.66531  1.0000
  C   C340      1.0  0.75  0.7781199999999999  0.72188  1.0000
  C   C341      1.0  0.44914  0.25  0.94915  1.0000
  C   C342      1.0  0.41972  0.24999  0.91973  1.0000
  C   C343      1.0  0.36384  0.24999  0.86383  1.0000
  C   C344      1.0  0.33469  0.25  0.83469  1.0000
  C   C345      1.0  0.27812  0.25  0.7781199999999999  1.0000
  C   C346      1.0  0.55086  0.25  0.05084999999999999  1.0000
  C   C347      1.0  0.58028  0.24999  0.08027  1.0000
  C   C348      1.0  0.63616  0.24999  0.13617  1.0000
  C   C349      1.0  0.66531  0.25  0.16530999999999998  1.0000
  C   C350      1.0  0.72188  0.25  0.22187999999999994  1.0000
  C   C351      1.0  0.44914  0.75  0.05084999999999999  1.0000
  C   C352      1.0  0.41972  0.75001  0.08027  1.0000
  C   C353      1.0  0.36384  0.75001  0.13617  1.0000
  C   C354      1.0  0.33469  0.75  0.16530999999999998  1.0000
  C   C355      1.0  0.27812  0.75  0.22187999999999994  1.0000
  C   C356      1.0  0.55086  0.75  0.94915  1.0000
  C   C357      1.0  0.58028  0.75001  0.91973  1.0000
  C   C358      1.0  0.63616  0.75001  0.86383  1.0000
  C   C359      1.0  0.66531  0.75  0.83469  1.0000
  C   C360      1.0  0.72188  0.75  0.7781199999999999  1.0000
  C   C361      1.0  0.25  0.691  0.809  1.0000
  C   C362      1.0  0.75  0.30899999999999994  0.809  1.0000
  C   C363      1.0  0.75  0.691  0.191  1.0000
  C   C364      1.0  0.25  0.30899999999999994  0.191  1.0000
  C   C365      1.0  0.809  0.25  0.691  1.0000
  C   C366      1.0  0.809  0.75  0.30899999999999994  1.0000
  C   C367      1.0  0.191  0.75  0.691  1.0000
  C   C368      1.0  0.191  0.25  0.30899999999999994  1.0000
  C   C369      1.0  0.691  0.809  0.25  1.0000
  C   C370      1.0  0.30899999999999994  0.809  0.75  1.0000
  C   C371      1.0  0.691  0.191  0.75  1.0000
  C   C372      1.0  0.30899999999999994  0.191  0.25  1.0000
  C   C373      1.0  0.75  0.30899999999999994  0.191  1.0000
  C   C374      1.0  0.25  0.691  0.191  1.0000
  C   C375      1.0  0.25  0.30899999999999994  0.809  1.0000
  C   C376      1.0  0.75  0.691  0.809  1.0000
  C   C377      1.0  0.191  0.75  0.30899999999999994  1.0000
  C   C378      1.0  0.191  0.25  0.691  1.0000
  C   C379      1.0  0.809  0.25  0.30899999999999994  1.0000
  C   C380      1.0  0.809  0.75  0.691  1.0000
  C   C381      1.0  0.30899999999999994  0.191  0.75  1.0000
  C   C382      1.0  0.691  0.191  0.25  1.0000
  C   C383      1.0  0.30899999999999994  0.809  0.25  1.0000
  C   C384      1.0  0.691  0.809  0.75  1.0000
  N   N1        1.0  0.25  0.75  0.75  1.0000
  N   N2        1.0  0.75  0.25  0.75  1.0000
  N   N3        1.0  0.75  0.75  0.25  1.0000
  N   N4        1.0  0.25  0.25  0.25  1.0000
  N   N5        1.0  0.75  0.25  0.25  1.0000
  N   N6        1.0  0.25  0.75  0.25  1.0000
  N   N7        1.0  0.25  0.25  0.75  1.0000
  N   N8        1.0  0.75  0.75  0.75  1.0000
  O   O1        1.0  0.03936  0.5392  0.7819699999999999  1.0000
  O   O2        1.0  0.9606400000000002  0.4608  0.7819699999999999  1.0000
  O   O3        1.0  0.9606400000000002  0.5392  0.21803  1.0000
  O   O4        1.0  0.03936  0.4608  0.21803  1.0000
  O   O5        1.0  0.7819699999999999  0.03936  0.5392  1.0000
  O   O6        1.0  0.7819699999999999  0.9606400000000002  0.4608  1.0000
  O   O7        1.0  0.21803  0.9606400000000002  0.5392  1.0000
  O   O8        1.0  0.21803  0.03936  0.4608  1.0000
  O   O9        1.0  0.5392  0.7819699999999999  0.03936  1.0000
  O   O10       1.0  0.4608  0.7819699999999999  0.9606400000000002  1.0000
  O   O11       1.0  0.5392  0.21803  0.9606400000000002  1.0000
  O   O12       1.0  0.4608  0.21803  0.03936  1.0000
  O   O13       1.0  0.0392  0.53938  0.71803  1.0000
  O   O14       1.0  0.9608  0.46062  0.71803  1.0000
  O   O15       1.0  0.0392  0.46062  0.28197  1.0000
  O   O16       1.0  0.9608  0.53938  0.28197  1.0000
  O   O17       1.0  0.53938  0.28197  0.9608  1.0000
  O   O18       1.0  0.46062  0.28197  0.0392  1.0000
  O   O19       1.0  0.46062  0.71803  0.9608  1.0000
  O   O20       1.0  0.53938  0.71803  0.0392  1.0000
  O   O21       1.0  0.28197  0.0392  0.46062  1.0000
  O   O22       1.0  0.28197  0.9608  0.53938  1.0000
  O   O23       1.0  0.71803  0.0392  0.53938  1.0000
  O   O24       1.0  0.71803  0.9608  0.46062  1.0000
  O   O25       1.0  0.9606400000000002  0.4608  0.21803  1.0000
  O   O26       1.0  0.03936  0.5392  0.21803  1.0000
  O   O27       1.0  0.03936  0.4608  0.7819699999999999  1.0000
  O   O28       1.0  0.9606400000000002  0.5392  0.7819699999999999  1.0000
  O   O29       1.0  0.21803  0.9606400000000002  0.4608  1.0000
  O   O30       1.0  0.21803  0.03936  0.5392  1.0000
  O   O31       1.0  0.7819699999999999  0.03936  0.4608  1.0000
  O   O32       1.0  0.7819699999999999  0.9606400000000002  0.5392  1.0000
  O   O33       1.0  0.4608  0.21803  0.9606400000000002  1.0000
  O   O34       1.0  0.5392  0.21803  0.03936  1.0000
  O   O35       1.0  0.4608  0.7819699999999999  0.03936  1.0000
  O   O36       1.0  0.5392  0.7819699999999999  0.9606400000000002  1.0000
  O   O37       1.0  0.9608  0.46062  0.28197  1.0000
  O   O38       1.0  0.0392  0.53938  0.28197  1.0000
  O   O39       1.0  0.9608  0.53938  0.71803  1.0000
  O   O40       1.0  0.0392  0.46062  0.71803  1.0000
  O   O41       1.0  0.46062  0.71803  0.0392  1.0000
  O   O42       1.0  0.53938  0.71803  0.9608  1.0000
  O   O43       1.0  0.53938  0.28197  0.0392  1.0000
  O   O44       1.0  0.46062  0.28197  0.9608  1.0000
  O   O45       1.0  0.71803  0.9608  0.53938  1.0000
  O   O46       1.0  0.71803  0.0392  0.46062  1.0000
  O   O47       1.0  0.28197  0.9608  0.46062  1.0000
  O   O48       1.0  0.28197  0.0392  0.53938  1.0000
