data_image0
_chemical_formula_structural       Zn46H288C504N72O160
_chemical_formula_sum              "Zn46 H288 C504 N72 O160"
_cell_length_a       26.60772
_cell_length_b       26.59939
_cell_length_c       32.43974
_cell_angle_alpha    65.75857
_cell_angle_beta     65.75892
_cell_angle_gamma    59.99874999999999

_symmetry_space_group_name_H-M    'P 1'
_symmetry_Int_Tables_number       1

loop_
  _symmetry_equiv_pos_as_xyz
  'x,y,z'

loop_
  _atom_site_type_symbol
  _atom_site_label
  _atom_site_symmetry_multiplicity
  _atom_site_fract_x
  _atom_site_fract_y
  _atom_site_fract_z
  _atom_site_occupancy
  Zn  Zn1       1.0  0.4344700000000001  0.6763300000000001  0.76481  1.0000
  Zn  Zn2       1.0  0.12477999999999989  0.43450000000000005  0.76483  1.0000
  Zn  Zn3       1.0  0.28807  0.75004  0.74989  1.0000
  Zn  Zn4       1.0  0.27776  0.14872  0.39987  1.0000
  Zn  Zn5       1.0  0.17628999999999997  0.9344499999999999  0.26479  1.0000
  Zn  Zn6       1.0  0.7479700000000001  0.6232499999999997  0.23098  1.0000
  Zn  Zn7       1.0  0.16903999999999997  0.16910999999999995  0.4933900000000001  1.0000
  Zn  Zn8       1.0  0.24794000000000005  0.8983899999999998  0.73118  1.0000
  Zn  Zn9       1.0  0.9344900000000003  0.6253899999999999  0.26486  1.0000
  Zn  Zn10      1.0  0.62192  0.39820999999999995  0.23116  1.0000
  Zn  Zn11      1.0  0.25201  0.37675  0.76902  1.0000
  Zn  Zn12      1.0  0.7520400000000002  0.10164  0.26882  1.0000
  Zn  Zn13      1.0  0.67639  0.12420000000000003  0.76483  1.0000
  Zn  Zn14      1.0  0.14866  0.17412999999999998  0.39982  1.0000
  Zn  Zn15      1.0  0.8236999999999999  0.06556  0.73522  1.0000
  Zn  Zn16      1.0  0.33066  0.33172  0.00681  1.0000
  Zn  Zn17      1.0  0.37806  0.6018  0.76884  1.0000
  Zn  Zn18      1.0  0.6245600000000002  0.17631  0.26465  1.0000
  Zn  Zn19      1.0  0.7879400000000001  0.7120099999999998  0.25003  1.0000
  Zn  Zn20      1.0  0.17384000000000002  0.27804  0.39992  1.0000
  Zn  Zn21      1.0  0.3976100000000001  0.7482899999999999  0.23131000000000002  1.0000
  Zn  Zn22      1.0  0.7499499999999999  0.21207000000000006  0.74989  1.0000
  Zn  Zn23      1.0  0.22196000000000002  0.32628999999999997  0.10011  1.0000
  Zn  Zn24      1.0  0.12327000000000005  0.2477  0.7308900000000002  1.0000
  Zn  Zn25      1.0  0.6489300000000002  0.7773599999999999  0.8999  1.0000
  Zn  Zn26      1.0  0.7222300000000006  0.85133  0.60012  1.0000
  Zn  Zn27      1.0  0.35103  0.22274000000000002  0.1001  1.0000
  Zn  Zn28      1.0  0.06552999999999998  0.3746  0.73512  1.0000
  Zn  Zn29      1.0  0.3256899999999999  0.35265  0.10027  1.0000
  Zn  Zn30      1.0  0.67432  0.6473799999999998  0.8997300000000003  1.0000
  Zn  Zn31      1.0  0.37541000000000013  0.82373  0.7353500000000002  1.0000
  Zn  Zn32      1.0  0.71193  0.24998  0.25009  1.0000
  Zn  Zn33      1.0  0.56553  0.32369  0.23518  1.0000
  Zn  Zn34      1.0  0.3235899999999999  0.87585  0.23516  1.0000
  Zn  Zn35      1.0  0.10181999999999998  0.87802  0.26873  1.0000
  Zn  Zn36      1.0  0.83093  0.8308699999999999  0.50662  1.0000
  Zn  Zn37      1.0  0.8767100000000002  0.7523099999999998  0.26911  1.0000
  Zn  Zn38      1.0  0.2500100000000001  0.7879599999999999  0.25006  1.0000
  Zn  Zn39      1.0  0.7779900000000002  0.67382  0.8999  1.0000
  Zn  Zn40      1.0  0.89818  0.12197999999999996  0.73128  1.0000
  Zn  Zn41      1.0  0.6693300000000002  0.6683000000000001  0.99319  1.0000
  Zn  Zn42      1.0  0.8513  0.82593  0.60019  1.0000
  Zn  Zn43      1.0  0.8261500000000003  0.72196  0.60008  1.0000
  Zn  Zn44      1.0  0.8751499999999999  0.5655099999999998  0.23518  1.0000
  Zn  Zn45      1.0  0.60227  0.25176  0.76872  1.0000
  Zn  Zn46      1.0  0.21203000000000002  0.28801  0.74995  1.0000
  H   H1        1.0  0.06758999999999994  0.73192  0.00511  1.0000
  H   H2        1.0  0.61773  0.01727  0.06402  1.0000
  H   H3        1.0  0.11070000000000003  0.92623  0.40709  1.0000
  H   H4        1.0  0.61265  0.5721799999999999  0.70399  1.0000
  H   H5        1.0  0.6122900000000001  0.8249499999999999  0.29464  1.0000
  H   H6        1.0  0.16071999999999997  0.55743  0.48088000000000003  1.0000
  H   H7        1.0  0.69923  0.94226  0.01897  1.0000
  H   H8        1.0  0.94575  0.42183999999999994  0.5706700000000001  1.0000
  H   H9        1.0  0.7616700000000004  0.81457  0.42898  1.0000
  H   H10       1.0  0.005059999999999957  0.23787000000000003  0.57124  1.0000
  H   H11       1.0  0.5235000000000004  0.91032  0.96435  1.0000
  H   H12       1.0  0.26856000000000013  0.2287  0.01384  1.0000
  H   H13       1.0  0.73669  0.9838  0.41284  1.0000
  H   H14       1.0  0.23609000000000005  0.3662599999999999  0.91301  1.0000
  H   H15       1.0  0.011889999999999897  0.7792  0.63925  1.0000
  H   H16       1.0  0.42607999999999985  0.61159  0.90702  1.0000
  H   H17       1.0  0.68285  0.14149999999999996  0.6474500000000001  1.0000
  H   H18       1.0  0.8893099999999999  0.07377  0.59294  1.0000
  H   H19       1.0  0.5151500000000001  0.30771  0.05641  1.0000
  H   H20       1.0  0.39840000000000003  0.47772  0.0356  1.0000
  H   H21       1.0  0.4756500000000001  0.45451  0.16522  1.0000
  H   H22       1.0  0.4427000000000001  0.19885  0.51919  1.0000
  H   H23       1.0  0.8792300000000003  0.48476  0.9436200000000002  1.0000
  H   H24       1.0  0.21322000000000008  0.5248999999999999  0.10193  1.0000
  H   H25       1.0  0.5112599999999999  0.7323  0.98641  1.0000
  H   H26       1.0  0.27094  0.23163000000000003  0.4863  1.0000
  H   H27       1.0  0.38932999999999995  0.94373  0.0927  1.0000
  H   H28       1.0  0.9756200000000002  0.40435  0.66538  1.0000
  H   H29       1.0  0.8982599999999998  0.58849  0.53577  1.0000
  H   H30       1.0  0.57021  0.011399999999999983  0.63938  1.0000
  H   H31       1.0  0.9545700000000003  0.9754199999999997  0.66547  1.0000
  H   H32       1.0  0.41102  0.02276999999999999  0.46422  1.0000
  H   H33       1.0  0.49465000000000015  0.3139599999999999  0.9289  1.0000
  H   H34       1.0  0.004969999999999924  0.8414599999999998  0.9831500000000002  1.0000
  H   H35       1.0  0.57784  0.93856  0.42917  1.0000
  H   H36       1.0  0.26835  0.80471  0.99473  1.0000
  H   H37       1.0  0.42737999999999987  0.8887  0.2958700000000001  1.0000
  H   H38       1.0  0.31443  0.26161999999999996  0.92914  1.0000
  H   H39       1.0  0.80466  0.9324099999999997  0.9948800000000002  1.0000
  H   H40       1.0  0.23189999999999997  0.01113000000000001  0.48629  1.0000
  H   H41       1.0  0.08814  0.39847  0.03558  1.0000
  H   H42       1.0  0.40920000000000006  0.07207  0.39058  1.0000
  H   H43       1.0  0.5403100000000001  0.88327  0.19395  1.0000
  H   H44       1.0  0.36613000000000007  0.48509000000000013  0.91288  1.0000
  H   H45       1.0  0.8581300000000002  0.47184  0.35266  1.0000
  H   H46       1.0  0.9949399999999999  0.76213  0.42876  1.0000
  H   H47       1.0  0.04070000000000003  0.7745  0.24481  1.0000
  H   H48       1.0  0.5406300000000002  0.4403799999999999  0.74483  1.0000
  H   H49       1.0  0.74773  0.06992  0.06193  1.0000
  H   H50       1.0  0.07178999999999998  0.12824  0.39057  1.0000
  H   H51       1.0  0.2624300000000001  0.4949399999999999  0.92872  1.0000
  H   H52       1.0  0.61704  0.4598900000000001  0.80616  1.0000
  H   H53       1.0  0.8821600000000003  0.19951999999999995  0.43577  1.0000
  H   H54       1.0  0.11252000000000004  0.6116599999999999  0.20375  1.0000
  H   H55       1.0  0.61985  0.80824  0.55657  1.0000
  H   H56       1.0  0.022729999999999983  0.10195  0.46431  1.0000
  H   H57       1.0  0.30455000000000004  0.76832  0.49471  1.0000
  H   H58       1.0  0.8874700000000004  0.38835  0.79625  1.0000
  H   H59       1.0  0.91187  0.60154  0.96439  1.0000
  H   H60       1.0  0.5955199999999999  0.045009999999999974  0.33462000000000003  1.0000
  H   H61       1.0  0.14186000000000007  0.5281699999999999  0.64734  1.0000
  H   H62       1.0  0.5722900000000001  0.9090799999999999  0.89044  1.0000
  H   H63       1.0  0.33959000000000017  0.69917  0.01897  1.0000
  H   H64       1.0  0.07227999999999998  0.11279  0.20358000000000004  1.0000
  H   H65       1.0  0.44069  0.2741099999999999  0.74515  1.0000
  H   H66       1.0  0.38339999999999996  0.04031999999999998  0.69421  1.0000
  H   H67       1.0  0.39919000000000004  0.18664  0.88628  1.0000
  H   H68       1.0  0.3829600000000001  0.5401  0.19385000000000002  1.0000
  H   H69       1.0  0.6166100000000001  0.9596799999999999  0.3058  1.0000
  H   H70       1.0  0.37995  0.43019  0.43807  1.0000
  H   H71       1.0  0.015410000000000128  0.6205399999999998  0.55647  1.0000
  H   H72       1.0  0.72053  0.4883799999999999  0.86085  1.0000
  H   H73       1.0  0.56129  0.92207  0.0712  1.0000
  H   H74       1.0  0.8128  0.47228  0.11377  1.0000
  H   H75       1.0  0.43274000000000007  0.30441  0.49479000000000006  1.0000
  H   H76       1.0  0.47646  0.08966  0.03569  1.0000
  H   H77       1.0  0.11699999999999991  0.6171  0.80605  1.0000
  H   H78       1.0  0.5572999999999999  0.8011399999999999  0.48083000000000004  1.0000
  H   H79       1.0  0.09939999999999999  0.030959999999999967  0.3774300000000001  1.0000
  H   H80       1.0  0.4887299999999999  0.92979  0.8605900000000001  1.0000
  H   H81       1.0  0.18570000000000006  0.0052199999999999695  0.57096  1.0000
  H   H82       1.0  0.64133  0.18274000000000004  0.14696  1.0000
  H   H83       1.0  0.32506  0.11241999999999999  0.79459  1.0000
  H   H84       1.0  0.2482900000000002  0.6201499999999998  0.56183  1.0000
  H   H85       1.0  0.22996000000000005  0.4890199999999999  0.013400000000000004  1.0000
  H   H86       1.0  0.42979  0.98862  0.36061  1.0000
  H   H87       1.0  0.5738900000000001  0.3884599999999999  0.09298  1.0000
  H   H88       1.0  0.23189000000000004  0.56742  0.50521  1.0000
  H   H89       1.0  0.07751000000000002  0.45216999999999996  0.17919  1.0000
  H   H90       1.0  0.12076000000000005  0.51527  0.05638  1.0000
  H   H91       1.0  0.28670999999999996  0.3396799999999999  0.39850000000000013  1.0000
  H   H92       1.0  0.3135600000000002  0.10064999999999996  0.6136300000000001  1.0000
  H   H93       1.0  0.10176999999999994  0.41147  0.46422  1.0000
  H   H94       1.0  0.52401  0.16046  0.10166000000000001  1.0000
  H   H95       1.0  0.4459199999999999  0.5618  0.07096  1.0000
  H   H96       1.0  0.66045  0.024950000000000003  0.60133  1.0000
  H   H97       1.0  0.48483000000000004  0.69229  0.94359  1.0000
  H   H98       1.0  0.80098  0.16052  0.48098  1.0000
  H   H99       1.0  0.2675600000000001  0.61273  0.29495  1.0000
  H   H100      1.0  0.7675300000000002  0.32485  0.79482  1.0000
  H   H101      1.0  0.90431  0.47577999999999987  0.16517  1.0000
  H   H102      1.0  0.6855700000000001  0.7383699999999999  0.07088000000000001  1.0000
  H   H103      1.0  0.9094600000000003  0.6277  0.89078  1.0000
  H   H104      1.0  0.017310000000000002  0.30089  0.06404  1.0000
  H   H105      1.0  0.9717099999999997  0.35772  0.85303  1.0000
  H   H106      1.0  0.10082000000000013  0.9722799999999999  0.6136  1.0000
  H   H107      1.0  0.83927  0.44258999999999993  0.51912  1.0000
  H   H108      1.0  0.38734  0.42782  0.29601  1.0000
  H   H109      1.0  0.72909  0.76835  0.51369  1.0000
  H   H110      1.0  0.06989  0.12037  0.06187  1.0000
  H   H111      1.0  0.5077199999999998  0.9008400000000001  0.62244  1.0000
  H   H112      1.0  0.05772000000000008  0.66045  0.98098  1.0000
  H   H113      1.0  0.9259000000000003  0.55611  0.40695000000000003  1.0000
  H   H114      1.0  0.7375600000000002  0.50506  0.07128  1.0000
  H   H115      1.0  0.22572000000000006  0.059  0.75552  1.0000
  H   H116      1.0  0.40446999999999994  0.9549999999999998  0.66538  1.0000
  H   H117      1.0  0.8723200000000001  0.5906  0.60925  1.0000
  H   H118      1.0  0.6114600000000002  0.07271999999999999  0.20365  1.0000
  H   H119      1.0  0.18719  0.5277099999999999  0.8862300000000002  1.0000
  H   H120      1.0  0.7086600000000003  0.9215399999999998  0.8211  1.0000
  H   H121      1.0  0.8294999999999999  0.99505  0.01688  1.0000
  H   H122      1.0  0.7639  0.6337499999999999  0.08696  1.0000
  H   H123      1.0  0.56727  0.69558  0.50521  1.0000
  H   H124      1.0  0.78675  0.47507999999999995  0.8981  1.0000
  H   H125      1.0  0.04543  0.02457  0.33454  1.0000
  H   H126      1.0  0.23245000000000002  0.6751499999999999  0.2052  1.0000
  H   H127      1.0  0.88715  0.23213999999999996  0.2054  1.0000
  H   H128      1.0  0.40069  0.007769999999999997  0.12243  1.0000
  H   H129      1.0  0.4514000000000001  0.2914699999999999  0.17904000000000006  1.0000
  H   H130      1.0  0.23834000000000005  0.18541999999999997  0.57102  1.0000
  H   H131      1.0  0.7516899999999999  0.37986  0.43817  1.0000
  H   H132      1.0  0.7795600000000001  0.56989  0.6391600000000002  1.0000
  H   H133      1.0  0.45498  0.90446  0.16518  1.0000
  H   H134      1.0  0.20855000000000004  0.04848  0.32114  1.0000
  H   H135      1.0  0.17049  0.004960000000000026  0.98312  1.0000
  H   H136      1.0  0.5698700000000001  0.24812999999999996  0.56197  1.0000
  H   H137      1.0  0.65854  0.49498  0.51673  1.0000
  H   H138      1.0  0.5540699999999998  0.4381999999999999  0.92904  1.0000
  H   H139      1.0  0.50535  0.6860299999999999  0.07110000000000001  1.0000
  H   H140      1.0  0.60081  0.81335  0.11374  1.0000
  H   H141      1.0  0.38226000000000004  0.98272  0.93598  1.0000
  H   H142      1.0  0.43870000000000003  0.07792000000000002  0.92881  1.0000
  H   H143      1.0  0.38771  0.17507999999999999  0.70535  1.0000
  H   H144      1.0  0.47597  0.83955  0.89835  1.0000
  H   H145      1.0  0.61065  0.056260000000000004  0.90732  1.0000
  H   H146      1.0  0.9443100000000001  0.57436  0.09298  1.0000
  H   H147      1.0  0.19965000000000008  0.48244999999999993  0.43572  1.0000
  H   H148      1.0  0.6912899999999998  0.88064  0.94354  1.0000
  H   H149      1.0  0.05424000000000005  0.5781699999999999  0.42932  1.0000
  H   H150      1.0  0.007639999999999969  0.46947  0.1223  1.0000
  H   H151      1.0  0.9518899999999999  0.57778  0.6790100000000002  1.0000
  H   H152      1.0  0.9277000000000001  0.8872000000000001  0.79645  1.0000
  H   H153      1.0  0.9302400000000001  0.7204499999999999  0.86082  1.0000
  H   H154      1.0  0.18288  0.028859999999999997  0.14701  1.0000
  H   H155      1.0  0.5175899999999998  0.11765  0.56441  1.0000
  H   H156      1.0  0.024379999999999936  0.59565  0.33462000000000003  1.0000
  H   H157      1.0  0.11284999999999999  0.76786  0.79458  1.0000
  H   H158      1.0  0.29135  0.0786  0.1788  1.0000
  H   H159      1.0  0.5726  0.11130999999999999  0.70414  1.0000
  H   H160      1.0  0.9772400000000002  0.8980699999999999  0.53571  1.0000
  H   H161      1.0  0.8143300000000002  0.99479  0.42905000000000004  1.0000
  H   H162      1.0  0.16018  0.21395999999999998  0.10143  1.0000
  H   H163      1.0  0.9845900000000001  0.3794499999999999  0.44352  1.0000
  H   H164      1.0  0.92135  0.4458999999999999  0.07087  1.0000
  H   H165      1.0  0.5160400000000002  0.76292  0.08736  1.0000
  H   H166      1.0  0.07863000000000009  0.5540999999999998  0.92913  1.0000
  H   H167      1.0  0.9950100000000002  0.15856  0.01682  1.0000
  H   H168      1.0  0.71327  0.66034  0.60147  1.0000
  H   H169      1.0  0.11729000000000012  0.6169099999999998  0.30586  1.0000
  H   H170      1.0  0.8243700000000002  0.26798  0.29466  1.0000
  H   H171      1.0  0.60159  0.52229  0.96439  1.0000
  H   H172      1.0  0.5307299999999999  0.59963  0.87756  1.0000
  H   H173      1.0  0.028259999999999997  0.64227  0.14697  1.0000
  H   H174      1.0  0.13387999999999997  0.26346  0.58679  1.0000
  H   H175      1.0  0.4593699999999999  0.5595899999999999  0.25519  1.0000
  H   H176      1.0  0.5243500000000001  0.54547  0.83479  1.0000
  H   H177      1.0  0.04009999999999992  0.88275  0.69413  1.0000
  H   H178      1.0  0.5781300000000003  0.79141  0.67903  1.0000
  H   H179      1.0  0.055669999999999914  0.42565000000000003  0.90699  1.0000
  H   H180      1.0  0.19534  0.0676  0.00512  1.0000
  H   H181      1.0  0.30077  0.057740000000000014  0.98103  1.0000
  H   H182      1.0  0.9224600000000001  0.54781  0.82083  1.0000
  H   H183      1.0  0.12041000000000002  0.74818  0.06176  1.0000
  H   H184      1.0  0.49510999999999983  0.32966  0.51673  1.0000
  H   H185      1.0  0.4221599999999999  0.06141999999999999  0.57084  1.0000
  H   H186      1.0  0.7314300000000005  0.77129  0.98617  1.0000
  H   H187      1.0  0.5450099999999999  0.09553  0.83482  1.0000
  H   H188      1.0  0.9923600000000001  0.53051  0.8777100000000001  1.0000
  H   H189      1.0  0.77003  0.51099  0.9866  1.0000
  H   H190      1.0  0.26332  0.01617999999999999  0.58715  1.0000
  H   H191      1.0  0.63389  0.51492  0.08709  1.0000
  H   H192      1.0  0.4596700000000001  0.11673  0.80604  1.0000
  H   H193      1.0  0.33961  0.9751199999999999  0.39861  1.0000
  H   H194      1.0  0.010949999999999963  0.27026000000000006  0.48658  1.0000
  H   H195      1.0  0.38851000000000024  0.92729  0.79635  1.0000
  H   H196      1.0  0.30072999999999994  0.61784  0.06408  1.0000
  H   H197      1.0  0.11782999999999995  0.8005  0.56423  1.0000
  H   H198      1.0  0.6279099999999996  0.5720800000000001  0.8906900000000001  1.0000
  H   H199      1.0  0.8170700000000002  0.9711299999999999  0.85311  1.0000
  H   H200      1.0  0.8883  0.38770999999999994  0.29603  1.0000
  H   H201      1.0  0.19201000000000013  0.9846699999999998  0.44345  1.0000
  H   H202      1.0  0.22044  0.43012999999999996  0.36083  1.0000
  H   H203      1.0  0.01570999999999998  0.13384999999999994  0.58711  1.0000
  H   H204      1.0  0.6701900000000001  0.34128000000000003  0.48339  1.0000
  H   H205      1.0  0.8003300000000002  0.51756  0.56429  1.0000
  H   H206      1.0  0.17562000000000008  0.7320199999999998  0.70534  1.0000
  H   H207      1.0  0.86614  0.7365  0.41321  1.0000
  H   H208      1.0  0.47171999999999986  0.3170699999999999  0.35271  1.0000
  H   H209      1.0  0.15880000000000005  0.8298399999999999  0.01664  1.0000
  H   H210      1.0  0.32980000000000004  0.6587199999999998  0.51661  1.0000
  H   H211      1.0  0.48872  0.26771  0.01359  1.0000
  H   H212      1.0  0.4219000000000002  0.20862  0.32094  1.0000
  H   H213      1.0  0.50489  0.67033  0.48327000000000003  1.0000
  H   H214      1.0  0.11167000000000005  0.6123  0.70397  1.0000
  H   H215      1.0  0.5908000000000001  0.92795  0.60941  1.0000
  H   H216      1.0  0.5992999999999999  0.99223  0.87757  1.0000
  H   H217      1.0  0.46925000000000006  0.4003699999999999  0.12245  1.0000
  H   H218      1.0  0.72563  0.4598  0.25477  1.0000
  H   H219      1.0  0.6749200000000001  0.88758  0.20544  1.0000
  H   H220      1.0  0.030549999999999976  0.49238  0.37762  1.0000
  H   H221      1.0  0.9826699999999999  0.6991099999999999  0.93598  1.0000
  H   H222      1.0  0.09567999999999999  0.52421  0.83484  1.0000
  H   H223      1.0  0.52826  0.68295  0.64731  1.0000
  H   H224      1.0  0.44388  0.88954  0.59301  1.0000
  H   H225      1.0  0.7681  0.98887  0.51372  1.0000
  H   H226      1.0  0.7742400000000002  0.9410299999999999  0.2445  1.0000
  H   H227      1.0  0.7316200000000002  0.19528  0.00528  1.0000
  H   H228      1.0  0.4839300000000001  0.23705  0.91268  1.0000
  H   H229      1.0  0.9384699999999999  0.054259999999999954  0.4292100000000001  1.0000
  H   H230      1.0  0.5561300000000001  0.11045999999999997  0.40699  1.0000
  H   H231      1.0  0.97478  0.28683000000000003  0.39851  1.0000
  H   H232      1.0  0.42769  0.09090999999999998  0.10956000000000002  1.0000
  H   H233      1.0  0.9282100000000001  0.8717500000000002  0.60944  1.0000
  H   H234      1.0  0.9300900000000003  0.8796399999999996  0.93812  1.0000
  H   H235      1.0  0.6603800000000002  0.30082  0.98104  1.0000
  H   H236      1.0  0.8827099999999999  0.3831  0.69414  1.0000
  H   H237      1.0  0.06975000000000002  0.27954  0.13917  1.0000
  H   H238      1.0  0.34145  0.50503  0.48327000000000003  1.0000
  H   H239      1.0  0.6954500000000002  0.23167999999999997  0.5053  1.0000
  H   H240      1.0  0.4724  0.60114  0.11374  1.0000
  H   H241      1.0  0.6992299999999999  0.38215  0.9359300000000002  1.0000
  H   H242      1.0  0.87955  0.2518099999999999  0.93826  1.0000
  H   H243      1.0  0.4824100000000003  0.8823399999999999  0.43561  1.0000
  H   H244      1.0  0.27945999999999993  0.51165  0.13915  1.0000
  H   H245      1.0  0.6864400000000005  0.89935  0.38637  1.0000
  H   H246      1.0  0.9598999999999999  0.11723999999999996  0.30588000000000004  1.0000
  H   H247      1.0  0.88299  0.38289  0.19397  1.0000
  H   H248      1.0  0.9592799999999999  0.22550000000000003  0.7552  1.0000
  H   H249      1.0  0.027789999999999947  0.68674  0.38636  1.0000
  H   H250      1.0  0.9880800000000003  0.22079  0.36078  1.0000
  H   H251      1.0  0.9722000000000001  0.31327999999999995  0.61364  1.0000
  H   H252      1.0  0.37208  0.42793999999999993  0.10931  1.0000
  H   H253      1.0  0.9694499999999997  0.5076200000000001  0.62236  1.0000
  H   H254      1.0  0.8398400000000001  0.7860399999999998  0.89841  1.0000
  H   H255      1.0  0.07405000000000007  0.44388999999999995  0.59303  1.0000
  H   H256      1.0  0.9005899999999999  0.96904  0.62258  1.0000
  H   H257      1.0  0.43012000000000017  0.7518799999999998  0.43804  1.0000
  H   H258      1.0  0.80797  0.015349999999999994  0.55658  1.0000
  H   H259      1.0  0.79145  0.95154  0.67886  1.0000
  H   H260      1.0  0.061530000000000126  0.9457599999999998  0.57083  1.0000
  H   H261      1.0  0.98905  0.72972  0.51342  1.0000
  H   H262      1.0  0.7324400000000001  0.38725  0.70507  1.0000
  H   H263      1.0  0.5275899999999999  0.39886  0.88626  1.0000
  H   H264      1.0  0.5593200000000002  0.7258999999999999  0.25486  1.0000
  H   H265      1.0  0.62004  0.56982  0.5619500000000001  1.0000
  H   H266      1.0  0.51125  0.07021  0.1394  1.0000
  H   H267      1.0  0.025199999999999917  0.7131899999999999  0.6015000000000003  1.0000
  H   H268      1.0  0.12769000000000003  0.40939999999999993  0.39073  1.0000
  H   H269      1.0  0.94096  0.04021999999999998  0.24428000000000002  1.0000
  H   H270      1.0  0.94226  0.33956  0.019020000000000002  1.0000
  H   H271      1.0  0.5486200000000001  0.7085399999999997  0.8209600000000001  1.0000
  H   H272      1.0  0.048110000000000055  0.42222999999999994  0.32097  1.0000
  H   H273      1.0  0.27436  0.5402  0.74524  1.0000
  H   H274      1.0  0.49228999999999995  0.09917000000000001  0.37756  1.0000
  H   H275      1.0  0.19902  0.83948  0.51902  1.0000
  H   H276      1.0  0.9324000000000002  0.2680999999999999  0.9948800000000002  1.0000
  H   H277      1.0  0.31711  0.85852  0.3526  1.0000
  H   H278      1.0  0.05900000000000004  0.95978  0.75574  1.0000
  H   H279      1.0  0.7680999999999999  0.43259  0.4948  1.0000
  H   H280      1.0  0.3087  0.11934  0.05647  1.0000
  H   H281      1.0  0.84117  0.17015  0.98338  1.0000
  H   H282      1.0  0.25224999999999975  0.93009  0.93807  1.0000
  H   H283      1.0  0.89921  0.02773999999999999  0.38642  1.0000
  H   H284      1.0  0.09053000000000005  0.3722799999999999  0.10923  1.0000
  H   H285      1.0  0.3801800000000002  0.19173  0.44343  1.0000
  H   H286      1.0  0.98436  0.8661199999999999  0.41288  1.0000
  H   H287      1.0  0.35867000000000004  0.8172599999999999  0.85304  1.0000
  H   H288      1.0  0.5890099999999999  0.97721  0.53577  1.0000
  C   C1        1.0  0.26707  0.98439  0.19294  1.0000
  C   C2        1.0  0.06268999999999997  0.5976  0.14490000000000003  1.0000
  C   C3        1.0  0.04522  0.37437  0.12783  1.0000
  C   C4        1.0  0.1884399999999999  0.37922  0.93042  1.0000
  C   C5        1.0  0.8060400000000001  0.43056  0.27482  1.0000
  C   C6        1.0  0.8129399999999999  0.31909999999999994  0.7896200000000001  1.0000
  C   C7        1.0  0.6870699999999998  0.42178  0.7103500000000001  1.0000
  C   C8        1.0  0.51188  0.19371000000000002  0.72516  1.0000
  C   C9        1.0  0.02481999999999998  0.67354  0.83156  1.0000
  C   C10       1.0  0.46830999999999995  0.93999  0.15908  1.0000
  C   C11       1.0  0.9372700000000002  0.40239  0.8551100000000003  1.0000
  C   C12       1.0  0.47047  0.20968  0.52839  1.0000
  C   C13       1.0  0.18704000000000007  0.6809  0.21039  1.0000
  C   C14       1.0  0.5150499999999998  0.92829  0.17539  1.0000
  C   C15       1.0  0.5601799999999999  0.19772999999999996  0.73518  1.0000
  C   C16       1.0  0.0034400000000000164  0.69656  0.49513  1.0000
  C   C17       1.0  0.66773  0.9745199999999999  0.47724  1.0000
  C   C18       1.0  0.45301000000000025  0.76096  0.8336  1.0000
  C   C19       1.0  0.75131  0.46462999999999993  0.51488  1.0000
  C   C20       1.0  0.6670000000000003  0.6821899999999997  0.62003  1.0000
  C   C21       1.0  0.50136  0.96538  0.85556  1.0000
  C   C22       1.0  0.32903  0.92211  0.64594  1.0000
  C   C23       1.0  0.8638600000000002  0.7093899999999999  0.50438  1.0000
  C   C24       1.0  0.9132099999999999  0.58702  0.42675  1.0000
  C   C25       1.0  0.35263999999999995  0.6575700000000001  0.2633  1.0000
  C   C26       1.0  0.36364  0.42279999999999995  0.0043  1.0000
  C   C27       1.0  0.9293599999999997  0.49839000000000006  0.63521  1.0000
  C   C28       1.0  0.38029  0.47534  0.97728  1.0000
  C   C29       1.0  0.7609600000000001  0.9523299999999998  0.8337  1.0000
  C   C30       1.0  0.9220200000000004  0.10290999999999999  0.64593  1.0000
  C   C31       1.0  0.69381  0.012049999999999986  0.22467000000000004  1.0000
  C   C32       1.0  0.6573400000000001  0.7269299999999999  0.26277  1.0000
  C   C33       1.0  0.9210399999999999  0.2636799999999999  0.76712  1.0000
  C   C34       1.0  0.37921000000000005  0.50222  0.93029  1.0000
  C   C35       1.0  0.2856900000000001  0.16865  0.55248  1.0000
  C   C36       1.0  0.45994000000000024  0.59916  0.05310000000000001  1.0000
  C   C37       1.0  0.98165  0.17781999999999998  0.20172  1.0000
  C   C38       1.0  0.4442600000000001  0.7328999999999998  0.80701  1.0000
  C   C39       1.0  0.9751699999999998  0.32645  0.16844  1.0000
  C   C40       1.0  0.016430000000000076  0.4433499999999999  0.80698  1.0000
  C   C41       1.0  0.42099000000000003  0.54797  0.26716  1.0000
  C   C42       1.0  0.40691000000000005  0.12483999999999998  0.50474  1.0000
  C   C43       1.0  0.76718  0.0557  0.6931  1.0000
  C   C44       1.0  0.62452  0.90713  0.00498  1.0000
  C   C45       1.0  0.026469999999999987  0.11952000000000003  0.20897  1.0000
  C   C46       1.0  0.9880399999999999  0.9303  0.77557  1.0000
  C   C47       1.0  0.42162000000000005  0.21035  0.00424  1.0000
  C   C48       1.0  0.48125  0.22722  0.14035  1.0000
  C   C49       1.0  0.7390899999999999  0.04711999999999994  0.6664600000000003  1.0000
  C   C50       1.0  0.18107  0.6866899999999999  0.71061  1.0000
  C   C51       1.0  0.3613100000000001  0.017919999999999978  0.79824  1.0000
  C   C52       1.0  0.7730900000000002  0.84282  0.23704  1.0000
  C   C53       1.0  0.49679999999999996  0.10674999999999997  0.9992300000000001  1.0000
  C   C54       1.0  0.4985300000000002  0.9372599999999998  0.63533  1.0000
  C   C55       1.0  0.9990900000000004  0.8223799999999998  0.64437  1.0000
  C   C56       1.0  0.90608  0.46370999999999996  0.00483  1.0000
  C   C57       1.0  0.01500999999999999  0.88141  0.67552  1.0000
  C   C58       1.0  0.07894000000000001  0.73633  0.23289  1.0000
  C   C59       1.0  0.3055399999999999  0.19569999999999993  0.99536  1.0000
  C   C60       1.0  0.01195000000000001  0.06969  0.22445  1.0000
  C   C61       1.0  0.13614999999999997  0.29058  0.49562000000000006  1.0000
  C   C62       1.0  0.5778  0.81932  0.28938  1.0000
  C   C63       1.0  0.9521  0.7912999999999999  0.93497  1.0000
  C   C64       1.0  0.68225  0.030829999999999996  0.61989  1.0000
  C   C65       1.0  0.5345999999999999  0.9987999999999999  0.6444500000000001  1.0000
  C   C66       1.0  0.30173  0.9399599999999999  0.76526  1.0000
  C   C67       1.0  0.51197  0.16431000000000004  0.55367  1.0000
  C   C68       1.0  0.17076000000000008  0.39642999999999995  0.8543  1.0000
  C   C69       1.0  0.69819  0.06006999999999998  0.23478  1.0000
  C   C70       1.0  0.5670800000000001  0.53196  0.84097  1.0000
  C   C71       1.0  0.5783500000000001  0.7896499999999997  0.99579  1.0000
  C   C72       1.0  0.59258  0.77091  0.27368  1.0000
  C   C73       1.0  0.8031500000000001  0.49667  0.00492  1.0000
  C   C74       1.0  0.14750999999999995  0.77332  0.237  1.0000
  C   C75       1.0  0.6473700000000001  0.34244999999999987  0.73665  1.0000
  C   C76       1.0  0.2901299999999999  0.029850000000000012  0.97179  1.0000
  C   C77       1.0  0.9329300000000005  0.43983999999999984  0.65915  1.0000
  C   C78       1.0  0.97352  0.8804599999999999  0.79106  1.0000
  C   C79       1.0  0.06527000000000004  0.41386999999999996  0.97401  1.0000
  C   C80       1.0  0.16656000000000004  0.12342  0.12155  1.0000
  C   C81       1.0  0.3549800000000001  0.9731999999999998  0.79093  1.0000
  C   C82       1.0  0.12279999999999994  0.58913  0.12183000000000002  1.0000
  C   C83       1.0  0.9746400000000003  0.32775  0.5765  1.0000
  C   C84       1.0  0.58664  0.42647999999999997  0.07329  1.0000
  C   C85       1.0  0.50147  0.06274000000000002  0.36468  1.0000
  C   C86       1.0  0.19764000000000012  0.5071199999999998  0.73527  1.0000
  C   C87       1.0  0.31934999999999986  0.07783999999999991  0.7895200000000001  1.0000
  C   C88       1.0  0.59086  0.7562  0.66335  1.0000
  C   C89       1.0  0.7691800000000003  0.9644799999999999  0.01487  1.0000
  C   C90       1.0  0.7561599999999999  0.98961  0.6632300000000001  1.0000
  C   C91       1.0  0.018339999999999954  0.82216  0.79829  1.0000
  C   C92       1.0  0.9644700000000005  0.25146  0.01488  1.0000
  C   C93       1.0  0.67185  0.87921  0.42353  1.0000
  C   C94       1.0  0.6806400000000004  0.92217  0.21049  1.0000
  C   C95       1.0  0.7290800000000003  0.9075299999999998  0.22605  1.0000
  C   C96       1.0  0.87717  0.41084999999999994  0.87819  1.0000
  C   C97       1.0  0.17868000000000028  0.7083299999999999  0.56519  1.0000
  C   C98       1.0  0.28341999999999995  0.68967  0.5269  1.0000
  C   C99       1.0  0.5985900000000001  0.88866  0.05323000000000001  1.0000
  C   C100      1.0  0.23904000000000003  0.04775  0.16628  1.0000
  C   C101      1.0  0.79099  0.6360199999999998  0.99544  1.0000
  C   C102      1.0  0.39373000000000014  0.002799999999999995  0.50077  1.0000
  C   C103      1.0  0.8944600000000001  0.60258  0.00083  1.0000
  C   C104      1.0  0.11965000000000008  0.3326599999999999  0.52257  1.0000
  C   C105      1.0  0.4523400000000001  0.23608999999999997  0.73313  1.0000
  C   C106      1.0  0.3323299999999999  0.45827  0.4478900000000001  1.0000
  C   C107      1.0  0.50318  0.8932299999999999  0.00082  1.0000
  C   C108      1.0  0.7082100000000001  0.5479500000000002  0.56525  1.0000
  C   C109      1.0  0.37423000000000006  0.45254999999999995  0.12787  1.0000
  C   C110      1.0  0.47561999999999993  0.029930000000000012  0.66866  1.0000
  C   C111      1.0  0.9689400000000002  0.33310999999999996  0.3799200000000001  1.0000
  C   C112      1.0  0.54575  0.06632000000000003  0.97424  1.0000
  C   C113      1.0  0.22693000000000005  0.15142  0.14017  1.0000
  C   C114      1.0  0.8622900000000001  0.2706999999999999  0.77393  1.0000
  C   C115      1.0  0.1505  0.4821  0.1406  1.0000
  C   C116      1.0  0.33335000000000004  0.9112699999999999  0.37822  1.0000
  C   C117      1.0  0.52672  0.14491  0.70948  1.0000
  C   C118      1.0  0.37719  0.3333  0.37823  1.0000
  C   C119      1.0  0.43404000000000004  0.954  0.52592  1.0000
  C   C120      1.0  0.85188  0.60426  0.0947  1.0000
  C   C121      1.0  0.53024  0.18218999999999996  0.12007  1.0000
  C   C122      1.0  0.047860000000000014  0.20868  0.06505  1.0000
  C   C123      1.0  0.62576  0.5474599999999997  0.87213  1.0000
  C   C124      1.0  0.9698500000000001  0.17388  0.33144  1.0000
  C   C125      1.0  0.23276000000000005  0.9443599999999999  0.3069200000000001  1.0000
  C   C126      1.0  0.67363  0.46998999999999996  0.83162  1.0000
  C   C127      1.0  0.5790099999999998  0.4520199999999998  0.7328600000000002  1.0000
  C   C128      1.0  0.8524699999999998  0.22668  0.76301  1.0000
  C   C129      1.0  0.07277000000000002  0.91335  0.42677000000000004  1.0000
  C   C130      1.0  0.45423000000000024  0.9336599999999998  0.02579  1.0000
  C   C131      1.0  0.96358  0.4063999999999999  0.5047  1.0000
  C   C132      1.0  0.6183499999999998  0.48506  0.82471  1.0000
  C   C133      1.0  0.7457700000000002  0.9215399999999998  0.63447  1.0000
  C   C134      1.0  0.22940999999999995  0.63731  0.72635  1.0000
  C   C135      1.0  0.14525000000000013  0.6191799999999997  0.7094  1.0000
  C   C136      1.0  0.4397900000000001  0.8022999999999999  0.26483  1.0000
  C   C137      1.0  0.7636599999999999  0.42143  0.2668  1.0000
  C   C138      1.0  0.43291  0.46804  0.15904  1.0000
  C   C139      1.0  0.08677000000000001  0.41297  0.57323  1.0000
  C   C140      1.0  0.41172  0.8334  0.87832  1.0000
  C   C141      1.0  0.8270900000000001  0.017899999999999996  0.51936  1.0000
  C   C142      1.0  0.031060000000000032  0.6669  0.62009  1.0000
  C   C143      1.0  0.42123000000000005  0.24616999999999997  0.13445  1.0000
  C   C144      1.0  0.12096000000000022  0.9746899999999997  0.57644  1.0000
  C   C145      1.0  0.8213099999999999  0.29168  0.43481000000000003  1.0000
  C   C146      1.0  0.90273  0.43739  0.35492  1.0000
  C   C147      1.0  0.2268899999999999  0.15719999999999998  0.76296  1.0000
  C   C148      1.0  0.5031200000000001  0.30479999999999996  0.9952  1.0000
  C   C149      1.0  0.03552000000000003  0.74856  0.98511  1.0000
  C   C150      1.0  0.09039999999999994  0.49025  0.16355000000000003  1.0000
  C   C151      1.0  0.69518  0.09697999999999998  0.64503  1.0000
  C   C152      1.0  0.006890000000000001  0.7148  0.4473700000000001  1.0000
  C   C153      1.0  0.6227900000000001  0.66671  0.62178  1.0000
  C   C154      1.0  0.39687999999999996  0.57861  0.85412  1.0000
  C   C155      1.0  0.3061500000000001  0.9879700000000001  0.77534  1.0000
  C   C156      1.0  0.59668  0.19513999999999995  0.14482000000000003  1.0000
  C   C157      1.0  0.9437899999999999  0.51657  0.3069200000000001  1.0000
  C   C158      1.0  0.63866  0.9820799999999998  0.20177  1.0000
  C   C159      1.0  0.8273600000000003  0.47473999999999994  0.07661  1.0000
  C   C160      1.0  0.83114  0.006799999999999997  0.44757  1.0000
  C   C161      1.0  0.0026699999999999953  0.10284999999999998  0.50079  1.0000
  C   C162      1.0  0.40141  0.11131999999999996  0.94679  1.0000
  C   C163      1.0  0.72953  0.33549999999999996  0.94663  1.0000
  C   C164      1.0  0.81801  0.83243  0.88005  1.0000
  C   C165      1.0  0.02985000000000005  0.70825  0.97176  1.0000
  C   C166      1.0  0.7329300000000001  0.015720000000000005  0.80707  1.0000
  C   C167      1.0  0.7381700000000001  0.04176999999999999  0.05205  1.0000
  C   C168      1.0  0.7143299999999999  0.83134  0.44751  1.0000
  C   C169      1.0  0.6449900000000001  0.026809999999999994  0.20907  1.0000
  C   C170      1.0  0.77006  0.5119199999999998  0.55358  1.0000
  C   C171      1.0  0.81155  0.62078  0.06956  1.0000
  C   C172      1.0  0.2561  0.09135999999999997  0.16314  1.0000
  C   C173      1.0  0.64859  0.05000000000000001  0.40506  1.0000
  C   C174      1.0  0.4582000000000001  0.7615599999999999  0.4478900000000001  1.0000
  C   C175      1.0  0.32636  0.53002  0.16839  1.0000
  C   C176      1.0  0.9218200000000001  0.18681999999999996  0.21043000000000006  1.0000
  C   C177      1.0  0.16685000000000003  0.53107  0.12031  1.0000
  C   C178      1.0  0.39594000000000035  0.55106  0.90514  1.0000
  C   C179      1.0  0.12563000000000005  0.45472999999999997  0.3721400000000001  1.0000
  C   C180      1.0  0.7271800000000004  0.98163  0.64016  1.0000
  C   C181      1.0  0.29179999999999995  0.70994  0.02817  1.0000
  C   C182      1.0  0.9011199999999999  0.04025000000000001  0.44707  1.0000
  C   C183      1.0  0.79016  0.20834999999999995  0.47175000000000006  1.0000
  C   C184      1.0  0.31293  0.57821  0.28966  1.0000
  C   C185      1.0  0.9218800000000001  0.6979599999999998  0.63452  1.0000
  C   C186      1.0  0.0972600000000001  0.56262  0.64508  1.0000
  C   C187      1.0  0.5780000000000004  0.17098  0.8541  1.0000
  C   C188      1.0  0.0014900000000000338  0.87918  0.43032  1.0000
  C   C189      1.0  0.76141  0.33221999999999996  0.44799000000000005  1.0000
  C   C190      1.0  0.4647400000000001  0.2690699999999999  0.51489  1.0000
  C   C191      1.0  0.06285  0.07098000000000003  0.36463  1.0000
  C   C192      1.0  0.27288  0.01841000000000001  0.3598  1.0000
  C   C193      1.0  0.16801000000000002  0.73856  0.05190000000000001  1.0000
  C   C194      1.0  0.26384  0.047510000000000004  0.76732  1.0000
  C   C195      1.0  0.03184999999999996  0.06731999999999996  0.3407500000000001  1.0000
  C   C196      1.0  0.047209999999999995  0.12601  0.37203  1.0000
  C   C197      1.0  0.49978000000000017  0.7167099999999998  0.47299  1.0000
  C   C198      1.0  0.9279800000000002  0.38171999999999995  0.17535  1.0000
  C   C199      1.0  0.09887999999999993  0.95976  0.55296  1.0000
  C   C200      1.0  0.37919000000000014  0.17188  0.92344  1.0000
  C   C201      1.0  0.1121499999999999  0.5401300000000001  0.94695  1.0000
  C   C202      1.0  0.79136  0.32132999999999995  0.9350000000000002  1.0000
  C   C203      1.0  0.35140999999999994  0.94998  0.59493  1.0000
  C   C204      1.0  0.030140000000000135  0.8261199999999999  0.66857  1.0000
  C   C205      1.0  0.16706000000000007  0.38044999999999995  0.97739  1.0000
  C   C206      1.0  0.49687  0.6952  0.0048  1.0000
  C   C207      1.0  0.49863  0.03462  0.14444  1.0000
  C   C208      1.0  0.5066100000000001  0.3308  0.94742  1.0000
  C   C209      1.0  0.5475599999999999  0.95446  0.87197  1.0000
  C   C210      1.0  0.10313000000000005  0.32888999999999996  0.64578  1.0000
  C   C211      1.0  0.68903  0.0011799999999999868  0.43018  1.0000
  C   C212      1.0  0.43721  0.30473  0.35499  1.0000
  C   C213      1.0  0.19394000000000006  0.5694299999999999  0.72519  1.0000
  C   C214      1.0  0.45279000000000014  0.26083  0.33351  1.0000
  C   C215      1.0  0.9497100000000002  0.10401999999999995  0.5948500000000001  1.0000
  C   C216      1.0  0.47421  0.16823999999999992  0.9772300000000002  1.0000
  C   C217      1.0  0.11840000000000002  0.57193  0.32454  1.0000
  C   C218      1.0  0.9965700000000001  0.30343  0.50487  1.0000
  C   C219      1.0  0.67236  0.8649  0.9807700000000003  1.0000
  C   C220      1.0  0.79145  0.47037  0.52835  1.0000
  C   C221      1.0  0.47011  0.024420000000000032  0.83148  1.0000
  C   C222      1.0  0.9547699999999999  0.62561  0.87218  1.0000
  C   C223      1.0  0.41334000000000004  0.5735499999999998  0.9267100000000003  1.0000
  C   C224      1.0  0.49338  0.6692  0.05258  1.0000
  C   C225      1.0  0.18201999999999988  0.1676  0.11985  1.0000
  C   C226      1.0  0.6676499999999999  0.54174  0.55212  1.0000
  C   C227      1.0  0.20898000000000005  0.36407999999999996  0.00454  1.0000
  C   C228      1.0  0.8636600000000001  0.4822  0.98084  1.0000
  C   C229      1.0  0.8958799999999999  0.64852  0.40523  1.0000
  C   C230      1.0  0.81892  0.31331  0.28939  1.0000
  C   C231      1.0  0.6363599999999999  0.5772200000000001  0.9957000000000001  1.0000
  C   C232      1.0  0.06705999999999998  0.56016  0.34085000000000004  1.0000
  C   C233      1.0  0.9582400000000003  0.8320299999999999  0.9479700000000001  1.0000
  C   C234      1.0  0.9303200000000003  0.30600999999999984  0.7750900000000001  1.0000
  C   C235      1.0  0.8973  0.60579  0.49929  1.0000
  C   C236      1.0  0.04024000000000008  0.6117699999999998  0.44708  1.0000
  C   C237      1.0  0.6783200000000001  0.04786999999999999  0.06507  1.0000
  C   C238      1.0  0.56597  0.045989999999999996  0.47408  1.0000
  C   C239      1.0  0.8968499999999996  0.67111  0.35421  1.0000
  C   C240      1.0  0.07201000000000007  0.6182699999999999  0.82466  1.0000
  C   C241      1.0  0.82637  0.4752799999999999  0.66851  1.0000
  C   C242      1.0  0.41284  0.9275  0.5733  1.0000
  C   C243      1.0  0.5787700000000001  0.7538499999999999  0.86556  1.0000
  C   C244      1.0  0.034190000000000026  0.3227  0.14428  1.0000
  C   C245      1.0  0.14811000000000005  0.39573  0.90528  1.0000
  C   C246      1.0  0.2917699999999999  0.45206  0.43477  1.0000
  C   C247      1.0  0.018060000000000003  0.34925999999999996  0.35962  1.0000
  C   C248      1.0  0.20983999999999994  0.79165  0.52826  1.0000
  C   C249      1.0  0.4524200000000001  0.04554  0.12803  1.0000
  C   C250      1.0  0.17777999999999994  0.6389500000000001  0.20172  1.0000
  C   C251      1.0  0.0008900000000000262  0.17761999999999994  0.35565  1.0000
  C   C252      1.0  0.3040200000000002  0.19460999999999998  0.5047  1.0000
  C   C253      1.0  0.24386  0.010419999999999997  0.33676  1.0000
  C   C254      1.0  0.4880999999999999  0.80631  0.27485  1.0000
  C   C255      1.0  0.09266999999999997  0.86268  0.77407  1.0000
  C   C256      1.0  0.9819399999999999  0.65076  0.64038  1.0000
  C   C257      1.0  0.50108  0.18938999999999998  0.93018  1.0000
  C   C258      1.0  0.5298800000000002  0.9755799999999999  0.16852  1.0000
  C   C259      1.0  0.07817000000000005  0.8131699999999997  0.78957  1.0000
  C   C260      1.0  0.19683999999999996  0.5033499999999997  0.9950800000000002  1.0000
  C   C261      1.0  0.3018599999999999  0.25449999999999995  0.3652  1.0000
  C   C262      1.0  0.5698199999999999  0.51153  0.72501  1.0000
  C   C263      1.0  0.01795000000000012  0.6360199999999998  0.51926  1.0000
  C   C264      1.0  0.07799999999999999  0.89706  0.35409  1.0000
  C   C265      1.0  0.54179  0.2384499999999999  0.55212  1.0000
  C   C266      1.0  0.77306  0.8486799999999999  0.85975  1.0000
  C   C267      1.0  0.07803000000000002  0.13623999999999997  0.49566  1.0000
  C   C268      1.0  0.72663  0.3526599999999999  0.26281  1.0000
  C   C269      1.0  0.19484999999999997  0.99667  0.50468  1.0000
  C   C270      1.0  0.5400499999999999  0.40084  0.9469  1.0000
  C   C271      1.0  0.6666400000000001  0.08877000000000002  0.62178  1.0000
  C   C272      1.0  0.6113700000000001  0.90124  0.44702  1.0000
  C   C273      1.0  0.54701  0.23904  0.16639  1.0000
  C   C274      1.0  0.26089  0.95291  0.33355  1.0000
  C   C275      1.0  0.9133800000000001  0.58687  0.07325  1.0000
  C   C276      1.0  0.69814  0.74554  0.63477  1.0000
  C   C277      1.0  0.6062800000000002  0.9971799999999998  0.49923  1.0000
  C   C278      1.0  0.2733700000000002  0.6473299999999997  0.73718  1.0000
  C   C279      1.0  0.041729999999999996  0.16797  0.05202  1.0000
  C   C280      1.0  0.41390999999999994  0.5468100000000001  0.97403  1.0000
  C   C281      1.0  0.12498  0.96357  0.50473  1.0000
  C   C282      1.0  0.19516  0.06338999999999999  0.14477000000000004  1.0000
  C   C283      1.0  0.58717  0.07249  0.4267  1.0000
  C   C284      1.0  0.67096  0.07788000000000002  0.35405  1.0000
  C   C285      1.0  0.1390400000000001  0.6775399999999999  0.70195  1.0000
  C   C286      1.0  0.69445  0.80428  0.00466  1.0000
  C   C287      1.0  0.33133  0.2142199999999999  0.9475600000000002  1.0000
  C   C288      1.0  0.15740000000000007  0.85304  0.7631  1.0000
  C   C289      1.0  0.70817  0.2900499999999999  0.9718400000000001  1.0000
  C   C290      1.0  0.4697499999999999  0.81781  0.87994  1.0000
  C   C291      1.0  0.10411  0.35147  0.59476  1.0000
  C   C292      1.0  0.49888  0.81058  0.06985  1.0000
  C   C293      1.0  0.95246  0.07868  0.23247  1.0000
  C   C294      1.0  0.3356599999999999  0.98827  0.9466200000000001  1.0000
  C   C295      1.0  0.73079  0.24846999999999997  0.48524000000000006  1.0000
  C   C296      1.0  0.60404  0.44896  0.09485000000000002  1.0000
  C   C297      1.0  0.05620000000000004  0.48344000000000004  0.69307  1.0000
  C   C298      1.0  0.83552  0.22980000000000003  0.44648  1.0000
  C   C299      1.0  0.6509200000000002  0.7270599999999999  0.64039  1.0000
  C   C300      1.0  0.6377  0.40708  0.72595  1.0000
  C   C301      1.0  0.9347100000000003  0.58612  0.02597  1.0000
  C   C302      1.0  0.25423  0.07848999999999999  0.36553  1.0000
  C   C303      1.0  0.45450999999999997  0.0474  0.37201  1.0000
  C   C304      1.0  0.047519999999999916  0.92132  0.7675300000000003  1.0000
  C   C305      1.0  0.02536000000000001  0.67225  0.42350000000000004  1.0000
  C   C306      1.0  0.9746600000000002  0.8801999999999999  0.47735  1.0000
  C   C307      1.0  0.04691000000000001  0.54789  0.16653  1.0000
  C   C308      1.0  0.36228999999999995  0.59292  0.27404  1.0000
  C   C309      1.0  0.39737  0.4979  0.9991400000000001  1.0000
  C   C310      1.0  0.80244  0.5780100000000001  0.86509  1.0000
  C   C311      1.0  0.9524699999999999  0.4530799999999999  0.33343000000000006  1.0000
  C   C312      1.0  0.7099099999999999  0.92197  0.50415  1.0000
  C   C313      1.0  0.8101699999999998  0.21651999999999996  0.97316  1.0000
  C   C314      1.0  0.16447000000000012  0.7702099999999997  0.55352  1.0000
  C   C315      1.0  0.62079  0.49779  0.0697  1.0000
  C   C316      1.0  0.48389999999999994  0.7673899999999999  0.69314  1.0000
  C   C317      1.0  0.8292200000000001  0.60358  0.14568  1.0000
  C   C318      1.0  0.010000000000000026  0.40939999999999993  0.33662  1.0000
  C   C319      1.0  0.3226200000000001  0.49889  0.14424  1.0000
  C   C320      1.0  0.78317  0.0001399999999999983  0.027030000000000005  1.0000
  C   C321      1.0  0.5476500000000002  0.76393  0.26687  1.0000
  C   C322      1.0  0.8609400000000003  0.32246  0.29806  1.0000
  C   C323      1.0  0.55999  0.03166000000000001  0.34078  1.0000
  C   C324      1.0  0.98497  0.11858  0.32449  1.0000
  C   C325      1.0  0.77058  0.36269  0.27365  1.0000
  C   C326      1.0  0.4222000000000001  0.18069  0.71063  1.0000
  C   C327      1.0  0.9681399999999999  0.93267  0.65926  1.0000
  C   C328      1.0  0.47485  0.6212599999999999  0.07658  1.0000
  C   C329      1.0  0.17731000000000008  0.4657099999999999  0.35571  1.0000
  C   C330      1.0  0.04750999999999991  0.54693  0.6665600000000002  1.0000
  C   C331      1.0  0.53168  0.06000999999999997  0.84092  1.0000
  C   C332      1.0  0.9138  0.5655899999999999  0.47408  1.0000
  C   C333      1.0  0.9538099999999999  0.08623999999999998  0.52591  1.0000
  C   C334      1.0  0.52953  0.79031  0.47162  1.0000
  C   C335      1.0  0.78488  0.49317  0.05269  1.0000
  C   C336      1.0  0.9398000000000001  0.43304999999999993  0.15901  1.0000
  C   C337      1.0  0.43712000000000006  0.99856  0.13528  1.0000
  C   C338      1.0  0.6197  0.52468  0.0227  1.0000
  C   C339      1.0  0.44000999999999985  0.96835  0.65923  1.0000
  C   C340      1.0  0.18980000000000016  0.7834699999999998  0.02686  1.0000
  C   C341      1.0  0.29009  0.07798999999999999  0.49585  1.0000
  C   C342      1.0  0.49258  0.4403  0.26484  1.0000
  C   C343      1.0  0.42924999999999996  0.43694999999999995  0.13523  1.0000
  C   C344      1.0  0.4219300000000001  0.8290499999999998  0.14591  1.0000
  C   C345      1.0  0.5187399999999999  0.77278  0.8596600000000001  1.0000
  C   C346      1.0  0.10552999999999998  0.3974299999999999  0.9991400000000001  1.0000
  C   C347      1.0  0.07812  0.30205  0.36546  1.0000
  C   C348      1.0  0.54794  0.17853999999999995  0.5653  1.0000
  C   C349      1.0  0.060189999999999924  0.56694  0.841  1.0000
  C   C350      1.0  0.9927200000000004  0.3021799999999999  0.76487  1.0000
  C   C351      1.0  0.6354700000000006  0.8272799999999999  0.51934  1.0000
  C   C352      1.0  0.13768999999999992  0.7293  0.22608  1.0000
  C   C353      1.0  0.24868000000000007  0.5353899999999998  0.48513  1.0000
  C   C354      1.0  0.83293  0.61958  0.02258  1.0000
  C   C355      1.0  0.9658000000000004  0.6772899999999998  0.8557200000000001  1.0000
  C   C356      1.0  0.13633000000000003  0.51782  0.01916  1.0000
  C   C357      1.0  0.5716500000000001  0.98492  0.32445  1.0000
  C   C358      1.0  0.21681999999999993  0.9998699999999999  0.9729700000000001  1.0000
  C   C359      1.0  0.08620000000000001  0.43438  0.5259  1.0000
  C   C360      1.0  0.8805899999999999  0.35475  0.79085  1.0000
  C   C361      1.0  0.3221399999999999  0.51834  0.29818  1.0000
  C   C362      1.0  0.9396  0.9926199999999997  0.76562  1.0000
  C   C363      1.0  0.8803599999999999  0.6673100000000001  0.47743  1.0000
  C   C364      1.0  0.80481  0.9366299999999999  0.85526  1.0000
  C   C365      1.0  0.9835200000000001  0.5566399999999999  0.19303  1.0000
  C   C366      1.0  0.55577  0.26709  0.19299  1.0000
  C   C367      1.0  0.31098  0.99881  0.56981  1.0000
  C   C368      1.0  0.25162  0.76932  0.01474  1.0000
  C   C369      1.0  0.5707400000000004  0.56305  0.86478  1.0000
  C   C370      1.0  0.98205  0.36395999999999995  0.4807300000000001  1.0000
  C   C371      1.0  0.43017  0.4884599999999999  0.27502  1.0000
  C   C372      1.0  0.8023400000000002  0.49286  0.26474  1.0000
  C   C373      1.0  0.40741  0.22908999999999993  0.7263300000000003  1.0000
  C   C374      1.0  0.8319599999999999  0.26143  0.94811  1.0000
  C   C375      1.0  0.66866  0.78577  0.05245  1.0000
  C   C376      1.0  0.53527  0.73092  0.48512  1.0000
  C   C377      1.0  0.9073200000000002  0.13731999999999994  0.22592  1.0000
  C   C378      1.0  0.16888  0.9932099999999999  0.55245  1.0000
  C   C379      1.0  0.58827  0.1666  0.12167  1.0000
  C   C380      1.0  0.4849399999999999  0.07170999999999998  0.82461  1.0000
  C   C381      1.0  0.9527700000000001  0.8739899999999999  0.62799  1.0000
  C   C382      1.0  0.48231000000000046  0.67322  0.9808  1.0000
  C   C383      1.0  0.17362000000000005  0.52473  0.3315  1.0000
  C   C384      1.0  0.6195000000000004  0.5263  0.70936  1.0000
  C   C385      1.0  0.48803000000000024  0.8356899999999999  0.44635  1.0000
  C   C386      1.0  0.20861000000000002  0.6786599999999999  0.06501  1.0000
  C   C387      1.0  0.48208999999999996  0.13867  0.70201  1.0000
  C   C388      1.0  0.4033300000000001  0.8048599999999999  0.85517  1.0000
  C   C389      1.0  0.92723  0.08664999999999999  0.57325  1.0000
  C   C390      1.0  0.38864  0.09874  0.55299  1.0000
  C   C391      1.0  0.07064  0.50161  0.36478  1.0000
  C   C392      1.0  0.6208100000000002  0.8281  0.07657  1.0000
  C   C393      1.0  0.21511  0.50684  0.9473  1.0000
  C   C394      1.0  0.56277  0.69529  0.64503  1.0000
  C   C395      1.0  0.17262999999999987  0.52527  0.9233900000000003  1.0000
  C   C396      1.0  0.9597599999999998  0.38823  0.55292  1.0000
  C   C397      1.0  0.00010000000000000125  0.18962999999999997  0.027020000000000002  1.0000
  C   C398      1.0  0.5500200000000001  0.14885000000000004  0.90517  1.0000
  C   C399      1.0  0.38049000000000005  0.4736800000000001  0.29065  1.0000
  C   C400      1.0  0.50022  0.28328000000000003  0.52701  1.0000
  C   C401      1.0  0.24533  0.19861999999999994  0.13453  1.0000
  C   C402      1.0  0.32167000000000023  0.95213  0.93493  1.0000
  C   C403      1.0  0.5628700000000002  0.0014399999999999689  0.86471  1.0000
  C   C404      1.0  0.5106  0.7438299999999998  0.83665  1.0000
  C   C405      1.0  0.42834999999999995  0.015090000000000011  0.67556  1.0000
  C   C406      1.0  0.34264  0.27306  0.73724  1.0000
  C   C407      1.0  0.5472000000000001  0.7391999999999999  0.6665  1.0000
  C   C408      1.0  0.6959999999999998  0.80537  0.4953  1.0000
  C   C409      1.0  0.85473  0.38082  0.29061  1.0000
  C   C410      1.0  0.8792400000000001  0.6887899999999999  0.43044  1.0000
  C   C411      1.0  0.2709  0.09248999999999995  0.7739500000000001  1.0000
  C   C412      1.0  0.001630000000000059  0.57058  0.86486  1.0000
  C   C413      1.0  0.9530400000000001  0.4521  0.83349  1.0000
  C   C414      1.0  0.9973300000000003  0.89715  0.49923  1.0000
  C   C415      1.0  0.47327000000000014  0.8550999999999999  0.29054  1.0000
  C   C416      1.0  0.60309  0.42143  0.14587  1.0000
  C   C417      1.0  0.5257600000000001  0.83174  0.02281  1.0000
  C   C418      1.0  0.42744  0.91258  0.07311000000000001  1.0000
  C   C419      1.0  0.8334400000000001  0.87658  0.87843  1.0000
  C   C420      1.0  0.50741  0.55969  0.73518  1.0000
  C   C421      1.0  0.08659999999999995  0.41313  0.92673  1.0000
  C   C422      1.0  0.5454900000000001  0.9526199999999996  0.62799  1.0000
  C   C423      1.0  0.11939000000000004  0.64525  0.20916000000000007  1.0000
  C   C424      1.0  0.8750099999999998  0.03643999999999994  0.4953100000000001  1.0000
  C   C425      1.0  0.99836  0.42939999999999995  0.13515  1.0000
  C   C426      1.0  0.9998799999999999  0.8103799999999999  0.9729700000000001  1.0000
  C   C427      1.0  0.7361300000000002  0.95252  0.2327  1.0000
  C   C428      1.0  0.5161  0.23265  0.30687  1.0000
  C   C429      1.0  0.9701400000000001  0.29176  0.02824  1.0000
  C   C430      1.0  0.34905999999999987  0.27299  0.35956  1.0000
  C   C431      1.0  0.8790600000000001  0.025319999999999995  0.42358  1.0000
  C   C432      1.0  0.911  0.37731  0.37813  1.0000
  C   C433      1.0  0.9882600000000001  0.72948  0.9466200000000001  1.0000
  C   C434      1.0  0.23632999999999996  0.57856  0.73321  1.0000
  C   C435      1.0  0.84259  0.14696  0.23688  1.0000
  C   C436      1.0  0.52437  0.97007  0.33135  1.0000
  C   C437      1.0  0.9899900000000001  0.59061  0.66337  1.0000
  C   C438      1.0  0.27044  0.66449  0.05338  1.0000
  C   C439      1.0  0.9219700000000002  0.86374  0.50438  1.0000
  C   C440      1.0  0.66433  0.011719999999999998  0.05338  1.0000
  C   C441      1.0  0.87437  0.54528  0.6278500000000001  1.0000
  C   C442      1.0  0.0939100000000001  0.5363099999999996  0.9951800000000001  1.0000
  C   C443      1.0  0.5179100000000001  0.8613399999999999  0.298  1.0000
  C   C444      1.0  0.32816  0.12078  0.57647  1.0000
  C   C445      1.0  0.05029999999999995  0.89597  0.40517  1.0000
  C   C446      1.0  0.36455000000000004  0.1727  0.48066  1.0000
  C   C447      1.0  0.06966000000000008  0.6939899999999998  0.22492  1.0000
  C   C448      1.0  0.83312  0.4689200000000001  0.87972  1.0000
  C   C449      1.0  0.5931099999999999  0.87514  0.4952600000000001  1.0000
  C   C450      1.0  0.31051000000000006  0.49987999999999994  0.47298  1.0000
  C   C451      1.0  0.46379  0.62529  0.00486  1.0000
  C   C452      1.0  0.08899000000000006  0.6226900000000001  0.62188  1.0000
  C   C453      1.0  0.19756  0.422  0.13495  1.0000
  C   C454      1.0  0.23858000000000001  0.66779  0.55201  1.0000
  C   C455      1.0  0.60262  0.5021199999999999  0.00085  1.0000
  C   C456      1.0  0.7547600000000002  0.8014200000000001  0.86539  1.0000
  C   C457      1.0  0.26182000000000005  0.9582299999999998  0.94795  1.0000
  C   C458      1.0  0.5251399999999999  0.37873999999999997  0.92342  1.0000
  C   C459      1.0  0.17290000000000005  0.9820999999999999  0.48066  1.0000
  C   C460      1.0  0.26920999999999995  0.75153  0.51477  1.0000
  C   C461      1.0  0.33227  0.025459999999999997  0.52275  1.0000
  C   C462      1.0  0.6778599999999999  0.48164999999999986  0.7018400000000002  1.0000
  C   C463      1.0  0.80515  0.003330000000000008  0.49534  1.0000
  C   C464      1.0  0.025340000000000033  0.11979  0.52267  1.0000
  C   C465      1.0  0.23081000000000002  0.03552000000000003  0.98513  1.0000
  C   C466      1.0  0.82269  0.5342999999999998  0.64428  1.0000
  C   C467      1.0  0.8494700000000001  0.5179  0.85943  1.0000
  C   C468      1.0  0.7438900000000005  0.90875  0.83679  1.0000
  C   C469      1.0  0.12077000000000004  0.3111799999999999  0.56956  1.0000
  C   C470      1.0  0.060389999999999985  0.007349999999999981  0.23440000000000005  1.0000
  C   C471      1.0  0.22993000000000005  0.48809999999999987  0.44642  1.0000
  C   C472      1.0  0.5860700000000002  0.45321  0.025960000000000007  1.0000
  C   C473      1.0  0.8815900000000003  0.42808  0.67546  1.0000
  C   C474      1.0  0.33298  0.31785  0.37994  1.0000
  C   C475      1.0  0.37547000000000014  0.09284999999999999  0.99504  1.0000
  C   C476      1.0  0.10270999999999998  0.39418  0.5007  1.0000
  C   C477      1.0  0.46540000000000015  0.0012200000000000065  0.35556  1.0000
  C   C478      1.0  0.04618000000000001  0.91376  0.47412  1.0000
  C   C479      1.0  0.99311  0.2851999999999999  0.55263  1.0000
  C   C480      1.0  0.7483500000000001  0.23067  0.98528  1.0000
  C   C481      1.0  0.67737  0.50113  0.85575  1.0000
  C   C482      1.0  0.57253  0.08739999999999999  0.9269000000000001  1.0000
  C   C483      1.0  0.3177900000000002  0.9692199999999999  0.38007  1.0000
  C   C484      1.0  0.9095600000000003  0.5097299999999998  0.83647  1.0000
  C   C485      1.0  0.82221  0.36106  0.79829  1.0000
  C   C486      1.0  0.93713  0.92902  0.63539  1.0000
  C   C487      1.0  0.71657  0.31034  0.4731  1.0000
  C   C488      1.0  0.03642999999999996  0.5935800000000001  0.4953  1.0000
  C   C489      1.0  0.011720000000000001  0.27052  0.05339  1.0000
  C   C490      1.0  0.20853000000000002  0.52965  0.47166  1.0000
  C   C491      1.0  0.9985199999999999  0.12080999999999999  0.5697  1.0000
  C   C492      1.0  0.5176699999999999  0.32677999999999996  0.0192  1.0000
  C   C493      1.0  0.4894  0.25617  0.16335  1.0000
  C   C494      1.0  0.5362  0.37470999999999993  0.99514  1.0000
  C   C495      1.0  0.8878300000000001  0.45987999999999996  0.05306  1.0000
  C   C496      1.0  0.32763  0.13508  0.01925  1.0000
  C   C497      1.0  0.68948  0.50013  0.52703  1.0000
  C   C498      1.0  0.4499400000000001  0.8511399999999999  0.09485000000000002  1.0000
  C   C499      1.0  0.007270000000000003  0.69782  0.23513  1.0000
  C   C500      1.0  0.40914  0.2438499999999999  0.33662  1.0000
  C   C501      1.0  0.45204999999999984  0.82147  0.4347100000000001  1.0000
  C   C502      1.0  0.7098700000000001  0.97015  0.028210000000000002  1.0000
  C   C503      1.0  0.30479  0.90305  0.35499  1.0000
  C   C504      1.0  0.38164  0.51494  0.17529  1.0000
  N   N1        1.0  0.36389  0.37659  0.40007  1.0000
  N   N2        1.0  0.08910999999999994  0.72529  0.68583  1.0000
  N   N3        1.0  0.3599600000000001  0.87656  0.90031  1.0000
  N   N4        1.0  0.46707000000000015  0.10600999999999997  0.47743  1.0000
  N   N5        1.0  0.2744500000000001  0.49994  0.31421  1.0000
  N   N6        1.0  0.7771500000000001  0.459  0.68706  1.0000
  N   N7        1.0  0.12336  0.13669  0.09968  1.0000
  N   N8        1.0  0.4995200000000001  0.91135  0.31407  1.0000
  N   N9        1.0  0.04111999999999997  0.72276  0.81302  1.0000
  N   N10       1.0  0.004540000000000014  0.4297899999999999  0.99998  1.0000
  N   N11       1.0  0.5503100000000001  0.39341999999999994  0.02248  1.0000
  N   N12       1.0  0.56457  0.0056  0.00032  1.0000
  N   N13       1.0  0.9228600000000001  0.22304999999999994  0.31289  1.0000
  N   N14       1.0  0.50048  0.08865  0.68594  1.0000
  N   N15       1.0  0.08959000000000006  0.19211999999999996  0.0892  1.0000
  N   N16       1.0  0.7228499999999999  0.423  0.8130700000000001  1.0000
  N   N17       1.0  0.86362  0.35917  0.90022  1.0000
  N   N18       1.0  0.44967999999999986  0.6065800000000001  0.97752  1.0000
  N   N19       1.0  0.3766500000000002  0.85945  0.40002  1.0000
  N   N20       1.0  0.64004  0.12343  0.09969  1.0000
  N   N21       1.0  0.9954499999999998  0.5702  2e-05  1.0000
  N   N22       1.0  0.6360900000000002  0.62341  0.59996  1.0000
  N   N23       1.0  0.9348600000000001  0.07039999999999998  0.49995  1.0000
  N   N24       1.0  0.5886600000000002  0.00039000000000000205  0.18573  1.0000
  N   N25       1.0  0.9494599999999999  0.4666  0.4773600000000001  1.0000
  N   N26       1.0  0.05054999999999996  0.5333700000000001  0.52263  1.0000
  N   N27       1.0  0.54057  0.9232  0.31276  1.0000
  N   N28       1.0  0.27714000000000005  0.5770099999999999  0.18693  1.0000
  N   N29       1.0  0.87051  0.3084499999999999  0.41056  1.0000
  N   N30       1.0  0.8765900000000001  0.8632799999999999  0.90037  1.0000
  N   N31       1.0  0.9662500000000002  0.44962  0.97746  1.0000
  N   N32       1.0  0.9297000000000002  0.50481  0.49995  1.0000
  N   N33       1.0  0.6915200000000002  0.5897099999999998  0.58944  1.0000
  N   N34       1.0  0.30846  0.41028999999999993  0.41058000000000006  1.0000
  N   N35       1.0  0.12947999999999993  0.69156  0.58944  1.0000
  N   N36       1.0  0.03373000000000001  0.55039  0.02254  1.0000
  N   N37       1.0  0.3710399999999999  0.91042  0.91074  1.0000
  N   N38       1.0  0.4113200000000002  0.9996  0.81428  1.0000
  N   N39       1.0  0.43542999999999993  0.99438  0.9997  1.0000
  N   N40       1.0  7.000000000004595e-05  0.77438  0.81427  1.0000
  N   N41       1.0  0.06512000000000007  0.9296199999999999  0.50009  1.0000
  N   N42       1.0  0.49475  0.93494  0.49995  1.0000
  N   N43       1.0  0.8081600000000001  0.37052  0.91074  1.0000
  N   N44       1.0  0.19181  0.62946  0.08927  1.0000
  N   N45       1.0  0.22284000000000004  0.5410099999999999  0.31295  1.0000
  N   N46       1.0  0.5701599999999999  0.4344399999999998  0.9999500000000001  1.0000
  N   N47       1.0  0.07712000000000009  0.7769499999999999  0.68713  1.0000
  N   N48       1.0  0.13635999999999998  0.64081  0.09978  1.0000
  N   N49       1.0  0.6233299999999999  0.14059  0.59999  1.0000
  N   N50       1.0  0.39435  0.03263  0.02226  1.0000
  N   N51       1.0  0.45942  0.07681000000000002  0.68725  1.0000
  N   N52       1.0  0.0703099999999999  0.49517  0.50003  1.0000
  N   N53       1.0  0.9108899999999999  0.27471  0.31418  1.0000
  N   N54       1.0  0.85923  0.3639299999999999  0.3999500000000001  1.0000
  N   N55       1.0  0.6056400000000002  0.96735  0.97776  1.0000
  N   N56       1.0  0.8938399999999996  0.050570000000000004  0.52256  1.0000
  N   N57       1.0  0.7255400000000001  0.5000600000000001  0.6858  1.0000
  N   N58       1.0  0.6289500000000001  0.08958  0.08926000000000002  1.0000
  N   N59       1.0  0.14075999999999997  0.63609  0.60005  1.0000
  N   N60       1.0  0.5052699999999999  0.06505  0.50006  1.0000
  N   N61       1.0  0.99993  0.22560999999999995  0.18574  1.0000
  N   N62       1.0  0.5329400000000001  0.89397  0.52257  1.0000
  N   N63       1.0  0.10614000000000015  0.9494299999999999  0.47748  1.0000
  N   N64       1.0  0.9103700000000002  0.8078599999999998  0.9108200000000002  1.0000
  N   N65       1.0  0.7744700000000002  0.41106999999999994  0.81438  1.0000
  N   N66       1.0  0.4103  0.8706999999999999  0.41053000000000006  1.0000
  N   N67       1.0  0.95887  0.27723  0.18699  1.0000
  N   N68       1.0  0.42319  0.04066999999999997  0.81294  1.0000
  N   N69       1.0  0.5896700000000001  0.12932  0.58949  1.0000
  N   N70       1.0  0.22551999999999994  0.5889500000000001  0.18562  1.0000
  N   N71       1.0  0.5768000000000001  0.9593199999999998  0.18706  1.0000
  N   N72       1.0  0.42983000000000005  0.56557  5.000000000000001e-05  1.0000
  O   O1        1.0  0.11811999999999998  0.31914000000000003  0.36022  1.0000
  O   O2        1.0  0.38889000000000007  0.86892  0.16833  1.0000
  O   O3        1.0  0.76599  0.9042299999999998  0.4831  1.0000
  O   O4        1.0  0.3687000000000005  0.8889199999999999  0.66854  1.0000
  O   O5        1.0  0.26513  0.3469  0.9836600000000001  1.0000
  O   O6        1.0  0.7029600000000001  0.8183899999999998  0.86016  1.0000
  O   O7        1.0  0.34633999999999987  0.88956  0.7678  1.0000
  O   O8        1.0  0.10996000000000006  0.004609999999999995  0.23319  1.0000
  O   O9        1.0  0.20183000000000006  0.7629699999999999  0.23124  1.0000
  O   O10       1.0  0.8048100000000002  0.63947  0.2392  1.0000
  O   O11       1.0  0.9357600000000001  0.12986999999999999  0.66187  1.0000
  O   O12       1.0  0.29142  0.08486  0.37642  1.0000
  O   O13       1.0  0.96262  0.7453399999999999  0.24551  1.0000
  O   O14       1.0  0.8146700000000002  0.6321199999999998  0.95312  1.0000
  O   O15       1.0  0.39219999999999994  0.75429  0.8001000000000001  1.0000
  O   O16       1.0  0.15229  0.50474  0.7331800000000002  1.0000
  O   O17       1.0  0.1311600000000001  0.42563  0.83164  1.0000
  O   O18       1.0  0.30459999999999987  0.81675  0.73904  1.0000
  O   O19       1.0  0.36772  0.39987999999999996  0.04658  1.0000
  O   O20       1.0  0.81648  0.13954000000000003  0.73905  1.0000
  O   O21       1.0  0.6101200000000001  0.15250999999999998  0.73322  1.0000
  O   O22       1.0  0.42636999999999997  0.6114300000000001  0.83143  1.0000
  O   O23       1.0  0.72756  0.06435999999999999  0.33835  1.0000
  O   O24       1.0  0.8682100000000001  0.6859499999999998  0.54657  1.0000
  O   O25       1.0  0.6313  0.11109  0.33145  1.0000
  O   O26       1.0  0.3607100000000001  0.68357  0.76062  1.0000
  O   O27       1.0  0.5321000000000002  0.18855999999999998  0.29145  1.0000
  O   O28       1.0  0.20237  0.11837  0.36023  1.0000
  O   O29       1.0  0.09587999999999998  0.15351  0.51664  1.0000
  O   O30       1.0  0.8990000000000005  0.8679599999999998  0.54661  1.0000
  O   O31       1.0  0.40054  0.6668300000000001  0.24904  1.0000
  O   O32       1.0  0.8112700000000003  0.012249999999999997  0.70852  1.0000
  O   O33       1.0  0.8918000000000004  0.55419  0.29996  1.0000
  O   O34       1.0  0.88882  0.07381999999999998  0.6684200000000001  1.0000
  O   O35       1.0  0.7480499999999999  0.5844599999999998  0.8753400000000002  1.0000
  O   O36       1.0  0.70158  0.30406  0.73095  1.0000
  O   O37       1.0  0.2724399999999999  0.93562  0.66163  1.0000
  O   O38       1.0  0.18425999999999995  0.16645  0.74836  1.0000
  O   O39       1.0  0.39876  0.18689999999999998  0.04652  1.0000
  O   O40       1.0  0.56467  0.22756999999999997  0.8382  1.0000
  O   O41       1.0  0.7457000000000001  0.045939999999999995  0.2456  1.0000
  O   O42       1.0  0.25414999999999993  0.89231  0.29994  1.0000
  O   O43       1.0  0.25193999999999994  0.4156  0.12463  1.0000
  O   O44       1.0  0.63225  0.60017  0.95342  1.0000
  O   O45       1.0  0.2369499999999999  0.19556  0.76874  1.0000
  O   O46       1.0  0.8464100000000001  0.7655099999999998  0.48336  1.0000
  O   O47       1.0  0.83327  0.09899999999999999  0.2515  1.0000
  O   O48       1.0  0.004770000000000088  0.6524199999999999  0.23318000000000005  1.0000
  O   O49       1.0  0.2542499999999999  0.95413  0.75439  1.0000
  O   O50       1.0  0.6011999999999998  0.81312  0.95351  1.0000
  O   O51       1.0  0.38136000000000003  0.29798  0.13988  1.0000
  O   O52       1.0  0.69538  0.18328999999999995  0.26091  1.0000
  O   O53       1.0  0.18530000000000005  0.36816  0.04681  1.0000
  O   O54       1.0  0.7548599999999999  0.53758  0.25435  1.0000
  O   O55       1.0  0.46302000000000004  0.54593  0.74567  1.0000
  O   O56       1.0  0.31895  0.20266  0.3599  1.0000
  O   O57       1.0  0.09968999999999997  0.81615  0.25141  1.0000
  O   O58       1.0  0.24746999999999997  0.29185  0.37602  1.0000
  O   O59       1.0  0.29711000000000004  0.18156999999999998  0.13982  1.0000
  O   O60       1.0  0.07367000000000011  0.36852  0.66844  1.0000
  O   O61       1.0  0.53697  0.45406  0.25435  1.0000
  O   O62       1.0  0.13177999999999998  0.31404  0.45344000000000007  1.0000
  O   O63       1.0  0.03736999999999998  0.25465000000000004  0.7545  1.0000
  O   O64       1.0  0.49557000000000007  0.39022  0.26691  1.0000
  O   O65       1.0  0.012740000000000017  0.46735000000000004  0.70836  1.0000
  O   O66       1.0  0.57356  0.38863999999999993  0.16857  1.0000
  O   O67       1.0  0.6305600000000001  0.43490999999999996  0.1615  1.0000
  O   O68       1.0  0.74574  0.10775999999999998  0.70006  1.0000
  O   O69       1.0  0.31625000000000025  0.8052099999999999  0.23904000000000003  1.0000
  O   O70       1.0  0.9460599999999999  0.60861  0.20005000000000003  1.0000
  O   O71       1.0  0.65373  0.59502  0.01663  1.0000
  O   O72       1.0  0.30766  0.30886  0.07606  1.0000
  O   O73       1.0  0.73709  0.29827  0.26868  1.0000
  O   O74       1.0  0.6110600000000002  0.13112000000000001  0.83167  1.0000
  O   O75       1.0  0.6837000000000001  0.19485999999999995  0.7609  1.0000
  O   O76       1.0  0.38985999999999993  0.84754  0.26678  1.0000
  O   O77       1.0  0.13968000000000008  0.30444999999999994  0.73911  1.0000
  O   O78       1.0  0.6922799999999999  0.69124  0.92395  1.0000
  O   O79       1.0  0.7922800000000001  0.74707  0.87612  1.0000
  O   O80       1.0  0.9674300000000002  0.51315  0.20832  1.0000
  O   O81       1.0  0.31628  0.59958  0.7515500000000003  1.0000
  O   O82       1.0  0.08436000000000007  0.24757999999999997  0.37646  1.0000
  O   O83       1.0  0.1667100000000001  0.9010099999999999  0.74849  1.0000
  O   O84       1.0  0.9952199999999999  0.34758  0.76681  1.0000
  O   O85       1.0  0.9263199999999999  0.63149  0.33154  1.0000
  O   O86       1.0  0.88195  0.68081  0.63972  1.0000
  O   O87       1.0  0.5994699999999998  0.33318999999999993  0.7508200000000003  1.0000
  O   O88       1.0  0.30436  0.2630599999999998  0.7313100000000002  1.0000
  O   O89       1.0  0.6810599999999999  0.79735  0.64011  1.0000
  O   O90       1.0  0.11116  0.9262  0.33159  1.0000
  O   O91       1.0  0.5850599999999999  0.7908699999999999  0.87671  1.0000
  O   O92       1.0  0.69564  0.7369399999999999  0.26868  1.0000
  O   O93       1.0  0.43524000000000007  0.7724699999999999  0.16183  1.0000
  O   O94       1.0  0.4877000000000002  0.6888299999999999  0.79151  1.0000
  O   O95       1.0  0.34626  0.4049899999999999  0.98338  1.0000
  O   O96       1.0  0.18350999999999998  0.86053  0.26089  1.0000
  O   O97       1.0  0.24565  0.94679  0.19995  1.0000
  O   O98       1.0  0.80803  0.80782  0.57571  1.0000
  O   O99       1.0  0.7630100000000002  0.8044699999999999  0.23128  1.0000
  O   O100      1.0  0.5467200000000002  0.24547  0.74535  1.0000
  O   O101      1.0  0.86881  0.57441  0.16834  1.0000
  O   O102      1.0  0.98724  0.53266  0.29163  1.0000
  O   O103      1.0  0.18036  0.38229  0.13975  1.0000
  O   O104      1.0  0.95264  0.03717000000000001  0.75619  1.0000
  O   O105      1.0  0.10104  0.13201000000000002  0.45343  1.0000
  O   O106      1.0  0.65353  0.11042000000000002  0.23232  1.0000
  O   O107      1.0  0.19195000000000004  0.19217  0.42432  1.0000
  O   O108      1.0  0.19514000000000004  0.3605499999999999  0.76081  1.0000
  O   O109      1.0  0.03251000000000006  0.48684999999999995  0.79168  1.0000
  O   O110      1.0  0.19565999999999995  0.79879  0.76899  1.0000
  O   O111      1.0  0.31114  0.96835  0.20839  1.0000
  O   O112      1.0  0.04738000000000009  0.9628  0.24381  1.0000
  O   O113      1.0  0.31343  0.10103999999999999  0.45359000000000005  1.0000
  O   O114      1.0  0.2629299999999999  0.7017299999999999  0.7313100000000002  1.0000
  O   O115      1.0  0.23401000000000008  0.09576999999999997  0.5169  1.0000
  O   O116      1.0  0.40371000000000007  0.26647000000000004  0.9832  1.0000
  O   O117      1.0  0.5044300000000002  0.60978  0.7331  1.0000
  O   O118      1.0  0.81965  0.6176899999999999  0.86035  1.0000
  O   O119      1.0  0.7348500000000001  0.65306  0.01635  1.0000
  O   O120      1.0  0.8900400000000002  0.9953699999999999  0.76681  1.0000
  O   O121      1.0  0.6078300000000002  0.24568999999999994  0.19988  1.0000
  O   O122      1.0  0.06431000000000002  0.87005  0.33816  1.0000
  O   O123      1.0  0.29844000000000004  0.69596  0.26902  1.0000
  O   O124      1.0  0.7981599999999999  0.23701999999999998  0.76878  1.0000
  O   O125      1.0  0.15361000000000002  0.23445999999999997  0.51664  1.0000
  O   O126      1.0  0.7086499999999999  0.91536  0.62335  1.0000
  O   O127      1.0  0.18867999999999996  0.98783  0.29149  1.0000
  O   O128      1.0  0.9155700000000003  0.75244  0.6235900000000001  1.0000
  O   O129      1.0  0.24512000000000006  0.4623999999999999  0.74566  1.0000
  O   O130      1.0  0.5123300000000001  0.31114999999999987  0.2085  1.0000
  O   O131      1.0  0.22737999999999994  0.36904  0.8387000000000001  1.0000
  O   O132      1.0  0.6666700000000001  0.68426  0.24817  1.0000
  O   O133      1.0  0.84769  0.49525  0.26683  1.0000
  O   O134      1.0  0.36943  0.56511  0.8385000000000001  1.0000
  O   O135      1.0  0.6865700000000002  0.89887  0.54638  1.0000
  O   O136      1.0  0.13064999999999996  0.27227  0.66139  1.0000
  O   O137      1.0  0.41491  0.20916999999999994  0.1233  1.0000
  O   O138      1.0  0.79751  0.8814899999999998  0.63996  1.0000
  O   O139      1.0  0.05389999999999993  0.39138000000000006  0.79996  1.0000
  O   O140      1.0  0.55371  0.25405  0.29989  1.0000
  O   O141      1.0  0.9040900000000001  0.8465  0.4834  1.0000
  O   O142      1.0  0.6186400000000001  0.70205  0.86013  1.0000
  O   O143      1.0  0.8603100000000001  0.69555  0.26088  1.0000
  O   O144      1.0  0.5962600000000001  0.7335199999999998  0.0168  1.0000
  O   O145      1.0  0.9003  0.18385  0.7486  1.0000
  O   O146      1.0  0.80433  0.20121999999999998  0.23099  1.0000
  O   O147      1.0  0.10818999999999993  0.44581  0.70003  1.0000
  O   O148      1.0  0.68372  0.4003999999999999  0.24844  1.0000
  O   O149      1.0  0.6888300000000002  0.03180000000000001  0.79163  1.0000
  O   O150      1.0  0.2078800000000001  0.2529899999999999  0.12375000000000003  1.0000
  O   O151      1.0  0.63932  0.31644  0.23933  1.0000
  O   O152      1.0  0.7726  0.63095  0.16129  1.0000
  O   O153      1.0  0.8157500000000001  0.83357  0.25161  1.0000
  O   O154      1.0  0.46789  0.8114899999999999  0.70855  1.0000
  O   O155      1.0  0.8693100000000001  0.7277299999999999  0.3386  1.0000
  O   O156      1.0  0.7543900000000004  0.05328000000000001  0.80006  1.0000
  O   O157      1.0  0.33329999999999993  0.31573  0.7518500000000001  1.0000
  O   O158      1.0  0.4462700000000002  0.746  0.70012  1.0000
  O   O159      1.0  0.7525200000000001  0.7082  0.62389  1.0000
  O   O160      1.0  0.4532300000000001  0.7545599999999999  0.25467  1.0000
