data_image0
_chemical_formula_structural       Cu24H264C360N24O72
_chemical_formula_sum              "Cu24 H264 C360 N24 O72"
_cell_length_a       11.90839
_cell_length_b       31.13859
_cell_length_c       31.14991
_cell_angle_alpha    118.41594999999998
_cell_angle_beta     97.34503
_cell_angle_gamma    97.38898999999999

_symmetry_space_group_name_H-M    'P 1'
_symmetry_Int_Tables_number       1

loop_
  _symmetry_equiv_pos_as_xyz
  'x,y,z'

loop_
  _atom_site_type_symbol
  _atom_site_label
  _atom_site_symmetry_multiplicity
  _atom_site_fract_x
  _atom_site_fract_y
  _atom_site_fract_z
  _atom_site_occupancy
  Cu  Cu1       1.0  0.32805  0.9781200000000002  0.2099  1.0000
  Cu  Cu2       1.0  0.15306000000000006  0.9893000000000002  0.27228  1.0000
  Cu  Cu3       1.0  0.57844  0.78119  0.27519  1.0000
  Cu  Cu4       1.0  0.8848399999999998  0.22524000000000002  0.50426  1.0000
  Cu  Cu5       1.0  0.35172999999999993  0.23200000000000007  0.02189  1.0000
  Cu  Cu6       1.0  0.1644  0.28271000000000013  0.01106  1.0000
  Cu  Cu7       1.0  0.7979299999999999  0.4937900000000001  0.21880999999999995  1.0000
  Cu  Cu8       1.0  0.66162  0.27881  0.77464  1.0000
  Cu  Cu9       1.0  0.11880999999999999  0.7900200000000002  0.76813  1.0000
  Cu  Cu10      1.0  0.88148  0.7276100000000001  0.7166099999999997  1.0000
  Cu  Cu11      1.0  0.30415  0.72477  0.50595  1.0000
  Cu  Cu12      1.0  0.38132  0.49570000000000003  0.7210199999999999  1.0000
  Cu  Cu13      1.0  0.67197  0.02188000000000006  0.7901  1.0000
  Cu  Cu14      1.0  0.8469599999999998  0.01071000000000004  0.72772  1.0000
  Cu  Cu15      1.0  0.42157999999999995  0.21881000000000006  0.72481  1.0000
  Cu  Cu16      1.0  0.11517999999999998  0.7747600000000001  0.4957299999999999  1.0000
  Cu  Cu17      1.0  0.64829  0.7679999999999999  0.9780999999999997  1.0000
  Cu  Cu18      1.0  0.8356100000000001  0.7172900000000002  0.98894  1.0000
  Cu  Cu19      1.0  0.20207999999999998  0.50621  0.7811899999999999  1.0000
  Cu  Cu20      1.0  0.3384  0.72119  0.22536  1.0000
  Cu  Cu21      1.0  0.88121  0.20998  0.23187  1.0000
  Cu  Cu22      1.0  0.11853000000000001  0.27239000000000013  0.28338  1.0000
  Cu  Cu23      1.0  0.6958699999999999  0.27523000000000003  0.49404999999999993  1.0000
  Cu  Cu24      1.0  0.61869  0.5043  0.27898  1.0000
  H   H1        1.0  0.7535799999999999  0.8622100000000003  0.01752  1.0000
  H   H2        1.0  0.80904  0.9536900000000003  0.05136  1.0000
  H   H3        1.0  0.68462  0.009949999999999999  0.09910999999999999  1.0000
  H   H4        1.0  0.50365  0.97414  0.11288999999999998  1.0000
  H   H5        1.0  0.23369999999999996  0.8219400000000002  0.08803999999999998  1.0000
  H   H6        1.0  0.18522999999999998  0.7300300000000001  0.04968  1.0000
  H   H7        1.0  0.31989999999999996  0.6788500000000002  0.00386  1.0000
  H   H8        1.0  0.49954000000000004  0.7189800000000002  0.99349  1.0000
  H   H9        1.0  0.9882099999999998  0.9693300000000002  0.20461999999999994  1.0000
  H   H10       1.0  0.7973299999999999  0.9584700000000003  0.15429  1.0000
  H   H11       1.0  0.61535  0.9190200000000002  0.16539  1.0000
  H   H12       1.0  0.6244199999999999  0.8884599999999999  0.22528999999999993  1.0000
  H   H13       1.0  0.86499  0.8776800000000002  0.3628  1.0000
  H   H14       1.0  0.06040999999999997  0.89084  0.41193999999999986  1.0000
  H   H15       1.0  0.23558  0.9276600000000003  0.39476  1.0000
  H   H16       1.0  0.21738  0.9517500000000002  0.32937  1.0000
  H   H17       1.0  0.68341  0.7158600000000005  0.23083  1.0000
  H   H18       1.0  0.8272099999999999  0.6657100000000001  0.19516  1.0000
  H   H19       1.0  0.013969999999999996  0.67681  0.24970999999999993  1.0000
  H   H20       1.0  0.05234999999999995  0.7344499999999999  0.34069999999999995  1.0000
  H   H21       1.0  0.9258599999999999  0.8646100000000002  0.48632999999999993  1.0000
  H   H22       1.0  0.77932  0.9149400000000002  0.51812  1.0000
  H   H23       1.0  0.60051  0.90327  0.45868  1.0000
  H   H24       1.0  0.5670099999999999  0.84141  0.36844999999999994  1.0000
  H   H25       1.0  0.76061  0.13484999999999997  0.46973  1.0000
  H   H26       1.0  0.6866399999999998  0.04551999999999995  0.4414799999999999  1.0000
  H   H27       1.0  0.7981099999999998  0.9813000000000002  0.39605  1.0000
  H   H28       1.0  0.984  0.0070100000000000075  0.37798  1.0000
  H   H29       1.0  0.28176999999999996  0.14387999999999998  0.39061999999999997  1.0000
  H   H30       1.0  0.35521  0.23463  0.4258699999999999  1.0000
  H   H31       1.0  0.23717999999999995  0.29512  0.47237  1.0000
  H   H32       1.0  0.05059000000000004  0.2658800000000001  0.48688  1.0000
  H   H33       1.0  0.32361  0.09502000000000002  0.25619  1.0000
  H   H34       1.0  0.36701999999999996  0.08856999999999997  0.30948999999999993  1.0000
  H   H35       1.0  0.22612999999999997  0.09960000000000002  0.29647  1.0000
  H   H36       1.0  0.24909  0.8673500000000002  0.18295999999999998  1.0000
  H   H37       1.0  0.10677000000000002  0.8786800000000002  0.17403  1.0000
  H   H38       1.0  0.16009000000000004  0.8723700000000001  0.22652  1.0000
  H   H39       1.0  0.38452999999999987  0.6984  0.31248  1.0000
  H   H40       1.0  0.52221  0.73891  0.34844  1.0000
  H   H41       1.0  0.5129999999999999  0.6852100000000001  0.28904  1.0000
  H   H42       1.0  0.37213999999999997  0.77479  0.16329  1.0000
  H   H43       1.0  0.52555  0.7979800000000002  0.18038  1.0000
  H   H44       1.0  0.43675  0.82861  0.22286999999999996  1.0000
  H   H45       1.0  0.8904999999999997  0.15431000000000006  0.13767  1.0000
  H   H46       1.0  0.85349  0.09676000000000003  0.04621  1.0000
  H   H47       1.0  0.6733899999999999  0.08899999999999987  0.9900299999999997  1.0000
  H   H48       1.0  0.52964  0.13933000000000004  0.02596  1.0000
  H   H49       1.0  0.41313999999999995  0.26629000000000014  0.1777  1.0000
  H   H50       1.0  0.45596999999999993  0.3195900000000001  0.26967  1.0000
  H   H51       1.0  0.6411400000000002  0.32452  0.32105  1.0000
  H   H52       1.0  0.78051  0.27397000000000005  0.28123  1.0000
  H   H53       1.0  0.017720000000000014  0.23492000000000005  0.030909999999999997  1.0000
  H   H54       1.0  0.83732  0.19557000000000005  0.04169  1.0000
  H   H55       1.0  0.69519  0.24639000000000005  0.08086999999999998  1.0000
  H   H56       1.0  0.73547  0.33680000000000015  0.11131  1.0000
  H   H57       1.0  0.98886  0.4850000000000001  0.12218  1.0000
  H   H58       1.0  0.17164000000000001  0.5207400000000002  0.10924  1.0000
  H   H59       1.0  0.30917  0.46637  0.07231  1.0000
  H   H60       1.0  0.26542999999999994  0.37685000000000013  0.04801  1.0000
  H   H61       1.0  0.9691799999999998  0.51447  0.28409  1.0000
  H   H62       1.0  0.16360999999999995  0.52952  0.33421  1.0000
  H   H63       1.0  0.33864999999999995  0.57341  0.32319999999999993  1.0000
  H   H64       1.0  0.31808  0.6066600000000002  0.26553  1.0000
  H   H65       1.0  0.060940000000000105  0.6217700000000003  0.13565  1.0000
  H   H66       1.0  0.8638399999999999  0.60321  0.08527  1.0000
  H   H67       1.0  0.6966399999999998  0.5554  0.09687999999999998  1.0000
  H   H68       1.0  0.7250499999999998  0.5268600000000002  0.15854  1.0000
  H   H69       1.0  0.62742  0.3348  0.86487  1.0000
  H   H70       1.0  0.6428899999999999  0.39599  0.95411  1.0000
  H   H71       1.0  0.8185299999999998  0.41482  0.018459999999999997  1.0000
  H   H72       1.0  0.9785899999999998  0.3709700000000001  0.99303  1.0000
  H   H73       1.0  0.1396799999999999  0.24689999999999995  0.8564099999999998  1.0000
  H   H74       1.0  0.12223999999999989  0.1915299999999999  0.7657199999999997  1.0000
  H   H75       1.0  0.9434299999999998  0.17740999999999985  0.7051399999999998  1.0000
  H   H76       1.0  0.78604  0.22099  0.7343299999999998  1.0000
  H   H77       1.0  0.22889999999999994  0.1612500000000001  0.90502  1.0000
  H   H78       1.0  0.2779799999999998  0.22131999999999988  0.9119299999999998  1.0000
  H   H79       1.0  0.12620999999999988  0.19675999999999993  0.9007299999999999  1.0000
  H   H80       1.0  0.38214000000000004  0.3152700000000001  0.13305  1.0000
  H   H81       1.0  0.22828  0.29411  0.12021  1.0000
  H   H82       1.0  0.28795  0.3537700000000002  0.12822  1.0000
  H   H83       1.0  0.6886300000000001  0.6141200000000001  0.30182999999999993  1.0000
  H   H84       1.0  0.7849499999999998  0.6096500000000002  0.26114  1.0000
  H   H85       1.0  0.83059  0.60408  0.31476  1.0000
  H   H86       1.0  0.5979599999999999  0.3884200000000001  0.22548  1.0000
  H   H87       1.0  0.7278399999999998  0.3820600000000001  0.20206  1.0000
  H   H88       1.0  0.6074999999999999  0.39351000000000014  0.17129  1.0000
  H   H89       1.0  0.73695  0.9828600000000001  0.84512  1.0000
  H   H90       1.0  0.7582599999999999  0.9490100000000001  0.9026599999999998  1.0000
  H   H91       1.0  0.58562  0.9013700000000002  0.91122  1.0000
  H   H92       1.0  0.39077  0.8877700000000002  0.86182  1.0000
  H   H93       1.0  0.14624000000000006  0.9123000000000002  0.7347  1.0000
  H   H94       1.0  0.13570000000000007  0.9500700000000002  0.68069  1.0000
  H   H95       1.0  0.31613  0.9959000000000002  0.67512  1.0000
  H   H96       1.0  0.5064599999999999  0.006649999999999912  0.7255899999999997  1.0000
  H   H97       1.0  0.7831  0.79497  0.7644399999999999  1.0000
  H   H98       1.0  0.6429699999999999  0.8454700000000003  0.80408  1.0000
  H   H99       1.0  0.45023999999999986  0.8346800000000001  0.7534999999999998  1.0000
  H   H100      1.0  0.39857  0.7744600000000003  0.66306  1.0000
  H   H101      1.0  0.5011900000000001  0.6366600000000002  0.51456  1.0000
  H   H102      1.0  0.64764  0.5878100000000003  0.47859  1.0000
  H   H103      1.0  0.83984  0.60505  0.53278  1.0000
  H   H104      1.0  0.8871799999999996  0.67065  0.6222699999999999  1.0000
  H   H105      1.0  0.45293999999999995  0.7690900000000003  0.4850199999999999  1.0000
  H   H106      1.0  0.63278  0.8047500000000002  0.47065  1.0000
  H   H107      1.0  0.7641499999999999  0.7501000000000001  0.4267999999999999  1.0000
  H   H108      1.0  0.71076  0.65904  0.3932799999999999  1.0000
  H   H109      1.0  0.4377400000000001  0.5133700000000002  0.37811  1.0000
  H   H110      1.0  0.25886999999999993  0.4816300000000001  0.39643999999999996  1.0000
  H   H111      1.0  0.1396799999999999  0.54111  0.4440699999999999  1.0000
  H   H112      1.0  0.1972  0.6313900000000002  0.47249  1.0000
  H   H113      1.0  0.2914499999999999  0.53085  0.66563  1.0000
  H   H114      1.0  0.24569  0.5588800000000003  0.60444  1.0000
  H   H115      1.0  0.40281  0.60378  0.5852  1.0000
  H   H116      1.0  0.6071  0.62158  0.62858  1.0000
  H   H117      1.0  0.8921899999999999  0.6092800000000002  0.75286  1.0000
  H   H118      1.0  0.9302800000000001  0.5745700000000002  0.8087  1.0000
  H   H119      1.0  0.7655  0.52815  0.8228  1.0000
  H   H120      1.0  0.56428  0.51355  0.77914  1.0000
  H   H121      1.0  0.06650999999999994  0.7442900000000001  0.8389099999999998  1.0000
  H   H122      1.0  0.05561000000000001  0.6910600000000002  0.779  1.0000
  H   H123      1.0  0.92832  0.7042300000000002  0.80332  1.0000
  H   H124      1.0  0.06814999999999992  0.8169199999999999  0.6844999999999999  1.0000
  H   H125      1.0  0.9357799999999998  0.8255000000000002  0.70563  1.0000
  H   H126      1.0  0.9345099999999997  0.7738700000000001  0.6459399999999998  1.0000
  H   H127      1.0  0.07345000000000002  0.6879300000000003  0.386  1.0000
  H   H128      1.0  0.1742  0.6515400000000002  0.39024  1.0000
  H   H129      1.0  0.22554999999999997  0.71084  0.39597999999999994  1.0000
  H   H130      1.0  0.21004000000000006  0.8366100000000002  0.61125  1.0000
  H   H131      1.0  0.3461999999999999  0.8198800000000002  0.6180799999999997  1.0000
  H   H132      1.0  0.21417  0.77701  0.60534  1.0000
  H   H133      1.0  0.24642999999999987  0.13778999999999997  0.98247  1.0000
  H   H134      1.0  0.19096999999999995  0.046309999999999976  0.94864  1.0000
  H   H135      1.0  0.3154  0.99005  0.90089  1.0000
  H   H136      1.0  0.4963599999999999  0.025859999999999984  0.88711  1.0000
  H   H137      1.0  0.7663099999999997  0.17806  0.9119599999999999  1.0000
  H   H138      1.0  0.8147899999999997  0.2699699999999999  0.9503199999999998  1.0000
  H   H139      1.0  0.6801199999999998  0.32115000000000005  0.9961399999999999  1.0000
  H   H140      1.0  0.5004799999999999  0.2810300000000001  0.00651  1.0000
  H   H141      1.0  0.01181  0.030669999999999975  0.79538  1.0000
  H   H142      1.0  0.20268999999999984  0.041529999999999886  0.8457099999999997  1.0000
  H   H143      1.0  0.3846699999999999  0.08097999999999998  0.83461  1.0000
  H   H144      1.0  0.3756  0.11154000000000001  0.77471  1.0000
  H   H145      1.0  0.13502  0.12233000000000001  0.6372  1.0000
  H   H146      1.0  0.9396  0.10916  0.58806  1.0000
  H   H147      1.0  0.7644399999999998  0.07234000000000006  0.60524  1.0000
  H   H148      1.0  0.7826399999999999  0.048250000000000036  0.67062  1.0000
  H   H149      1.0  0.31661  0.28414  0.76917  1.0000
  H   H150      1.0  0.17280000000000006  0.3342900000000001  0.80484  1.0000
  H   H151      1.0  0.98605  0.32319  0.75029  1.0000
  H   H152      1.0  0.9476699999999998  0.26555  0.6592999999999998  1.0000
  H   H153      1.0  0.07415999999999998  0.13540000000000005  0.51367  1.0000
  H   H154      1.0  0.22070000000000004  0.08506000000000001  0.48188  1.0000
  H   H155      1.0  0.3995  0.09673000000000007  0.54132  1.0000
  H   H156      1.0  0.4330100000000001  0.15859000000000012  0.63155  1.0000
  H   H157      1.0  0.23941  0.86515  0.53027  1.0000
  H   H158      1.0  0.3133699999999999  0.95448  0.55852  1.0000
  H   H159      1.0  0.20190999999999992  0.01869999999999996  0.6039499999999999  1.0000
  H   H160      1.0  0.01602000000000003  0.9929900000000003  0.62202  1.0000
  H   H161      1.0  0.71824  0.8561200000000002  0.60938  1.0000
  H   H162      1.0  0.6448099999999999  0.7653700000000002  0.57413  1.0000
  H   H163      1.0  0.7628399999999997  0.70488  0.52763  1.0000
  H   H164      1.0  0.9494199999999999  0.7341200000000002  0.51312  1.0000
  H   H165      1.0  0.6763999999999998  0.90498  0.74381  1.0000
  H   H166      1.0  0.633  0.9114400000000002  0.69051  1.0000
  H   H167      1.0  0.7738899999999999  0.9004000000000002  0.70353  1.0000
  H   H168      1.0  0.75092  0.13265  0.81704  1.0000
  H   H169      1.0  0.8932399999999998  0.12131999999999996  0.82597  1.0000
  H   H170      1.0  0.8399299999999997  0.1276299999999999  0.7734699999999999  1.0000
  H   H171      1.0  0.6154799999999998  0.3015999999999999  0.6875199999999998  1.0000
  H   H172      1.0  0.4777999999999999  0.26109000000000004  0.6515599999999999  1.0000
  H   H173      1.0  0.48701999999999984  0.31479000000000007  0.7109499999999999  1.0000
  H   H174      1.0  0.62788  0.22521000000000005  0.8367099999999998  1.0000
  H   H175      1.0  0.4744699999999997  0.20201999999999995  0.8196199999999998  1.0000
  H   H176      1.0  0.56327  0.17139  0.77713  1.0000
  H   H177      1.0  0.1095100000000001  0.8456900000000003  0.86233  1.0000
  H   H178      1.0  0.14653000000000005  0.9032500000000002  0.95379  1.0000
  H   H179      1.0  0.32663000000000003  0.9110000000000001  0.00997  1.0000
  H   H180      1.0  0.4703800000000001  0.8606700000000003  0.9740399999999999  1.0000
  H   H181      1.0  0.5868699999999999  0.7337100000000002  0.8223  1.0000
  H   H182      1.0  0.54405  0.6804100000000002  0.73033  1.0000
  H   H183      1.0  0.35888  0.67548  0.67895  1.0000
  H   H184      1.0  0.21949999999999995  0.72603  0.7187699999999999  1.0000
  H   H185      1.0  0.9822899999999998  0.7650900000000002  0.96909  1.0000
  H   H186      1.0  0.16268999999999995  0.8044300000000002  0.95831  1.0000
  H   H187      1.0  0.30482999999999993  0.7536100000000002  0.91913  1.0000
  H   H188      1.0  0.26454999999999995  0.6632  0.88869  1.0000
  H   H189      1.0  0.011159999999999977  0.515  0.87782  1.0000
  H   H190      1.0  0.8283799999999998  0.47926000000000013  0.89076  1.0000
  H   H191      1.0  0.69084  0.5336400000000002  0.9276899999999999  1.0000
  H   H192      1.0  0.73458  0.6231499999999999  0.9519899999999999  1.0000
  H   H193      1.0  0.03084000000000006  0.48553000000000013  0.71591  1.0000
  H   H194      1.0  0.8363999999999998  0.47047999999999995  0.6657899999999999  1.0000
  H   H195      1.0  0.6613699999999997  0.42658999999999997  0.6767999999999998  1.0000
  H   H196      1.0  0.6819399999999999  0.3933400000000001  0.73446  1.0000
  H   H197      1.0  0.9390799999999998  0.37823  0.8643499999999998  1.0000
  H   H198      1.0  0.13617  0.3967900000000001  0.91473  1.0000
  H   H199      1.0  0.3033799999999998  0.4445999999999999  0.9031199999999998  1.0000
  H   H200      1.0  0.27496  0.4731400000000001  0.84145  1.0000
  H   H201      1.0  0.37258999999999987  0.6652  0.13513  1.0000
  H   H202      1.0  0.35711999999999994  0.60401  0.04588  1.0000
  H   H203      1.0  0.18147999999999975  0.5851799999999999  0.9815399999999997  1.0000
  H   H204      1.0  0.021419999999999998  0.62904  0.006969999999999999  1.0000
  H   H205      1.0  0.8603399999999998  0.7531000000000002  0.14359  1.0000
  H   H206      1.0  0.8777799999999998  0.80848  0.23428  1.0000
  H   H207      1.0  0.056590000000000064  0.8225900000000003  0.29486  1.0000
  H   H208      1.0  0.21398  0.7790100000000002  0.26567  1.0000
  H   H209      1.0  0.7711100000000001  0.8387600000000002  0.09497999999999998  1.0000
  H   H210      1.0  0.72203  0.7786800000000003  0.08806  1.0000
  H   H211      1.0  0.8738099999999999  0.8032400000000002  0.09926999999999998  1.0000
  H   H212      1.0  0.6178799999999999  0.6847300000000001  0.8669399999999998  1.0000
  H   H213      1.0  0.77173  0.7058900000000002  0.8797899999999998  1.0000
  H   H214      1.0  0.71207  0.64623  0.8717799999999998  1.0000
  H   H215      1.0  0.31138  0.38588000000000006  0.6981699999999998  1.0000
  H   H216      1.0  0.21506000000000006  0.3903500000000001  0.73886  1.0000
  H   H217      1.0  0.16942  0.39592  0.68524  1.0000
  H   H218      1.0  0.4020599999999999  0.6115800000000002  0.77452  1.0000
  H   H219      1.0  0.27218  0.61794  0.79793  1.0000
  H   H220      1.0  0.3925199999999998  0.60649  0.8286999999999999  1.0000
  H   H221      1.0  0.26307  0.01714000000000001  0.15488  1.0000
  H   H222      1.0  0.24175999999999995  0.05099000000000001  0.09733999999999998  1.0000
  H   H223      1.0  0.41439999999999994  0.09863000000000002  0.08878  1.0000
  H   H224      1.0  0.6092499999999998  0.11222999999999998  0.13817999999999997  1.0000
  H   H225      1.0  0.8537799999999999  0.08770000000000003  0.2653  1.0000
  H   H226      1.0  0.8643199999999998  0.04993000000000003  0.31931  1.0000
  H   H227      1.0  0.6838799999999998  0.004100000000000001  0.32488  1.0000
  H   H228      1.0  0.4935599999999999  0.99335  0.27441  1.0000
  H   H229      1.0  0.21691  0.20504000000000006  0.23556  1.0000
  H   H230      1.0  0.3570399999999999  0.15453000000000006  0.19591999999999996  1.0000
  H   H231      1.0  0.5497799999999999  0.16533  0.2465  1.0000
  H   H232      1.0  0.6014499999999999  0.22554  0.33694  1.0000
  H   H233      1.0  0.49883000000000005  0.36335  0.48544  1.0000
  H   H234      1.0  0.35238  0.41219  0.52141  1.0000
  H   H235      1.0  0.1601799999999999  0.39494999999999997  0.4672199999999999  1.0000
  H   H236      1.0  0.11283999999999993  0.32935999999999993  0.3777299999999999  1.0000
  H   H237      1.0  0.54707  0.23091000000000006  0.51498  1.0000
  H   H238      1.0  0.36723  0.19525000000000003  0.52935  1.0000
  H   H239      1.0  0.2358599999999999  0.24989999999999996  0.5732  1.0000
  H   H240      1.0  0.28926  0.3409600000000001  0.60672  1.0000
  H   H241      1.0  0.5622799999999999  0.48664000000000013  0.62189  1.0000
  H   H242      1.0  0.7411399999999996  0.5183700000000001  0.6035599999999998  1.0000
  H   H243      1.0  0.8603399999999998  0.45889  0.55593  1.0000
  H   H244      1.0  0.80282  0.3686100000000001  0.52751  1.0000
  H   H245      1.0  0.70856  0.46915  0.3343699999999999  1.0000
  H   H246      1.0  0.75433  0.44113000000000013  0.39556  1.0000
  H   H247      1.0  0.59721  0.3962200000000001  0.4148  1.0000
  H   H248      1.0  0.3929199999999999  0.37842  0.37142  1.0000
  H   H249      1.0  0.10783  0.3907200000000001  0.24713999999999997  1.0000
  H   H250      1.0  0.06973000000000001  0.42543  0.1913  1.0000
  H   H251      1.0  0.23451999999999995  0.47184999999999994  0.1772  1.0000
  H   H252      1.0  0.43574000000000007  0.48645000000000016  0.22086  1.0000
  H   H253      1.0  0.9335099999999998  0.25571  0.16109  1.0000
  H   H254      1.0  0.9444099999999999  0.30894000000000005  0.22099999999999995  1.0000
  H   H255      1.0  0.07170000000000004  0.2957700000000001  0.19668  1.0000
  H   H256      1.0  0.9318599999999999  0.18308000000000005  0.3155  1.0000
  H   H257      1.0  0.06423000000000001  0.17450000000000004  0.29437  1.0000
  H   H258      1.0  0.06551  0.22613000000000008  0.35405999999999993  1.0000
  H   H259      1.0  0.92656  0.31207000000000024  0.614  1.0000
  H   H260      1.0  0.82582  0.34846  0.60976  1.0000
  H   H261      1.0  0.77447  0.28915999999999986  0.6040199999999998  1.0000
  H   H262      1.0  0.7899699999999997  0.16339  0.38873999999999986  1.0000
  H   H263      1.0  0.6538199999999998  0.18012000000000006  0.38191  1.0000
  H   H264      1.0  0.78585  0.22298999999999994  0.3946599999999999  1.0000
  C   C1        1.0  0.5969900000000001  0.8654700000000002  0.04637  1.0000
  C   C2        1.0  0.7001000000000001  0.8869300000000004  0.03876  1.0000
  C   C3        1.0  0.7297599999999999  0.9377500000000002  0.057329999999999985  1.0000
  C   C4        1.0  0.65866  0.9698000000000002  0.08433999999999998  1.0000
  C   C5        1.0  0.559  0.9500500000000002  0.09258999999999998  1.0000
  C   C6        1.0  0.52538  0.8977000000000003  0.07439  1.0000
  C   C7        1.0  0.42513999999999996  0.8761200000000002  0.08292  1.0000
  C   C8        1.0  0.35393999999999987  0.90937  0.11573  1.0000
  C   C9        1.0  0.39469  0.8239600000000002  0.062469999999999984  1.0000
  C   C10       1.0  0.29207000000000005  0.7995100000000003  0.06786  1.0000
  C   C11       1.0  0.26567  0.74837  0.0468  1.0000
  C   C12       1.0  0.34192999999999996  0.7192800000000003  0.02031  1.0000
  C   C13       1.0  0.44179999999999997  0.7415  0.014369999999999999  1.0000
  C   C14       1.0  0.47013000000000005  0.7941200000000003  0.03444  1.0000
  C   C15       1.0  0.91659  0.9354800000000002  0.24493  1.0000
  C   C16       1.0  0.9088199999999999  0.9516200000000004  0.20915999999999998  1.0000
  C   C17       1.0  0.8025499999999999  0.9454  0.18107  1.0000
  C   C18       1.0  0.69889  0.9224500000000002  0.18678999999999998  1.0000
  C   C19       1.0  0.7035799999999998  0.90565  0.22038  1.0000
  C   C20       1.0  0.81163  0.91198  0.25066  1.0000
  C   C21       1.0  0.8196100000000001  0.8975100000000005  0.28717  1.0000
  C   C22       1.0  0.71272  0.8707100000000002  0.29292  1.0000
  C   C23       1.0  0.9286299999999997  0.9059100000000002  0.3169299999999999  1.0000
  C   C24       1.0  0.9422  0.8933800000000002  0.35548  1.0000
  C   C25       1.0  0.05033000000000004  0.9013700000000002  0.38317  1.0000
  C   C26       1.0  0.15028000000000008  0.9221300000000002  0.37315  1.0000
  C   C27       1.0  0.14094000000000004  0.9352600000000002  0.33660999999999996  1.0000
  C   C28       1.0  0.030140000000000073  0.9280400000000002  0.30787  1.0000
  C   C29       1.0  0.78516  0.75476  0.30686  1.0000
  C   C30       1.0  0.7636199999999999  0.7196700000000003  0.25487  1.0000
  C   C31       1.0  0.84375  0.6918300000000002  0.23512999999999998  1.0000
  C   C32       1.0  0.9493699999999998  0.6974200000000003  0.26612  1.0000
  C   C33       1.0  0.9714399999999999  0.7298700000000002  0.31673999999999997  1.0000
  C   C34       1.0  0.89057  0.75934  0.33859  1.0000
  C   C35       1.0  0.9106399999999998  0.79346  0.39012  1.0000
  C   C36       1.0  0.015600000000000079  0.7961800000000002  0.42474  1.0000
  C   C37       1.0  0.83015  0.82329  0.40932  1.0000
  C   C38       1.0  0.8470799999999998  0.8595100000000002  0.46098999999999996  1.0000
  C   C39       1.0  0.7662899999999999  0.8878000000000003  0.4784399999999999  1.0000
  C   C40       1.0  0.66424  0.8808800000000003  0.44461  1.0000
  C   C41       1.0  0.6445399999999998  0.84633  0.39441  1.0000
  C   C42       1.0  0.7266899999999998  0.8166800000000001  0.3752499999999999  1.0000
  C   C43       1.0  0.9155899999999999  0.12264  0.44006  1.0000
  C   C44       1.0  0.80874  0.10682000000000003  0.44958  1.0000
  C   C45       1.0  0.7685099999999998  0.05707999999999994  0.4339399999999999  1.0000
  C   C46       1.0  0.83202  0.020449999999999965  0.40818999999999994  1.0000
  C   C47       1.0  0.9345199999999999  0.034549999999999984  0.39769  1.0000
  C   C48       1.0  0.9786199999999999  0.08557000000000002  0.41265  1.0000
  C   C49       1.0  0.08119  0.10115000000000003  0.40108  1.0000
  C   C50       1.0  0.14175  0.06281  0.3674  1.0000
  C   C51       1.0  0.12423000000000001  0.15230000000000005  0.41915  1.0000
  C   C52       1.0  0.23109999999999986  0.17052999999999993  0.4111299999999999  1.0000
  C   C53       1.0  0.27124999999999994  0.22093  0.4303599999999999  1.0000
  C   C54       1.0  0.20457  0.2553300000000001  0.45736  1.0000
  C   C55       1.0  0.10061999999999995  0.23914000000000002  0.46559999999999996  1.0000
  C   C56       1.0  0.05807999999999997  0.18740000000000007  0.44745  1.0000
  C   C57       1.0  0.2933200000000001  0.08037  0.27954  1.0000
  C   C58       1.0  0.18452999999999997  0.88681  0.20216999999999993  1.0000
  C   C59       1.0  0.46904999999999997  0.7152600000000002  0.31032  1.0000
  C   C60       1.0  0.44834  0.79206  0.19444999999999996  1.0000
  C   C61       1.0  0.7318099999999997  0.18074  0.13453  1.0000
  C   C62       1.0  0.8126199999999999  0.15128  0.11301999999999997  1.0000
  C   C63       1.0  0.7908899999999999  0.11904  0.0622  1.0000
  C   C64       1.0  0.6880599999999998  0.11438  0.03016  1.0000
  C   C65       1.0  0.6089699999999999  0.14277000000000006  0.04994  1.0000
  C   C66       1.0  0.6283899999999999  0.17690000000000006  0.10228999999999999  1.0000
  C   C67       1.0  0.55046  0.20729000000000006  0.12389  1.0000
  C   C68       1.0  0.4472299999999999  0.2074400000000001  0.09052999999999999  1.0000
  C   C69       1.0  0.5719899999999999  0.23877  0.17601999999999998  1.0000
  C   C70       1.0  0.49375999999999987  0.26856000000000013  0.20031  1.0000
  C   C71       1.0  0.5181199999999999  0.2984100000000001  0.25145  1.0000
  C   C72       1.0  0.6231  0.3007300000000001  0.28062  1.0000
  C   C73       1.0  0.7007199999999998  0.2725400000000001  0.25854  1.0000
  C   C74       1.0  0.6768299999999998  0.24024  0.2059  1.0000
  C   C75       1.0  0.9806699999999998  0.3091300000000001  0.0646  1.0000
  C   C76       1.0  0.9562999999999998  0.25722  0.0486  1.0000
  C   C77       1.0  0.8559899999999998  0.2354500000000001  0.05475  1.0000
  C   C78       1.0  0.7755399999999999  0.2642800000000001  0.07752999999999999  1.0000
  C   C79       1.0  0.7974899999999999  0.3146900000000001  0.09428999999999997  1.0000
  C   C80       1.0  0.89959  0.3385300000000001  0.08806999999999998  1.0000
  C   C81       1.0  0.92287  0.38956000000000013  0.10262  1.0000
  C   C82       1.0  0.8432099999999999  0.42223  0.12936  1.0000
  C   C83       1.0  0.023480000000000015  0.41076000000000007  0.09409999999999999  1.0000
  C   C84       1.0  0.050130000000000056  0.4618500000000001  0.10659  1.0000
  C   C85       1.0  0.15054000000000003  0.4814200000000001  0.09864999999999999  1.0000
  C   C86       1.0  0.22922999999999996  0.4504700000000001  0.07786  1.0000
  C   C87       1.0  0.20607000000000003  0.4007600000000001  0.0647  1.0000
  C   C88       1.0  0.10236  0.37939000000000006  0.07196  1.0000
  C   C89       1.0  0.030859999999999974  0.55207  0.24532999999999994  1.0000
  C   C90       1.0  0.04505999999999999  0.53507  0.28033  1.0000
  C   C91       1.0  0.15338999999999997  0.5434000000000001  0.30815  1.0000
  C   C92       1.0  0.25314  0.5690800000000003  0.30266  1.0000
  C   C93       1.0  0.24209000000000006  0.5872400000000002  0.27025  1.0000
  C   C94       1.0  0.1314400000000001  0.5794200000000003  0.24082  1.0000
  C   C95       1.0  0.11687000000000003  0.5968300000000002  0.20676  1.0000
  C   C96       1.0  0.21841000000000002  0.6290500000000002  0.20411  1.0000
  C   C97       1.0  0.006470000000000092  0.5860500000000002  0.17685999999999996  1.0000
  C   C98       1.0  0.98714  0.60156  0.14072  1.0000
  C   C99       1.0  0.8779499999999998  0.5907200000000002  0.11242  1.0000
  C   C100      1.0  0.78284  0.56374  0.1193  1.0000
  C   C101      1.0  0.7977699999999999  0.54803  0.15379999999999994  1.0000
  C   C102      1.0  0.90978  0.5585100000000002  0.18344  1.0000
  C   C103      1.0  0.7946200000000001  0.3173700000000001  0.87733  1.0000
  C   C104      1.0  0.7036  0.34272999999999987  0.8929799999999998  1.0000
  C   C105      1.0  0.7131499999999998  0.37685999999999986  0.9426699999999998  1.0000
  C   C106      1.0  0.81327  0.38774  0.9793599999999998  1.0000
  C   C107      1.0  0.9016099999999998  0.36311999999999994  0.9654199999999998  1.0000
  C   C108      1.0  0.8946799999999998  0.3269899999999999  0.9144699999999998  1.0000
  C   C109      1.0  0.9817299999999998  0.29988  0.89902  1.0000
  C   C110      1.0  0.08097000000000001  0.3044000000000001  0.93727  1.0000
  C   C111      1.0  0.97356  0.26682  0.84791  1.0000
  C   C112      1.0  0.06223000000000001  0.24067  0.82973  1.0000
  C   C113      1.0  0.05188999999999999  0.20958000000000004  0.77936  1.0000
  C   C114      1.0  0.95073  0.20212  0.74491  1.0000
  C   C115      1.0  0.8629899999999998  0.22646999999999995  0.7610499999999998  1.0000
  C   C116      1.0  0.8723499999999997  0.2600100000000002  0.8127499999999999  1.0000
  C   C117      1.0  0.21289  0.19922000000000004  0.91995  1.0000
  C   C118      1.0  0.29847999999999997  0.31497000000000014  0.11321  1.0000
  C   C119      1.0  0.7560699999999998  0.59516  0.28483  1.0000
  C   C120      1.0  0.6564299999999998  0.40202  0.20789  1.0000
  C   C121      1.0  0.55134  0.95406  0.81952  1.0000
  C   C122      1.0  0.6620399999999999  0.9616400000000003  0.8485699999999998  1.0000
  C   C123      1.0  0.67296  0.9430500000000002  0.8807799999999998  1.0000
  C   C124      1.0  0.57463  0.9161100000000002  0.88585  1.0000
  C   C125      1.0  0.4666799999999999  0.90789  0.8579099999999998  1.0000
  C   C126      1.0  0.4516100000000001  0.9260200000000002  0.82373  1.0000
  C   C127      1.0  0.34288  0.9174400000000001  0.79362  1.0000
  C   C128      1.0  0.23907000000000014  0.8843300000000002  0.79385  1.0000
  C   C129      1.0  0.33287999999999995  0.9379100000000001  0.7619899999999997  1.0000
  C   C130      1.0  0.22471  0.93238  0.73222  1.0000
  C   C131      1.0  0.21915000000000004  0.9532100000000001  0.70198  1.0000
  C   C132      1.0  0.3219100000000001  0.9796800000000004  0.69927  1.0000
  C   C133      1.0  0.42790999999999996  0.9858700000000001  0.72747  1.0000
  C   C134      1.0  0.4364200000000001  0.9659700000000004  0.76014  1.0000
  C   C135      1.0  0.67107  0.7548100000000002  0.69035  1.0000
  C   C136      1.0  0.6992899999999997  0.7906299999999999  0.7422699999999999  1.0000
  C   C137      1.0  0.62133  0.8187500000000002  0.76418  1.0000
  C   C138      1.0  0.51202  0.8131000000000003  0.73551  1.0000
  C   C139      1.0  0.48271000000000003  0.7793400000000003  0.68511  1.0000
  C   C140      1.0  0.56021  0.74896  0.66115  1.0000
  C   C141      1.0  0.5315700000000001  0.7124300000000002  0.61014  1.0000
  C   C142      1.0  0.4189800000000001  0.7068000000000002  0.57771  1.0000
  C   C143      1.0  0.61071  0.68269  0.58875  1.0000
  C   C144      1.0  0.58575  0.6441100000000002  0.53764  1.0000
  C   C145      1.0  0.66629  0.6165500000000003  0.51794  1.0000
  C   C146      1.0  0.77623  0.6266700000000002  0.54878  1.0000
  C   C147      1.0  0.8035499999999999  0.6633200000000002  0.59845  1.0000
  C   C148      1.0  0.7214699999999997  0.6919500000000002  0.61994  1.0000
  C   C149      1.0  0.47825  0.69298  0.44789  1.0000
  C   C150      1.0  0.50905  0.74502  0.4648599999999999  1.0000
  C   C151      1.0  0.6090199999999999  0.7647600000000001  0.45673999999999987  1.0000
  C   C152      1.0  0.68324  0.7337  0.43115  1.0000
  C   C153      1.0  0.6542199999999999  0.6830500000000003  0.41287  1.0000
  C   C154      1.0  0.55144  0.6612100000000002  0.42056999999999994  1.0000
  C   C155      1.0  0.51927  0.6096500000000002  0.40303  1.0000
  C   C156      1.0  0.58914  0.57497  0.37107  1.0000
  C   C157      1.0  0.41969000000000006  0.5904300000000002  0.41379  1.0000
  C   C158      1.0  0.3844799999999999  0.53875  0.39833  1.0000
  C   C159      1.0  0.28595  0.52133  0.4091  1.0000
  C   C160      1.0  0.21784999999999996  0.55519  0.43592  1.0000
  C   C161      1.0  0.24886999999999995  0.60542  0.45164  1.0000
  C   C162      1.0  0.35064999999999996  0.6245300000000003  0.44130999999999987  1.0000
  C   C163      1.0  0.4763299999999997  0.55995  0.6825  1.0000
  C   C164      1.0  0.35983  0.55064  0.6574  1.0000
  C   C165      1.0  0.33522999999999986  0.56621  0.6233099999999998  1.0000
  C   C166      1.0  0.42466999999999994  0.5917100000000002  0.61222  1.0000
  C   C167      1.0  0.53781  0.6021100000000003  0.6366499999999999  1.0000
  C   C168      1.0  0.56691  0.5873200000000002  0.6728099999999999  1.0000
  C   C169      1.0  0.6810699999999998  0.5989200000000002  0.69998  1.0000
  C   C170      1.0  0.77573  0.63253  0.6953899999999998  1.0000
  C   C171      1.0  0.7059799999999999  0.58086  0.7329999999999999  1.0000
  C   C172      1.0  0.8209500000000002  0.58892  0.75917  1.0000
  C   C173      1.0  0.8417999999999999  0.5698800000000003  0.79044  1.0000
  C   C174      1.0  0.7479599999999998  0.5429599999999999  0.7979099999999998  1.0000
  C   C175      1.0  0.6357299999999997  0.5346100000000001  0.7734699999999999  1.0000
  C   C176      1.0  0.6114199999999999  0.55257  0.73979  1.0000
  C   C177      1.0  0.012459999999999952  0.7211099999999999  0.8009399999999999  1.0000
  C   C178      1.0  0.9845400000000001  0.7974500000000002  0.68465  1.0000
  C   C179      1.0  0.15997  0.68976  0.40482  1.0000
  C   C180      1.0  0.25521  0.8055700000000002  0.59755  1.0000
  C   C181      1.0  0.40303  0.13453  0.95362  1.0000
  C   C182      1.0  0.29992  0.11307  0.96124  1.0000
  C   C183      1.0  0.27025999999999994  0.06224999999999989  0.9426699999999998  1.0000
  C   C184      1.0  0.3413599999999998  0.030199999999999914  0.9156599999999998  1.0000
  C   C185      1.0  0.44102  0.04994999999999994  0.9074099999999999  1.0000
  C   C186      1.0  0.4746299999999999  0.10229999999999992  0.9256099999999999  1.0000
  C   C187      1.0  0.57487  0.12388  0.91708  1.0000
  C   C188      1.0  0.6460799999999997  0.09062999999999993  0.8842699999999999  1.0000
  C   C189      1.0  0.6053299999999999  0.17604000000000003  0.93753  1.0000
  C   C190      1.0  0.70794  0.20048999999999992  0.9321399999999997  1.0000
  C   C191      1.0  0.7343399999999998  0.2516299999999999  0.9531999999999998  1.0000
  C   C192      1.0  0.65809  0.28072  0.97969  1.0000
  C   C193      1.0  0.55822  0.2584999999999999  0.9856299999999998  1.0000
  C   C194      1.0  0.52988  0.20588000000000004  0.96556  1.0000
  C   C195      1.0  0.08341999999999987  0.06451999999999988  0.7550699999999998  1.0000
  C   C196      1.0  0.09120000000000003  0.04838000000000003  0.79084  1.0000
  C   C197      1.0  0.19747  0.05459999999999998  0.81893  1.0000
  C   C198      1.0  0.3011299999999999  0.07754999999999992  0.8132099999999999  1.0000
  C   C199      1.0  0.29642999999999997  0.09436000000000007  0.77962  1.0000
  C   C200      1.0  0.18838  0.08802999999999996  0.7493399999999999  1.0000
  C   C201      1.0  0.1804  0.10250000000000006  0.71283  1.0000
  C   C202      1.0  0.2872899999999998  0.12928999999999988  0.7070799999999999  1.0000
  C   C203      1.0  0.07138999999999998  0.0941  0.6830699999999998  1.0000
  C   C204      1.0  0.05782  0.10662000000000006  0.64452  1.0000
  C   C205      1.0  0.94968  0.09863  0.61683  1.0000
  C   C206      1.0  0.84974  0.07786999999999998  0.62684  1.0000
  C   C207      1.0  0.8590799999999997  0.06473999999999992  0.6633899999999998  1.0000
  C   C208      1.0  0.96988  0.07196000000000011  0.69213  1.0000
  C   C209      1.0  0.21486  0.24524000000000012  0.69313  1.0000
  C   C210      1.0  0.23640000000000003  0.2803300000000002  0.74513  1.0000
  C   C211      1.0  0.15627  0.3081700000000001  0.76487  1.0000
  C   C212      1.0  0.050650000000000035  0.3025800000000001  0.73388  1.0000
  C   C213      1.0  0.02857999999999992  0.27013  0.6832599999999998  1.0000
  C   C214      1.0  0.10944999999999996  0.24065999999999996  0.6614099999999999  1.0000
  C   C215      1.0  0.08936999999999992  0.20653999999999995  0.6098799999999999  1.0000
  C   C216      1.0  0.9844099999999999  0.20382000000000006  0.57526  1.0000
  C   C217      1.0  0.16986999999999997  0.1767100000000001  0.59068  1.0000
  C   C218      1.0  0.15293999999999994  0.14049  0.53901  1.0000
  C   C219      1.0  0.23373000000000002  0.11220000000000002  0.52156  1.0000
  C   C220      1.0  0.33577  0.11912000000000006  0.55538  1.0000
  C   C221      1.0  0.35546999999999995  0.15367000000000006  0.60559  1.0000
  C   C222      1.0  0.27333  0.18333  0.62475  1.0000
  C   C223      1.0  0.08442999999999999  0.87736  0.55994  1.0000
  C   C224      1.0  0.19127000000000008  0.8931800000000004  0.55042  1.0000
  C   C225      1.0  0.23150000000000004  0.9429200000000001  0.56606  1.0000
  C   C226      1.0  0.16799000000000006  0.9795500000000003  0.59181  1.0000
  C   C227      1.0  0.06550000000000002  0.9654500000000003  0.60231  1.0000
  C   C228      1.0  0.02139999999999999  0.91443  0.58735  1.0000
  C   C229      1.0  0.9188199999999999  0.8988500000000004  0.59892  1.0000
  C   C230      1.0  0.8582599999999998  0.9371900000000002  0.6326  1.0000
  C   C231      1.0  0.87578  0.8477000000000001  0.58085  1.0000
  C   C232      1.0  0.76892  0.8294700000000002  0.58887  1.0000
  C   C233      1.0  0.7287699999999999  0.7790800000000002  0.56964  1.0000
  C   C234      1.0  0.79545  0.7446700000000003  0.54264  1.0000
  C   C235      1.0  0.8993899999999999  0.76086  0.5344  1.0000
  C   C236      1.0  0.9419299999999999  0.8126  0.55255  1.0000
  C   C237      1.0  0.7066999999999999  0.9196300000000001  0.7204599999999998  1.0000
  C   C238      1.0  0.81548  0.11318999999999997  0.79783  1.0000
  C   C239      1.0  0.53097  0.28474  0.68968  1.0000
  C   C240      1.0  0.55167  0.20794000000000007  0.80555  1.0000
  C   C241      1.0  0.26821  0.8192600000000002  0.86547  1.0000
  C   C242      1.0  0.18739  0.8487300000000002  0.8869799999999999  1.0000
  C   C243      1.0  0.20912  0.8809600000000001  0.9377999999999997  1.0000
  C   C244      1.0  0.31196  0.88562  0.96983  1.0000
  C   C245      1.0  0.3910399999999997  0.85723  0.9500499999999997  1.0000
  C   C246      1.0  0.3716199999999999  0.8231  0.89771  1.0000
  C   C247      1.0  0.44955999999999996  0.79271  0.8761099999999998  1.0000
  C   C248      1.0  0.5527799999999999  0.7925600000000002  0.90946  1.0000
  C   C249      1.0  0.4280299999999998  0.76123  0.8239799999999998  1.0000
  C   C250      1.0  0.50625  0.7314400000000002  0.79969  1.0000
  C   C251      1.0  0.48188999999999993  0.7015900000000002  0.74855  1.0000
  C   C252      1.0  0.37692  0.6992700000000002  0.71938  1.0000
  C   C253      1.0  0.29929  0.7274600000000002  0.7414499999999999  1.0000
  C   C254      1.0  0.32318  0.75976  0.7941  1.0000
  C   C255      1.0  0.019340000000000065  0.6908700000000002  0.9354  1.0000
  C   C256      1.0  0.043719999999999946  0.74278  0.9514  1.0000
  C   C257      1.0  0.14402000000000004  0.7645500000000002  0.94525  1.0000
  C   C258      1.0  0.22447999999999999  0.7357300000000002  0.9224599999999998  1.0000
  C   C259      1.0  0.2025199999999998  0.6853099999999998  0.9057099999999998  1.0000
  C   C260      1.0  0.1004299999999999  0.6614699999999999  0.9119299999999998  1.0000
  C   C261      1.0  0.07715000000000008  0.6104400000000002  0.89738  1.0000
  C   C262      1.0  0.15680999999999998  0.57777  0.8706399999999997  1.0000
  C   C263      1.0  0.9765300000000001  0.5892400000000002  0.9059  1.0000
  C   C264      1.0  0.9498799999999997  0.53815  0.89341  1.0000
  C   C265      1.0  0.84948  0.5185900000000002  0.90135  1.0000
  C   C266      1.0  0.77079  0.54953  0.92214  1.0000
  C   C267      1.0  0.7939399999999998  0.59924  0.9353  1.0000
  C   C268      1.0  0.8976499999999997  0.62061  0.92804  1.0000
  C   C269      1.0  0.96916  0.4479300000000001  0.75467  1.0000
  C   C270      1.0  0.9549599999999999  0.4649300000000001  0.71967  1.0000
  C   C271      1.0  0.8466299999999999  0.45661  0.6918499999999997  1.0000
  C   C272      1.0  0.7468799999999995  0.43092000000000014  0.69734  1.0000
  C   C273      1.0  0.7579299999999995  0.4127600000000001  0.72975  1.0000
  C   C274      1.0  0.8685799999999999  0.4205800000000001  0.75918  1.0000
  C   C275      1.0  0.8831399999999997  0.4031699999999999  0.7932399999999998  1.0000
  C   C276      1.0  0.7816099999999998  0.3709500000000001  0.79589  1.0000
  C   C277      1.0  0.9935499999999998  0.41395  0.8231299999999998  1.0000
  C   C278      1.0  0.01288000000000007  0.39844000000000007  0.85928  1.0000
  C   C279      1.0  0.12206999999999998  0.40928  0.88758  1.0000
  C   C280      1.0  0.21718000000000004  0.43626  0.88069  1.0000
  C   C281      1.0  0.20223999999999995  0.45197  0.8462  1.0000
  C   C282      1.0  0.09023000000000005  0.4414900000000001  0.81656  1.0000
  C   C283      1.0  0.20539999999999997  0.68263  0.12267  1.0000
  C   C284      1.0  0.29642  0.6572800000000002  0.10702  1.0000
  C   C285      1.0  0.28687  0.62314  0.057329999999999985  1.0000
  C   C286      1.0  0.18674000000000002  0.6122600000000001  0.02063  1.0000
  C   C287      1.0  0.09841000000000008  0.6368800000000002  0.03458  1.0000
  C   C288      1.0  0.10533000000000001  0.67301  0.08553  1.0000
  C   C289      1.0  0.018279999999999946  0.70013  0.10098  1.0000
  C   C290      1.0  0.9190399999999999  0.6956000000000002  0.06273  1.0000
  C   C291      1.0  0.026460000000000032  0.73318  0.15209  1.0000
  C   C292      1.0  0.93779  0.7593300000000002  0.17027  1.0000
  C   C293      1.0  0.9481199999999997  0.79042  0.22064  1.0000
  C   C294      1.0  0.04928  0.7978800000000003  0.25509  1.0000
  C   C295      1.0  0.13701999999999998  0.7735300000000003  0.23895  1.0000
  C   C296      1.0  0.12767000000000003  0.7399900000000001  0.18724999999999997  1.0000
  C   C297      1.0  0.7871200000000002  0.8007800000000003  0.08004999999999998  1.0000
  C   C298      1.0  0.70153  0.6850300000000002  0.88679  1.0000
  C   C299      1.0  0.24394  0.4048400000000001  0.71517  1.0000
  C   C300      1.0  0.3435899999999999  0.59798  0.79211  1.0000
  C   C301      1.0  0.44867999999999997  0.04594  0.18048  1.0000
  C   C302      1.0  0.33797  0.03836  0.15142  1.0000
  C   C303      1.0  0.32706  0.056950000000000014  0.11921999999999999  1.0000
  C   C304      1.0  0.4253899999999999  0.08390000000000003  0.11415  1.0000
  C   C305      1.0  0.53334  0.09211  0.14209  1.0000
  C   C306      1.0  0.54841  0.07398000000000003  0.17627  1.0000
  C   C307      1.0  0.65713  0.08256000000000002  0.20638  1.0000
  C   C308      1.0  0.7609499999999999  0.11567000000000002  0.20615  1.0000
  C   C309      1.0  0.6671299999999999  0.06209000000000001  0.23800999999999997  1.0000
  C   C310      1.0  0.7753099999999999  0.06762  0.26778  1.0000
  C   C311      1.0  0.78086  0.04678999999999999  0.29802  1.0000
  C   C312      1.0  0.6780999999999998  0.02032  0.30072  1.0000
  C   C313      1.0  0.5721  0.014129999999999969  0.27253  1.0000
  C   C314      1.0  0.5635999999999998  0.03402999999999996  0.23985999999999993  1.0000
  C   C315      1.0  0.32894999999999996  0.24519  0.30965  1.0000
  C   C316      1.0  0.30072  0.20937000000000006  0.25773  1.0000
  C   C317      1.0  0.37868999999999997  0.18125000000000005  0.23581999999999997  1.0000
  C   C318      1.0  0.48799  0.1869  0.26449  1.0000
  C   C319      1.0  0.51731  0.22066000000000002  0.31489  1.0000
  C   C320      1.0  0.4397999999999999  0.25104  0.33885  1.0000
  C   C321      1.0  0.4684399999999999  0.28757  0.38986  1.0000
  C   C322      1.0  0.58103  0.2932000000000001  0.42229  1.0000
  C   C323      1.0  0.3893  0.31732  0.4112499999999999  1.0000
  C   C324      1.0  0.4142699999999999  0.3559  0.46236  1.0000
  C   C325      1.0  0.33373  0.38346000000000013  0.48206  1.0000
  C   C326      1.0  0.22378000000000003  0.3733300000000001  0.45122  1.0000
  C   C327      1.0  0.19646000000000005  0.3366800000000001  0.40155  1.0000
  C   C328      1.0  0.27854999999999996  0.3080500000000001  0.38006  1.0000
  C   C329      1.0  0.52176  0.3070200000000001  0.55211  1.0000
  C   C330      1.0  0.49096  0.25498  0.53514  1.0000
  C   C331      1.0  0.39098999999999995  0.2352400000000001  0.54326  1.0000
  C   C332      1.0  0.31678  0.2663000000000001  0.56885  1.0000
  C   C333      1.0  0.3457999999999999  0.31696000000000013  0.58713  1.0000
  C   C334      1.0  0.4485699999999999  0.3387899999999999  0.57943  1.0000
  C   C335      1.0  0.4807399999999999  0.39035  0.59697  1.0000
  C   C336      1.0  0.4108799999999999  0.42503000000000013  0.62893  1.0000
  C   C337      1.0  0.58032  0.40957  0.5862  1.0000
  C   C338      1.0  0.6155399999999999  0.4612500000000002  0.60167  1.0000
  C   C339      1.0  0.71406  0.47867000000000004  0.5908999999999999  1.0000
  C   C340      1.0  0.78217  0.4448100000000001  0.56408  1.0000
  C   C341      1.0  0.75114  0.3945900000000001  0.54836  1.0000
  C   C342      1.0  0.64937  0.37547000000000014  0.55869  1.0000
  C   C343      1.0  0.52369  0.44005000000000005  0.3174999999999999  1.0000
  C   C344      1.0  0.64018  0.44937000000000016  0.34259999999999996  1.0000
  C   C345      1.0  0.6647899999999999  0.43379000000000006  0.3766899999999999  1.0000
  C   C346      1.0  0.57534  0.4082900000000001  0.38778  1.0000
  C   C347      1.0  0.4621999999999999  0.39789  0.36335  1.0000
  C   C348      1.0  0.4331  0.4126800000000001  0.32719  1.0000
  C   C349      1.0  0.31895  0.4010800000000001  0.30002  1.0000
  C   C350      1.0  0.22429000000000002  0.36747000000000013  0.30461  1.0000
  C   C351      1.0  0.29402999999999996  0.41914  0.267  1.0000
  C   C352      1.0  0.17906000000000005  0.4110800000000001  0.24083  1.0000
  C   C353      1.0  0.15821999999999997  0.43012000000000006  0.20956  1.0000
  C   C354      1.0  0.25206  0.4570400000000001  0.20209  1.0000
  C   C355      1.0  0.36429000000000006  0.4653900000000001  0.22653  1.0000
  C   C356      1.0  0.38859  0.44743000000000005  0.26021  1.0000
  C   C357      1.0  0.9875599999999998  0.27889  0.19905999999999993  1.0000
  C   C358      1.0  0.015480000000000013  0.20255000000000006  0.31535  1.0000
  C   C359      1.0  0.8400399999999998  0.31024  0.59518  1.0000
  C   C360      1.0  0.7447999999999998  0.19443000000000005  0.40245  1.0000
  N   N1        1.0  0.56755  0.8152  0.02704  1.0000
  N   N2        1.0  0.021670000000000078  0.9427000000000003  0.27311  1.0000
  N   N3        1.0  0.7068699999999999  0.78313  0.32554  1.0000
  N   N4        1.0  0.95643  0.17198  0.45671  1.0000
  N   N5        1.0  0.7528299999999998  0.21161000000000005  0.1848  1.0000
  N   N6        1.0  0.07878000000000003  0.3299700000000001  0.05741  1.0000
  N   N7        1.0  0.9239999999999999  0.5423500000000002  0.21696999999999994  1.0000
  N   N8        1.0  0.78626  0.28473  0.82806  1.0000
  N   N9        1.0  0.54133  0.9734100000000001  0.7886199999999999  1.0000
  N   N10       1.0  0.7481499999999998  0.7268100000000001  0.6693699999999998  1.0000
  N   N11       1.0  0.3811700000000001  0.6742500000000002  0.45753  1.0000
  N   N12       1.0  0.5004899999999999  0.5432200000000003  0.71506  1.0000
  N   N13       1.0  0.43246999999999997  0.18480000000000002  0.97296  1.0000
  N   N14       1.0  0.97834  0.057300000000000045  0.72689  1.0000
  N   N15       1.0  0.29315  0.21687  0.67446  1.0000
  N   N16       1.0  0.043589999999999976  0.82802  0.54328  1.0000
  N   N17       1.0  0.24719  0.7883900000000003  0.8152  1.0000
  N   N18       1.0  0.92123  0.67003  0.94259  1.0000
  N   N19       1.0  0.07601999999999996  0.45765000000000006  0.7830299999999999  1.0000
  N   N20       1.0  0.21376  0.7152700000000002  0.17194  1.0000
  N   N21       1.0  0.45869  0.026590000000000027  0.21137  1.0000
  N   N22       1.0  0.2518699999999998  0.27319  0.3306299999999999  1.0000
  N   N23       1.0  0.61884  0.32575  0.54247  1.0000
  N   N24       1.0  0.49951999999999996  0.45678000000000013  0.28494  1.0000
  O   O1        1.0  0.38850999999999997  0.92203  0.16217999999999994  1.0000
  O   O2        1.0  0.27447999999999995  0.9220200000000001  0.09752  1.0000
  O   O3        1.0  0.69156  0.8229600000000004  0.26205  1.0000
  O   O4        1.0  0.6575  0.8940800000000003  0.32465  1.0000
  O   O5        1.0  0.9944299999999998  0.7641600000000001  0.43963999999999986  1.0000
  O   O6        1.0  0.10784000000000012  0.8265400000000003  0.43585  1.0000
  O   O7        1.0  0.09657999999999996  0.04584  0.32071999999999995  1.0000
  O   O8        1.0  0.22372999999999993  0.050999999999999976  0.3851599999999999  1.0000
  O   O9        1.0  0.24438  0.027959999999999995  0.24929  1.0000
  O   O10       1.0  0.23442000000000002  0.9392100000000002  0.23173  1.0000
  O   O11       1.0  0.45135  0.7452100000000003  0.28767  1.0000
  O   O12       1.0  0.4631100000000001  0.7597200000000002  0.21445999999999996  1.0000
  O   O13       1.0  0.4711899999999999  0.24082000000000006  0.07754  1.0000
  O   O14       1.0  0.35382999999999987  0.17728  0.07788999999999999  1.0000
  O   O15       1.0  0.8687599999999998  0.43867999999999996  0.17702  1.0000
  O   O16       1.0  0.76573  0.4310000000000001  0.10588  1.0000
  O   O17       1.0  0.22846999999999995  0.67591  0.23613  1.0000
  O   O18       1.0  0.28034  0.61028  0.17373  1.0000
  O   O19       1.0  0.05166000000000001  0.2750400000000001  0.95454  1.0000
  O   O20       1.0  0.17579999999999985  0.3332699999999999  0.9484999999999998  1.0000
  O   O21       1.0  0.2166299999999999  0.22104999999999997  0.9723399999999998  1.0000
  O   O22       1.0  0.29746999999999996  0.29297  0.06101  1.0000
  O   O23       1.0  0.7081799999999999  0.54253  0.25499  1.0000
  O   O24       1.0  0.70333  0.45451000000000014  0.24002  1.0000
  O   O25       1.0  0.22796999999999998  0.83791  0.76005  1.0000
  O   O26       1.0  0.17735  0.9022600000000001  0.8245399999999999  1.0000
  O   O27       1.0  0.42924000000000007  0.7378100000000002  0.56104  1.0000
  O   O28       1.0  0.33167000000000013  0.6751600000000002  0.56934  1.0000
  O   O29       1.0  0.5544  0.5604900000000003  0.32419  1.0000
  O   O30       1.0  0.6688599999999998  0.56324  0.39026  1.0000
  O   O31       1.0  0.7769199999999998  0.6792400000000002  0.7249399999999998  1.0000
  O   O32       1.0  0.8404899999999998  0.6147100000000001  0.6661299999999999  1.0000
  O   O33       1.0  0.9940099999999994  0.75151  0.7789599999999998  1.0000
  O   O34       1.0  0.0054499999999999835  0.7668000000000001  0.7061599999999999  1.0000
  O   O35       1.0  0.16541000000000006  0.7125000000000002  0.45744  1.0000
  O   O36       1.0  0.2513  0.7858900000000002  0.54529  1.0000
  O   O37       1.0  0.6115099999999997  0.07796999999999991  0.8378199999999998  1.0000
  O   O38       1.0  0.7255399999999997  0.07798000000000006  0.90248  1.0000
  O   O39       1.0  0.30845  0.17704  0.73795  1.0000
  O   O40       1.0  0.3425199999999999  0.10591999999999994  0.6753499999999999  1.0000
  O   O41       1.0  0.005589999999999992  0.23584  0.56036  1.0000
  O   O42       1.0  0.89218  0.17346000000000011  0.56415  1.0000
  O   O43       1.0  0.9034299999999998  0.9541600000000003  0.6792699999999999  1.0000
  O   O44       1.0  0.7762899999999997  0.9490000000000001  0.6148399999999998  1.0000
  O   O45       1.0  0.7556399999999998  0.9720400000000002  0.75071  1.0000
  O   O46       1.0  0.7655999999999997  0.06078999999999997  0.76826  1.0000
  O   O47       1.0  0.5486599999999999  0.2548  0.7123299999999998  1.0000
  O   O48       1.0  0.5369099999999999  0.2402800000000001  0.78553  1.0000
  O   O49       1.0  0.52883  0.7591800000000002  0.9224599999999998  1.0000
  O   O50       1.0  0.6461799999999998  0.82272  0.92211  1.0000
  O   O51       1.0  0.13126000000000004  0.5613300000000002  0.82298  1.0000
  O   O52       1.0  0.23427999999999993  0.5690000000000002  0.8941199999999998  1.0000
  O   O53       1.0  0.77155  0.3240900000000001  0.76387  1.0000
  O   O54       1.0  0.71968  0.3897200000000001  0.82626  1.0000
  O   O55       1.0  0.9483500000000001  0.7249600000000003  0.04545999999999999  1.0000
  O   O56       1.0  0.82421  0.6667300000000003  0.05149999999999998  1.0000
  O   O57       1.0  0.78338  0.77895  0.027659999999999997  1.0000
  O   O58       1.0  0.70254  0.70703  0.9389899999999998  1.0000
  O   O59       1.0  0.29183  0.4574700000000001  0.74501  1.0000
  O   O60       1.0  0.29669  0.54549  0.75998  1.0000
  O   O61       1.0  0.7720399999999997  0.16209000000000007  0.23995  1.0000
  O   O62       1.0  0.8226599999999997  0.09774  0.17546  1.0000
  O   O63       1.0  0.57077  0.26219  0.43896  1.0000
  O   O64       1.0  0.66835  0.32484  0.4306599999999999  1.0000
  O   O65       1.0  0.4456099999999999  0.43951000000000007  0.6758099999999999  1.0000
  O   O66       1.0  0.33116000000000007  0.4367600000000002  0.60974  1.0000
  O   O67       1.0  0.22309999999999997  0.32076  0.27505  1.0000
  O   O68       1.0  0.15953  0.38529000000000013  0.33387  1.0000
  O   O69       1.0  0.0060100000000000075  0.24849000000000004  0.22104  1.0000
  O   O70       1.0  0.9945600000000001  0.2332  0.29384  1.0000
  O   O71       1.0  0.8345999999999998  0.2875  0.54256  1.0000
  O   O72       1.0  0.7487099999999998  0.21410999999999997  0.45470999999999995  1.0000
