data_image0
_chemical_formula_structural       Ag34H816C408N136
_chemical_formula_sum              "Ag34 H816 C408 N136"
_cell_length_a       34.81227
_cell_length_b       34.80745
_cell_length_c       34.80761
_cell_angle_alpha    60.73362
_cell_angle_beta     60.64562999999999
_cell_angle_gamma    60.645489999999995

_space_group_name_H-M_alt    "P 1"
_space_group_IT_number       1

loop_
  _space_group_symop_operation_xyz
  'x, y, z'

loop_
  _atom_site_type_symbol
  _atom_site_label
  _atom_site_symmetry_multiplicity
  _atom_site_fract_x
  _atom_site_fract_y
  _atom_site_fract_z
  _atom_site_occupancy
  Ag  Ag1       1.0  0.37533000000000005  0.37542999999999993  0.3754300000000001  1.0000
  Ag  Ag2       1.0  0.6246699999999996  0.62458  0.6245800000000002  1.0000
  Ag  Ag3       1.0  0.28262000000000004  0.28250000000000003  0.65281  1.0000
  Ag  Ag4       1.0  0.2826199999999999  0.65281  0.2825  1.0000
  Ag  Ag5       1.0  0.6529000000000001  0.28261  0.28261  1.0000
  Ag  Ag6       1.0  0.28175999999999984  0.2819400000000001  0.28194000000000013  1.0000
  Ag  Ag7       1.0  0.7173800000000001  0.7175  0.34719  1.0000
  Ag  Ag8       1.0  0.7173800000000001  0.34718999999999994  0.7175000000000002  1.0000
  Ag  Ag9       1.0  0.7182399999999998  0.7180600000000003  0.71806  1.0000
  Ag  Ag10      1.0  0.3471000000000002  0.71739  0.71739  1.0000
  Ag  Ag11      1.0  0.12827000000000002  0.12811000000000003  0.73727  1.0000
  Ag  Ag12      1.0  0.50674  0.73578  0.12814  1.0000
  Ag  Ag13      1.0  0.7357499999999998  0.5067099999999999  0.12827000000000002  1.0000
  Ag  Ag14      1.0  0.12871  0.12874000000000002  0.50583  1.0000
  Ag  Ag15      1.0  0.12826999999999997  0.73727  0.12811  1.0000
  Ag  Ag16      1.0  0.73574  0.12826999999999997  0.50671  1.0000
  Ag  Ag17      1.0  0.5067399999999997  0.12813999999999998  0.7357800000000002  1.0000
  Ag  Ag18      1.0  0.12870999999999996  0.50583  0.12874  1.0000
  Ag  Ag19      1.0  0.73735  0.1281  0.12810000000000002  1.0000
  Ag  Ag20      1.0  0.12818000000000002  0.5069  0.73571  1.0000
  Ag  Ag21      1.0  0.12818000000000007  0.7357099999999999  0.5069000000000002  1.0000
  Ag  Ag22      1.0  0.50594  0.12861  0.12861000000000006  1.0000
  Ag  Ag23      1.0  0.49326  0.87186  0.26422  1.0000
  Ag  Ag24      1.0  0.8717300000000001  0.26273  0.8718900000000003  1.0000
  Ag  Ag25      1.0  0.87129  0.49416999999999994  0.8712600000000001  1.0000
  Ag  Ag26      1.0  0.26426000000000005  0.87173  0.4933000000000001  1.0000
  Ag  Ag27      1.0  0.49326  0.26422000000000007  0.87186  1.0000
  Ag  Ag28      1.0  0.8712899999999997  0.87126  0.4941700000000001  1.0000
  Ag  Ag29      1.0  0.87173  0.87189  0.26273  1.0000
  Ag  Ag30      1.0  0.26425  0.4932999999999999  0.8717300000000002  1.0000
  Ag  Ag31      1.0  0.49406000000000005  0.8713899999999998  0.8713900000000002  1.0000
  Ag  Ag32      1.0  0.8718199999999997  0.4931  0.26429000000000014  1.0000
  Ag  Ag33      1.0  0.87182  0.26429  0.4931000000000001  1.0000
  Ag  Ag34      1.0  0.2626499999999999  0.8718999999999999  0.8719000000000002  1.0000
  H   H1        1.0  0.28017  0.34829  0.4715900000000001  1.0000
  H   H2        1.0  0.25285  0.37118999999999996  0.55535  1.0000
  H   H3        1.0  0.19301999999999997  0.24344  0.74447  1.0000
  H   H4        1.0  0.19704000000000005  0.14679000000000003  0.76997  1.0000
  H   H5        1.0  0.12476999999999991  0.2429399999999999  0.7017100000000002  1.0000
  H   H6        1.0  0.15859999999999994  0.22692999999999997  0.65064  1.0000
  H   H7        1.0  0.2046099999999999  0.27362000000000014  0.62522  1.0000
  H   H8        1.0  0.1708899999999999  0.28903999999999996  0.6766500000000001  1.0000
  H   H9        1.0  0.19046999999999992  0.07242999999999994  0.6528400000000002  1.0000
  H   H10       1.0  0.19708999999999996  0.12816000000000002  0.62216  1.0000
  H   H11       1.0  0.11515999999999992  0.06496999999999997  0.6940200000000001  1.0000
  H   H12       1.0  0.23296  0.05020999999999992  0.7459000000000002  1.0000
  H   H13       1.0  0.21275999999999998  0.026779999999999898  0.7270500000000002  1.0000
  H   H14       1.0  0.13506999999999997  0.05532  0.85206  1.0000
  H   H15       1.0  0.18940999999999988  0.06490999999999994  0.8178400000000002  1.0000
  H   H16       1.0  0.14038000000000003  0.012649999999999988  0.77228  1.0000
  H   H17       1.0  0.10735  0.023249999999999976  0.8262400000000001  1.0000
  H   H18       1.0  0.39914000000000005  0.47208000000000006  0.34878  1.0000
  H   H19       1.0  0.32116000000000006  0.55562  0.3715500000000001  1.0000
  H   H20       1.0  0.3201999999999999  0.7440800000000002  0.24321000000000007  1.0000
  H   H21       1.0  0.3862299999999999  0.7699300000000002  0.14683  1.0000
  H   H22       1.0  0.4305399999999999  0.7021000000000001  0.24367000000000005  1.0000
  H   H23       1.0  0.46299999999999997  0.6512000000000002  0.22734  1.0000
  H   H24       1.0  0.3964599999999998  0.6252200000000002  0.27366  1.0000
  H   H25       1.0  0.36401999999999984  0.6766800000000002  0.2890500000000001  1.0000
  H   H26       1.0  0.5844100000000001  0.6523800000000001  0.07197  1.0000
  H   H27       1.0  0.5532400000000001  0.62154  0.12757  1.0000
  H   H28       1.0  0.62591  0.69402  0.065  1.0000
  H   H29       1.0  0.4711900000000001  0.74553  0.049900000000000014  1.0000
  H   H30       1.0  0.5328099999999999  0.72715  0.026900000000000004  1.0000
  H   H31       1.0  0.45824000000000004  0.85221  0.05545000000000001  1.0000
  H   H32       1.0  0.4289700000000001  0.8173899999999998  0.06449000000000003  1.0000
  H   H33       1.0  0.5737700000000001  0.77281  0.0132  1.0000
  H   H34       1.0  0.5431799999999999  0.8268100000000003  0.023750000000000004  1.0000
  H   H35       1.0  0.4718200000000002  0.39875999999999995  0.2806900000000001  1.0000
  H   H36       1.0  0.5551  0.32056  0.25258  1.0000
  H   H37       1.0  0.7439099999999998  0.3199  0.19253000000000006  1.0000
  H   H38       1.0  0.77044  0.38638  0.19731000000000007  1.0000
  H   H39       1.0  0.7016599999999998  0.42996  0.12477000000000003  1.0000
  H   H40       1.0  0.6509400000000001  0.4627100000000001  0.15897  1.0000
  H   H41       1.0  0.62482  0.39628  0.20424000000000006  1.0000
  H   H42       1.0  0.6760300000000001  0.36357  0.17022  1.0000
  H   H43       1.0  0.6529399999999999  0.585  0.19067000000000006  1.0000
  H   H44       1.0  0.62185  0.55365  0.19652  1.0000
  H   H45       1.0  0.69445  0.62625  0.11538000000000002  1.0000
  H   H46       1.0  0.7454199999999999  0.4712100000000002  0.23252  1.0000
  H   H47       1.0  0.7271  0.5328000000000002  0.21271000000000007  1.0000
  H   H48       1.0  0.8516700000000001  0.45781000000000005  0.13462000000000005  1.0000
  H   H49       1.0  0.81717  0.42862000000000006  0.18874000000000005  1.0000
  H   H50       1.0  0.7724899999999999  0.57339  0.14081  1.0000
  H   H51       1.0  0.82626  0.54245  0.10744  1.0000
  H   H52       1.0  0.34875999999999996  0.28093  0.39905  1.0000
  H   H53       1.0  0.37094000000000005  0.25261999999999996  0.3205400000000001  1.0000
  H   H54       1.0  0.2429  0.19250000000000003  0.31988000000000005  1.0000
  H   H55       1.0  0.14635999999999988  0.19670999999999997  0.3857600000000001  1.0000
  H   H56       1.0  0.24305999999999997  0.12491999999999998  0.43003000000000013  1.0000
  H   H57       1.0  0.22739999999999994  0.15924999999999997  0.4629900000000001  1.0000
  H   H58       1.0  0.2741700000000001  0.20479  0.3969200000000001  1.0000
  H   H59       1.0  0.28892999999999996  0.17078999999999994  0.3639600000000001  1.0000
  H   H60       1.0  0.07207999999999998  0.1901700000000001  0.58456  1.0000
  H   H61       1.0  0.12794999999999998  0.19651999999999997  0.5536400000000001  1.0000
  H   H62       1.0  0.06448999999999996  0.11480000000000003  0.62561  1.0000
  H   H63       1.0  0.05040999999999998  0.23307999999999995  0.4716900000000001  1.0000
  H   H64       1.0  0.0273799999999999  0.21341  0.5333000000000002  1.0000
  H   H65       1.0  0.054999999999999924  0.13468000000000002  0.4578600000000001  1.0000
  H   H66       1.0  0.06456999999999999  0.18900999999999998  0.42899  1.0000
  H   H67       1.0  0.013230000000000013  0.14101  0.57373  1.0000
  H   H68       1.0  0.02334999999999998  0.10752000000000005  0.54246  1.0000
  H   H69       1.0  0.34836  0.47154000000000007  0.28011  1.0000
  H   H70       1.0  0.37116  0.55525  0.25295  1.0000
  H   H71       1.0  0.24337999999999993  0.7444000000000002  0.1931  1.0000
  H   H72       1.0  0.1466899999999999  0.77003  0.19712000000000005  1.0000
  H   H73       1.0  0.24296000000000006  0.7016  0.12481000000000003  1.0000
  H   H74       1.0  0.22702  0.65058  0.15854  1.0000
  H   H75       1.0  0.27374  0.62516  0.20453000000000005  1.0000
  H   H76       1.0  0.2890900000000001  0.67653  0.1709  1.0000
  H   H77       1.0  0.07234999999999987  0.6529400000000002  0.1905  1.0000
  H   H78       1.0  0.1281399999999999  0.6222100000000002  0.19708000000000006  1.0000
  H   H79       1.0  0.06485999999999999  0.69408  0.11522000000000003  1.0000
  H   H80       1.0  0.05027999999999994  0.74589  0.23289  1.0000
  H   H81       1.0  0.026879999999999956  0.72705  0.21265  1.0000
  H   H82       1.0  0.055289999999999964  0.85195  0.13515  1.0000
  H   H83       1.0  0.06490999999999997  0.8177700000000001  0.18944000000000005  1.0000
  H   H84       1.0  0.012720000000000023  0.7722199999999999  0.14033000000000007  1.0000
  H   H85       1.0  0.02325999999999997  0.82614  0.10740000000000002  1.0000
  H   H86       1.0  0.4720299999999999  0.34889000000000003  0.3991400000000001  1.0000
  H   H87       1.0  0.5555699999999999  0.3715  0.3212300000000001  1.0000
  H   H88       1.0  0.7440399999999999  0.24309999999999998  0.32029000000000013  1.0000
  H   H89       1.0  0.7700399999999998  0.14675  0.38617  1.0000
  H   H90       1.0  0.70202  0.24370000000000003  0.43059  1.0000
  H   H91       1.0  0.6511299999999998  0.22745000000000004  0.4630100000000001  1.0000
  H   H92       1.0  0.62512  0.27375  0.3965200000000001  1.0000
  H   H93       1.0  0.6765799999999997  0.28903000000000006  0.3641200000000001  1.0000
  H   H94       1.0  0.6524599999999998  0.07189999999999992  0.5843500000000003  1.0000
  H   H95       1.0  0.6215599999999999  0.12751  0.55325  1.0000
  H   H96       1.0  0.6941200000000002  0.06492999999999997  0.62587  1.0000
  H   H97       1.0  0.74546  0.04992999999999997  0.4712400000000001  1.0000
  H   H98       1.0  0.72708  0.027000000000000007  0.53281  1.0000
  H   H99       1.0  0.85214  0.05538  0.45835  1.0000
  H   H100      1.0  0.8173100000000001  0.06442  0.42908  1.0000
  H   H101      1.0  0.7727600000000001  0.013299999999999998  0.57378  1.0000
  H   H102      1.0  0.82677  0.02376999999999995  0.5432100000000001  1.0000
  H   H103      1.0  0.39885  0.28056  0.47180000000000005  1.0000
  H   H104      1.0  0.3206399999999999  0.2526399999999999  0.5550000000000003  1.0000
  H   H105      1.0  0.31990999999999986  0.19264000000000003  0.7438500000000002  1.0000
  H   H106      1.0  0.38635999999999987  0.19738999999999995  0.7704200000000002  1.0000
  H   H107      1.0  0.43006999999999995  0.12475000000000003  0.70156  1.0000
  H   H108      1.0  0.4627899999999999  0.15885999999999992  0.6509100000000002  1.0000
  H   H109      1.0  0.39629999999999965  0.20416999999999996  0.6248300000000002  1.0000
  H   H110      1.0  0.3636199999999999  0.17023999999999995  0.6759700000000002  1.0000
  H   H111      1.0  0.5849099999999998  0.19075  0.6530000000000002  1.0000
  H   H112      1.0  0.5535499999999999  0.19659  0.6219  1.0000
  H   H113      1.0  0.62624  0.11544000000000003  0.69444  1.0000
  H   H114      1.0  0.47116999999999976  0.23248999999999995  0.7454700000000002  1.0000
  H   H115      1.0  0.5328200000000001  0.2126  0.72716  1.0000
  H   H116      1.0  0.45787999999999973  0.13469999999999988  0.8515600000000002  1.0000
  H   H117      1.0  0.4286  0.18880999999999995  0.8171400000000002  1.0000
  H   H118      1.0  0.5734899999999997  0.14068999999999995  0.7724700000000002  1.0000
  H   H119      1.0  0.5425499999999998  0.10741999999999996  0.8261700000000002  1.0000
  H   H120      1.0  0.2807999999999999  0.39911  0.3488500000000001  1.0000
  H   H121      1.0  0.2526199999999998  0.32064  0.3708800000000001  1.0000
  H   H122      1.0  0.19257999999999997  0.31994  0.24280000000000004  1.0000
  H   H123      1.0  0.19674999999999987  0.38571000000000005  0.14635000000000006  1.0000
  H   H124      1.0  0.12484999999999997  0.43014  0.24308  1.0000
  H   H125      1.0  0.15914  0.4630500000000001  0.22749000000000005  1.0000
  H   H126      1.0  0.2047499999999999  0.39698  0.2741800000000001  1.0000
  H   H127      1.0  0.17080999999999996  0.36406  0.2888600000000001  1.0000
  H   H128      1.0  0.19025999999999998  0.58445  0.07206000000000003  1.0000
  H   H129      1.0  0.19662999999999986  0.5535800000000002  0.12788000000000005  1.0000
  H   H130      1.0  0.11481000000000002  0.6255599999999999  0.06449000000000003  1.0000
  H   H131      1.0  0.23309999999999995  0.4716900000000001  0.050380000000000015  1.0000
  H   H132      1.0  0.2133599999999999  0.5333000000000002  0.02743  1.0000
  H   H133      1.0  0.1347099999999999  0.4579700000000001  0.05492000000000001  1.0000
  H   H134      1.0  0.18909000000000004  0.42906  0.06447  1.0000
  H   H135      1.0  0.14089  0.5738  0.013300000000000003  1.0000
  H   H136      1.0  0.10743999999999998  0.54256  0.023360000000000006  1.0000
  H   H137      1.0  0.47158  0.28017999999999993  0.3482800000000001  1.0000
  H   H138      1.0  0.55533  0.25296  0.37108  1.0000
  H   H139      1.0  0.74441  0.19309999999999997  0.24338000000000004  1.0000
  H   H140      1.0  0.77007  0.19698999999999994  0.14671000000000006  1.0000
  H   H141      1.0  0.7016999999999999  0.12484  0.24285000000000007  1.0000
  H   H142      1.0  0.65063  0.15861  0.22692  1.0000
  H   H143      1.0  0.6251200000000001  0.20466  0.2737  1.0000
  H   H144      1.0  0.67655  0.17099999999999999  0.2890200000000001  1.0000
  H   H145      1.0  0.6528900000000001  0.1904  0.07246000000000001  1.0000
  H   H146      1.0  0.62212  0.19709  0.12823000000000007  1.0000
  H   H147      1.0  0.69413  0.11509  0.06488000000000002  1.0000
  H   H148      1.0  0.74579  0.23302000000000003  0.05030000000000001  1.0000
  H   H149      1.0  0.72699  0.21276000000000003  0.02687000000000001  1.0000
  H   H150      1.0  0.852  0.13516000000000006  0.05522  1.0000
  H   H151      1.0  0.8177500000000001  0.1895  0.0649  1.0000
  H   H152      1.0  0.77228  0.14038  0.012640000000000004  1.0000
  H   H153      1.0  0.82624  0.10740000000000002  0.02316  1.0000
  H   H154      1.0  0.34879999999999983  0.39908  0.4721300000000001  1.0000
  H   H155      1.0  0.37149999999999983  0.32123000000000024  0.55557  1.0000
  H   H156      1.0  0.24319000000000005  0.32029000000000013  0.74396  1.0000
  H   H157      1.0  0.14671999999999996  0.3863  0.7699900000000001  1.0000
  H   H158      1.0  0.24364000000000005  0.43056999999999995  0.7021  1.0000
  H   H159      1.0  0.22735999999999998  0.4629400000000001  0.65125  1.0000
  H   H160      1.0  0.27376999999999996  0.39640000000000003  0.62516  1.0000
  H   H161      1.0  0.28909000000000007  0.36403  0.67658  1.0000
  H   H162      1.0  0.07192999999999998  0.5844399999999998  0.6523900000000002  1.0000
  H   H163      1.0  0.12759999999999994  0.55325  0.6214600000000002  1.0000
  H   H164      1.0  0.0648899999999999  0.6260000000000001  0.6940900000000002  1.0000
  H   H165      1.0  0.05000000000000001  0.47114000000000006  0.74544  1.0000
  H   H166      1.0  0.026990000000000063  0.53272  0.72716  1.0000
  H   H167      1.0  0.05540999999999982  0.45834  0.8521100000000003  1.0000
  H   H168      1.0  0.06451999999999987  0.42901000000000006  0.8172600000000001  1.0000
  H   H169      1.0  0.01323999999999998  0.5737099999999999  0.7728600000000002  1.0000
  H   H170      1.0  0.023719999999999998  0.5432099999999999  0.8268200000000002  1.0000
  H   H171      1.0  0.2806099999999999  0.4719099999999999  0.3987600000000001  1.0000
  H   H172      1.0  0.25258  0.55505  0.32066000000000006  1.0000
  H   H173      1.0  0.1926  0.74379  0.31997  1.0000
  H   H174      1.0  0.1972999999999998  0.7704200000000002  0.38646000000000014  1.0000
  H   H175      1.0  0.12471000000000006  0.70167  0.4300500000000001  1.0000
  H   H176      1.0  0.15889999999999987  0.6510200000000002  0.46271000000000007  1.0000
  H   H177      1.0  0.20426999999999995  0.62484  0.3962100000000001  1.0000
  H   H178      1.0  0.17026999999999998  0.67598  0.36358  1.0000
  H   H179      1.0  0.1907099999999999  0.65291  0.5849800000000003  1.0000
  H   H180      1.0  0.19664000000000004  0.6217699999999999  0.5535900000000001  1.0000
  H   H181      1.0  0.11533999999999978  0.6944500000000001  0.6263300000000003  1.0000
  H   H182      1.0  0.23261000000000007  0.74539  0.47111  1.0000
  H   H183      1.0  0.2126900000000001  0.72718  0.53271  1.0000
  H   H184      1.0  0.1346499999999999  0.85158  0.4579200000000001  1.0000
  H   H185      1.0  0.18883999999999987  0.81708  0.4286200000000001  1.0000
  H   H186      1.0  0.14071999999999973  0.77258  0.5734000000000002  1.0000
  H   H187      1.0  0.10736999999999985  0.82628  0.54255  1.0000
  H   H188      1.0  0.39910999999999996  0.3487300000000001  0.28087  1.0000
  H   H189      1.0  0.3205999999999999  0.3708199999999999  0.25269000000000014  1.0000
  H   H190      1.0  0.31987999999999994  0.24285  0.19260000000000005  1.0000
  H   H191      1.0  0.38579999999999987  0.14635  0.19666000000000006  1.0000
  H   H192      1.0  0.43013  0.24296000000000004  0.12492  1.0000
  H   H193      1.0  0.46304999999999996  0.22737  0.1592  1.0000
  H   H194      1.0  0.39688999999999985  0.27417000000000014  0.20485000000000006  1.0000
  H   H195      1.0  0.36396  0.28885  0.17091  1.0000
  H   H196      1.0  0.5844999999999999  0.07214999999999999  0.19014  1.0000
  H   H197      1.0  0.5535299999999999  0.128  0.19661000000000006  1.0000
  H   H198      1.0  0.6256499999999999  0.06448  0.11473000000000003  1.0000
  H   H199      1.0  0.4715999999999999  0.050439999999999985  0.23317000000000004  1.0000
  H   H200      1.0  0.53326  0.02742  0.21341  1.0000
  H   H201      1.0  0.45792  0.05488999999999999  0.13478000000000007  1.0000
  H   H202      1.0  0.4289499999999999  0.06452999999999999  0.18914000000000006  1.0000
  H   H203      1.0  0.5738  0.013200000000000003  0.14095  1.0000
  H   H204      1.0  0.54256  0.02324999999999999  0.10750000000000003  1.0000
  H   H205      1.0  0.60086  0.65123  0.52792  1.0000
  H   H206      1.0  0.67884  0.62845  0.4443900000000001  1.0000
  H   H207      1.0  0.6797999999999998  0.7568000000000005  0.25592  1.0000
  H   H208      1.0  0.61377  0.85318  0.23007000000000005  1.0000
  H   H209      1.0  0.5694599999999999  0.75633  0.2979100000000001  1.0000
  H   H210      1.0  0.537  0.77267  0.3488100000000001  1.0000
  H   H211      1.0  0.6035399999999999  0.72634  0.37478000000000006  1.0000
  H   H212      1.0  0.6359799999999999  0.71096  0.3233200000000001  1.0000
  H   H213      1.0  0.41559000000000007  0.9280399999999999  0.3476200000000001  1.0000
  H   H214      1.0  0.44675999999999993  0.87244  0.37846000000000013  1.0000
  H   H215      1.0  0.3740899999999998  0.9350000000000003  0.30599  1.0000
  H   H216      1.0  0.52881  0.9501  0.25447  1.0000
  H   H217      1.0  0.4671899999999998  0.9731100000000005  0.27286  1.0000
  H   H218      1.0  0.54176  0.94455  0.14779000000000006  1.0000
  H   H219      1.0  0.57103  0.93552  0.18262  1.0000
  H   H220      1.0  0.4262300000000001  0.9868000000000001  0.22720000000000004  1.0000
  H   H221      1.0  0.4568199999999999  0.97625  0.17319  1.0000
  H   H222      1.0  0.7198300000000001  0.5284099999999998  0.6517200000000002  1.0000
  H   H223      1.0  0.7471500000000001  0.44464999999999993  0.62881  1.0000
  H   H224      1.0  0.80698  0.25554  0.75657  1.0000
  H   H225      1.0  0.80296  0.23002999999999993  0.8532100000000002  1.0000
  H   H226      1.0  0.8752299999999998  0.2983000000000001  0.7570600000000001  1.0000
  H   H227      1.0  0.8414  0.34935999999999995  0.77307  1.0000
  H   H228      1.0  0.7953899999999998  0.37477999999999995  0.7263800000000002  1.0000
  H   H229      1.0  0.8291099999999999  0.32336  0.71096  1.0000
  H   H230      1.0  0.8095299999999997  0.34716  0.9275700000000002  1.0000
  H   H231      1.0  0.8029100000000001  0.37784  0.87184  1.0000
  H   H232      1.0  0.8848399999999998  0.30598000000000003  0.9350400000000002  1.0000
  H   H233      1.0  0.76704  0.2541  0.9498  1.0000
  H   H234      1.0  0.7872399999999998  0.27294999999999997  0.9732200000000002  1.0000
  H   H235      1.0  0.8649299999999999  0.14793999999999996  0.9446900000000003  1.0000
  H   H236      1.0  0.8105899999999998  0.18216000000000002  0.9351000000000003  1.0000
  H   H237      1.0  0.8596199999999999  0.2277299999999999  0.9873500000000002  1.0000
  H   H238      1.0  0.8926500000000002  0.17376000000000003  0.97676  1.0000
  H   H239      1.0  0.6512399999999999  0.60095  0.7190800000000003  1.0000
  H   H240      1.0  0.6290600000000001  0.6794699999999999  0.7473800000000003  1.0000
  H   H241      1.0  0.7570999999999997  0.68013  0.8075100000000001  1.0000
  H   H242      1.0  0.8536399999999997  0.6142400000000005  0.80329  1.0000
  H   H243      1.0  0.7569399999999998  0.56997  0.8750800000000002  1.0000
  H   H244      1.0  0.7726000000000001  0.53701  0.84075  1.0000
  H   H245      1.0  0.7258299999999996  0.6030800000000001  0.7952100000000002  1.0000
  H   H246      1.0  0.71107  0.6360399999999999  0.8292100000000002  1.0000
  H   H247      1.0  0.9279199999999999  0.41545000000000004  0.8098300000000003  1.0000
  H   H248      1.0  0.8720499999999997  0.44637000000000004  0.8034800000000002  1.0000
  H   H249      1.0  0.9355099999999998  0.37439999999999996  0.8852  1.0000
  H   H250      1.0  0.94959  0.52832  0.76693  1.0000
  H   H251      1.0  0.9726199999999998  0.4667  0.78659  1.0000
  H   H252      1.0  0.9449999999999998  0.54215  0.8653200000000001  1.0000
  H   H253      1.0  0.93543  0.57101  0.81099  1.0000
  H   H254      1.0  0.9867699999999999  0.42627000000000004  0.85899  1.0000
  H   H255      1.0  0.9766499999999998  0.45754999999999996  0.8924900000000002  1.0000
  H   H256      1.0  0.5281799999999999  0.7193100000000001  0.60124  1.0000
  H   H257      1.0  0.44490000000000013  0.7474299999999999  0.67944  1.0000
  H   H258      1.0  0.25608999999999993  0.8074800000000001  0.6801000000000003  1.0000
  H   H259      1.0  0.22955999999999996  0.8026900000000001  0.6136200000000003  1.0000
  H   H260      1.0  0.29834000000000005  0.87523  0.5700400000000002  1.0000
  H   H261      1.0  0.34906  0.8410300000000003  0.53729  1.0000
  H   H262      1.0  0.3751799999999999  0.79576  0.60372  1.0000
  H   H263      1.0  0.32397  0.82978  0.63643  1.0000
  H   H264      1.0  0.34705999999999987  0.80934  0.4150000000000001  1.0000
  H   H265      1.0  0.37815000000000015  0.80349  0.44636  1.0000
  H   H266      1.0  0.3055499999999998  0.88462  0.37375000000000014  1.0000
  H   H267      1.0  0.25458000000000003  0.7674799999999999  0.5288000000000002  1.0000
  H   H268      1.0  0.27289999999999986  0.7872900000000003  0.4672000000000001  1.0000
  H   H269      1.0  0.14832999999999996  0.86538  0.54219  1.0000
  H   H270      1.0  0.1828299999999999  0.8112700000000003  0.5713900000000001  1.0000
  H   H271      1.0  0.2275099999999999  0.85919  0.4266100000000001  1.0000
  H   H272      1.0  0.17373999999999998  0.8925600000000001  0.45755  1.0000
  H   H273      1.0  0.6011500000000001  0.5282000000000002  0.7194400000000001  1.0000
  H   H274      1.0  0.6793599999999997  0.44501  0.7473700000000001  1.0000
  H   H275      1.0  0.6800899999999998  0.25616000000000005  0.8073700000000001  1.0000
  H   H276      1.0  0.6136399999999999  0.22957999999999995  0.8026100000000003  1.0000
  H   H277      1.0  0.56993  0.29844000000000015  0.87525  1.0000
  H   H278      1.0  0.53721  0.34909999999999997  0.8411500000000002  1.0000
  H   H279      1.0  0.6037000000000001  0.37517  0.79583  1.0000
  H   H280      1.0  0.6363799999999997  0.32403000000000004  0.8297600000000003  1.0000
  H   H281      1.0  0.4150899999999999  0.34701  0.8092600000000002  1.0000
  H   H282      1.0  0.44644999999999996  0.37810000000000005  0.80341  1.0000
  H   H283      1.0  0.37375999999999976  0.30557000000000006  0.8845600000000002  1.0000
  H   H284      1.0  0.52883  0.2545299999999999  0.7675200000000002  1.0000
  H   H285      1.0  0.4671799999999998  0.27283999999999997  0.7874100000000003  1.0000
  H   H286      1.0  0.5421199999999999  0.14844999999999994  0.8653100000000002  1.0000
  H   H287      1.0  0.5713999999999998  0.18286999999999992  0.8111900000000002  1.0000
  H   H288      1.0  0.42650999999999994  0.22753999999999996  0.8593100000000002  1.0000
  H   H289      1.0  0.4574499999999999  0.17383000000000004  0.89258  1.0000
  H   H290      1.0  0.7191999999999996  0.6511500000000001  0.6008900000000003  1.0000
  H   H291      1.0  0.7473799999999999  0.6291200000000001  0.67936  1.0000
  H   H292      1.0  0.80742  0.7572  0.6800600000000002  1.0000
  H   H293      1.0  0.80325  0.8536500000000001  0.6142900000000002  1.0000
  H   H294      1.0  0.8751500000000001  0.75692  0.56986  1.0000
  H   H295      1.0  0.84086  0.7725099999999999  0.5369500000000003  1.0000
  H   H296      1.0  0.7952500000000001  0.7258299999999999  0.6030200000000002  1.0000
  H   H297      1.0  0.8291899999999996  0.7111400000000002  0.63594  1.0000
  H   H298      1.0  0.8097399999999997  0.9279400000000003  0.41556  1.0000
  H   H299      1.0  0.80337  0.87213  0.44643  1.0000
  H   H300      1.0  0.8851900000000001  0.93551  0.3744400000000001  1.0000
  H   H301      1.0  0.7668999999999996  0.9496200000000004  0.52831  1.0000
  H   H302      1.0  0.7866399999999999  0.97257  0.4667  1.0000
  H   H303      1.0  0.8652899999999998  0.9450800000000001  0.54203  1.0000
  H   H304      1.0  0.81091  0.9355299999999999  0.57094  1.0000
  H   H305      1.0  0.8591099999999999  0.9867000000000001  0.42620000000000013  1.0000
  H   H306      1.0  0.89256  0.9766399999999998  0.45744000000000007  1.0000
  H   H307      1.0  0.6516399999999998  0.7198900000000003  0.52847  1.0000
  H   H308      1.0  0.62884  0.74706  0.44475000000000003  1.0000
  H   H309      1.0  0.7566200000000001  0.8069  0.2556  1.0000
  H   H310      1.0  0.8533100000000001  0.80289  0.22997000000000006  1.0000
  H   H311      1.0  0.7570400000000002  0.87519  0.2984  1.0000
  H   H312      1.0  0.7729799999999999  0.8414700000000002  0.34942  1.0000
  H   H313      1.0  0.72626  0.79547  0.37485  1.0000
  H   H314      1.0  0.7109100000000002  0.8291  0.3234700000000001  1.0000
  H   H315      1.0  0.92765  0.8095  0.34707  1.0000
  H   H316      1.0  0.87186  0.8029200000000002  0.37779000000000007  1.0000
  H   H317      1.0  0.9351399999999997  0.8847800000000002  0.30592  1.0000
  H   H318      1.0  0.94972  0.76711  0.25411  1.0000
  H   H319      1.0  0.9731199999999999  0.78735  0.27296  1.0000
  H   H320      1.0  0.9447099999999998  0.8648500000000001  0.14806  1.0000
  H   H321      1.0  0.9350899999999996  0.81056  0.18223  1.0000
  H   H322      1.0  0.9872800000000002  0.85968  0.22778000000000007  1.0000
  H   H323      1.0  0.9767400000000003  0.8926  0.17386000000000001  1.0000
  H   H324      1.0  0.52797  0.60086  0.6511200000000003  1.0000
  H   H325      1.0  0.4444299999999998  0.6787700000000001  0.6285100000000001  1.0000
  H   H326      1.0  0.25596000000000013  0.6797099999999999  0.7569000000000002  1.0000
  H   H327      1.0  0.22996999999999992  0.6138300000000002  0.8532500000000002  1.0000
  H   H328      1.0  0.2979800000000001  0.5694099999999999  0.7563100000000001  1.0000
  H   H329      1.0  0.34886999999999996  0.5369999999999999  0.7725500000000002  1.0000
  H   H330      1.0  0.3748799999999999  0.6034800000000001  0.7262500000000001  1.0000
  H   H331      1.0  0.3234199999999999  0.63588  0.71098  1.0000
  H   H332      1.0  0.34754  0.41565  0.92811  1.0000
  H   H333      1.0  0.3784399999999997  0.44676000000000005  0.8725000000000003  1.0000
  H   H334      1.0  0.3058799999999999  0.3741400000000001  0.9350700000000002  1.0000
  H   H335      1.0  0.25453999999999993  0.5287599999999999  0.9500700000000002  1.0000
  H   H336      1.0  0.2729199999999998  0.46718999999999994  0.9730000000000002  1.0000
  H   H337      1.0  0.14785999999999982  0.54165  0.9446200000000002  1.0000
  H   H338      1.0  0.18269  0.5709299999999999  0.93559  1.0000
  H   H339      1.0  0.2272399999999999  0.42623000000000005  0.9867000000000002  1.0000
  H   H340      1.0  0.17322999999999983  0.45679  0.9762300000000003  1.0000
  H   H341      1.0  0.6008900000000001  0.71913  0.65127  1.0000
  H   H342      1.0  0.6794  0.74731  0.6291800000000002  1.0000
  H   H343      1.0  0.6801199999999998  0.8074  0.7571500000000002  1.0000
  H   H344      1.0  0.6141999999999997  0.8033400000000002  0.8536500000000002  1.0000
  H   H345      1.0  0.56987  0.87508  0.7570400000000002  1.0000
  H   H346      1.0  0.5369499999999999  0.8408000000000003  0.7726300000000003  1.0000
  H   H347      1.0  0.6031100000000001  0.7951499999999999  0.7258300000000002  1.0000
  H   H348      1.0  0.6360399999999998  0.8291  0.7111500000000002  1.0000
  H   H349      1.0  0.4154999999999999  0.80986  0.9278500000000001  1.0000
  H   H350      1.0  0.44647  0.8034  0.8720000000000002  1.0000
  H   H351      1.0  0.3743499999999998  0.8852700000000002  0.9355200000000002  1.0000
  H   H352      1.0  0.5283999999999999  0.7668300000000001  0.9495600000000001  1.0000
  H   H353      1.0  0.46674  0.7866000000000003  0.9725900000000002  1.0000
  H   H354      1.0  0.5420799999999996  0.8652300000000003  0.9451100000000002  1.0000
  H   H355      1.0  0.57105  0.8108599999999999  0.93547  1.0000
  H   H356      1.0  0.4261999999999999  0.85906  0.9868100000000002  1.0000
  H   H357      1.0  0.4574400000000001  0.8924999999999997  0.9767500000000002  1.0000
  H   H358      1.0  0.7193899999999995  0.60124  0.5281000000000001  1.0000
  H   H359      1.0  0.74742  0.67934  0.4449500000000001  1.0000
  H   H360      1.0  0.8074  0.68003  0.25622  1.0000
  H   H361      1.0  0.8026999999999999  0.61355  0.22958  1.0000
  H   H362      1.0  0.87529  0.56996  0.29833  1.0000
  H   H363      1.0  0.8411  0.53729  0.3489800000000001  1.0000
  H   H364      1.0  0.7957299999999999  0.60379  0.3751600000000001  1.0000
  H   H365      1.0  0.8297299999999999  0.63642  0.32402  1.0000
  H   H366      1.0  0.8092900000000002  0.41502  0.34709  1.0000
  H   H367      1.0  0.8033599999999997  0.4464200000000001  0.3782300000000001  1.0000
  H   H368      1.0  0.8846599999999999  0.37366999999999995  0.3055600000000001  1.0000
  H   H369      1.0  0.7673899999999999  0.52889  0.2546100000000001  1.0000
  H   H370      1.0  0.78731  0.4672900000000001  0.27282  1.0000
  H   H371      1.0  0.8653500000000001  0.54208  0.14842  1.0000
  H   H372      1.0  0.8111600000000001  0.57139  0.18293  1.0000
  H   H373      1.0  0.8592799999999998  0.4266  0.22743000000000005  1.0000
  H   H374      1.0  0.89263  0.45745000000000013  0.17372000000000007  1.0000
  H   H375      1.0  0.6512000000000001  0.5278700000000001  0.60092  1.0000
  H   H376      1.0  0.6285  0.44443000000000005  0.67877  1.0000
  H   H377      1.0  0.7568099999999999  0.25604  0.67971  1.0000
  H   H378      1.0  0.8532800000000001  0.23001000000000002  0.61371  1.0000
  H   H379      1.0  0.75636  0.29790999999999995  0.56944  1.0000
  H   H380      1.0  0.7726399999999997  0.34875  0.5370600000000002  1.0000
  H   H381      1.0  0.7262299999999997  0.37484  0.60361  1.0000
  H   H382      1.0  0.7109099999999999  0.32342999999999994  0.6359700000000001  1.0000
  H   H383      1.0  0.92807  0.34761000000000003  0.41556  1.0000
  H   H384      1.0  0.8723999999999998  0.37853999999999993  0.4467600000000001  1.0000
  H   H385      1.0  0.9351099999999999  0.30591000000000007  0.37401000000000006  1.0000
  H   H386      1.0  0.95  0.25455999999999995  0.5288600000000001  1.0000
  H   H387      1.0  0.9730099999999999  0.27284  0.46729000000000004  1.0000
  H   H388      1.0  0.9445899999999999  0.14788999999999994  0.5416600000000001  1.0000
  H   H389      1.0  0.93549  0.1827400000000001  0.571  1.0000
  H   H390      1.0  0.9867600000000001  0.22714000000000006  0.4262900000000001  1.0000
  H   H391      1.0  0.9762799999999999  0.17318000000000006  0.45679000000000003  1.0000
  H   H392      1.0  0.5284200000000001  0.6517199999999999  0.71982  1.0000
  H   H393      1.0  0.44466999999999984  0.6289299999999999  0.7470500000000002  1.0000
  H   H394      1.0  0.25559000000000004  0.75662  0.8069100000000002  1.0000
  H   H395      1.0  0.22992999999999988  0.8532900000000003  0.80301  1.0000
  H   H396      1.0  0.2982999999999999  0.7571600000000002  0.8751600000000003  1.0000
  H   H397      1.0  0.34937000000000007  0.7730799999999999  0.8414  1.0000
  H   H398      1.0  0.37487999999999977  0.7263000000000001  0.7953400000000003  1.0000
  H   H399      1.0  0.32344999999999996  0.7109900000000001  0.8290000000000002  1.0000
  H   H400      1.0  0.3471099999999998  0.9275399999999998  0.8096100000000003  1.0000
  H   H401      1.0  0.3778799999999998  0.87178  0.8029100000000001  1.0000
  H   H402      1.0  0.30586999999999986  0.93512  0.8849100000000002  1.0000
  H   H403      1.0  0.2542099999999999  0.94971  0.7669800000000002  1.0000
  H   H404      1.0  0.2730099999999999  0.97313  0.78724  1.0000
  H   H405      1.0  0.148  0.94479  0.8648400000000003  1.0000
  H   H406      1.0  0.18225000000000002  0.9350999999999998  0.8105100000000001  1.0000
  H   H407      1.0  0.2277199999999999  0.98736  0.85962  1.0000
  H   H408      1.0  0.1737599999999999  0.9768500000000001  0.8926  1.0000
  H   H409      1.0  0.71983  0.6517199999999999  0.52841  1.0000
  H   H410      1.0  0.7471500000000001  0.6288099999999999  0.4446500000000001  1.0000
  H   H411      1.0  0.8069799999999998  0.7565700000000002  0.25554  1.0000
  H   H412      1.0  0.8029600000000001  0.85321  0.23003000000000007  1.0000
  H   H413      1.0  0.87523  0.75706  0.2983  1.0000
  H   H414      1.0  0.8413999999999999  0.7730700000000003  0.34936  1.0000
  H   H415      1.0  0.7953900000000002  0.72638  0.37478000000000006  1.0000
  H   H416      1.0  0.82911  0.71096  0.3233600000000001  1.0000
  H   H417      1.0  0.8095299999999999  0.9275700000000001  0.34716  1.0000
  H   H418      1.0  0.8029099999999999  0.87184  0.37784  1.0000
  H   H419      1.0  0.88484  0.9350400000000002  0.30598  1.0000
  H   H420      1.0  0.7670399999999998  0.9498000000000001  0.2541  1.0000
  H   H421      1.0  0.7872399999999997  0.9732199999999999  0.27295000000000014  1.0000
  H   H422      1.0  0.8649299999999996  0.94469  0.14794000000000002  1.0000
  H   H423      1.0  0.8105899999999998  0.9351000000000003  0.18216  1.0000
  H   H424      1.0  0.8596200000000003  0.98735  0.22773  1.0000
  H   H425      1.0  0.89265  0.97676  0.17376000000000005  1.0000
  H   H426      1.0  0.6008599999999997  0.5279200000000001  0.6512200000000002  1.0000
  H   H427      1.0  0.6788399999999998  0.4443900000000001  0.6284500000000002  1.0000
  H   H428      1.0  0.6797999999999998  0.25592  0.7568000000000003  1.0000
  H   H429      1.0  0.6137699999999999  0.23006999999999994  0.8531800000000002  1.0000
  H   H430      1.0  0.5694599999999999  0.29790999999999995  0.7563300000000001  1.0000
  H   H431      1.0  0.5370000000000001  0.34881  0.77266  1.0000
  H   H432      1.0  0.6035399999999999  0.3747799999999999  0.7263400000000002  1.0000
  H   H433      1.0  0.63598  0.32332000000000016  0.71096  1.0000
  H   H434      1.0  0.41558999999999985  0.3476199999999999  0.9280400000000002  1.0000
  H   H435      1.0  0.44675999999999993  0.37845999999999996  0.8724400000000002  1.0000
  H   H436      1.0  0.37408999999999987  0.30598999999999993  0.9350000000000003  1.0000
  H   H437      1.0  0.5288099999999998  0.25447  0.9501000000000002  1.0000
  H   H438      1.0  0.4671899999999999  0.27285999999999994  0.97311  1.0000
  H   H439      1.0  0.54176  0.14779  0.94455  1.0000
  H   H440      1.0  0.57103  0.1826199999999999  0.9355200000000002  1.0000
  H   H441      1.0  0.4262299999999999  0.22719999999999993  0.9868000000000002  1.0000
  H   H442      1.0  0.45682  0.17319000000000007  0.97625  1.0000
  H   H443      1.0  0.5281800000000001  0.60124  0.71931  1.0000
  H   H444      1.0  0.4449000000000001  0.67944  0.74743  1.0000
  H   H445      1.0  0.25608999999999993  0.6801000000000001  0.8074800000000002  1.0000
  H   H446      1.0  0.22955999999999985  0.61362  0.8026900000000002  1.0000
  H   H447      1.0  0.2983399999999998  0.57004  0.8752300000000001  1.0000
  H   H448      1.0  0.3490599999999999  0.53729  0.8410300000000003  1.0000
  H   H449      1.0  0.3751800000000001  0.6037199999999998  0.7957600000000002  1.0000
  H   H450      1.0  0.32396999999999976  0.6364300000000002  0.82978  1.0000
  H   H451      1.0  0.34706  0.41499999999999987  0.8093400000000002  1.0000
  H   H452      1.0  0.37815  0.44635999999999987  0.8034900000000003  1.0000
  H   H453      1.0  0.30555  0.37375000000000014  0.8846200000000002  1.0000
  H   H454      1.0  0.25457999999999986  0.5287999999999999  0.7674800000000002  1.0000
  H   H455      1.0  0.2728999999999998  0.4672000000000001  0.7872900000000003  1.0000
  H   H456      1.0  0.1483299999999999  0.5421900000000002  0.86538  1.0000
  H   H457      1.0  0.18283000000000002  0.57139  0.8112600000000001  1.0000
  H   H458      1.0  0.2275099999999999  0.42660999999999993  0.8591900000000002  1.0000
  H   H459      1.0  0.17374  0.45755  0.89256  1.0000
  H   H460      1.0  0.6512399999999999  0.71908  0.6009500000000002  1.0000
  H   H461      1.0  0.6290599999999998  0.7473799999999999  0.6794700000000002  1.0000
  H   H462      1.0  0.7571  0.8075100000000001  0.68013  1.0000
  H   H463      1.0  0.8536399999999996  0.8032900000000001  0.6142400000000001  1.0000
  H   H464      1.0  0.75694  0.87508  0.56997  1.0000
  H   H465      1.0  0.7725999999999996  0.8407500000000002  0.5370100000000002  1.0000
  H   H466      1.0  0.7258299999999996  0.7952200000000003  0.6030800000000002  1.0000
  H   H467      1.0  0.7110699999999999  0.8292200000000001  0.6360400000000003  1.0000
  H   H468      1.0  0.9279200000000001  0.80983  0.41545  1.0000
  H   H469      1.0  0.87205  0.80348  0.44637  1.0000
  H   H470      1.0  0.9355099999999998  0.8852  0.3744000000000001  1.0000
  H   H471      1.0  0.94959  0.76693  0.52832  1.0000
  H   H472      1.0  0.97262  0.78659  0.4667  1.0000
  H   H473      1.0  0.9449999999999996  0.8653200000000001  0.5421500000000002  1.0000
  H   H474      1.0  0.9354299999999997  0.8109900000000001  0.5710100000000002  1.0000
  H   H475      1.0  0.9867699999999999  0.85899  0.4262700000000001  1.0000
  H   H476      1.0  0.9766499999999999  0.89249  0.45755  1.0000
  H   H477      1.0  0.6516399999999996  0.5284700000000002  0.7198900000000003  1.0000
  H   H478      1.0  0.6288399999999998  0.44475000000000003  0.74706  1.0000
  H   H479      1.0  0.75662  0.2556000000000001  0.8069  1.0000
  H   H480      1.0  0.8533099999999999  0.22996999999999995  0.8028800000000003  1.0000
  H   H481      1.0  0.7570399999999997  0.2984  0.87519  1.0000
  H   H482      1.0  0.7729800000000001  0.3494299999999999  0.8414700000000003  1.0000
  H   H483      1.0  0.72626  0.37484999999999996  0.7954700000000001  1.0000
  H   H484      1.0  0.71091  0.3234699999999999  0.8291000000000002  1.0000
  H   H485      1.0  0.9276499999999998  0.34707000000000005  0.8095000000000002  1.0000
  H   H486      1.0  0.87186  0.37778999999999996  0.8029200000000002  1.0000
  H   H487      1.0  0.9351400000000002  0.3059199999999999  0.8847800000000002  1.0000
  H   H488      1.0  0.94972  0.25411  0.76711  1.0000
  H   H489      1.0  0.9731199999999999  0.27296  0.7873500000000002  1.0000
  H   H490      1.0  0.94471  0.14806  0.86485  1.0000
  H   H491      1.0  0.9350900000000001  0.18222999999999995  0.8105600000000002  1.0000
  H   H492      1.0  0.9872800000000002  0.22778000000000012  0.85968  1.0000
  H   H493      1.0  0.9767400000000002  0.17386  0.8926  1.0000
  H   H494      1.0  0.5279700000000005  0.65112  0.60086  1.0000
  H   H495      1.0  0.44442999999999994  0.6285100000000002  0.67877  1.0000
  H   H496      1.0  0.2559599999999999  0.7569  0.67971  1.0000
  H   H497      1.0  0.22996000000000005  0.85325  0.61383  1.0000
  H   H498      1.0  0.29798  0.75631  0.5694100000000002  1.0000
  H   H499      1.0  0.34886999999999996  0.7725499999999998  0.5370000000000003  1.0000
  H   H500      1.0  0.3748799999999998  0.7262499999999998  0.6034800000000002  1.0000
  H   H501      1.0  0.32341999999999993  0.71098  0.63588  1.0000
  H   H502      1.0  0.34753999999999974  0.9281100000000002  0.41565000000000013  1.0000
  H   H503      1.0  0.37844  0.8725  0.4467500000000001  1.0000
  H   H504      1.0  0.3058799999999997  0.93507  0.37413  1.0000
  H   H505      1.0  0.25453999999999993  0.9500699999999999  0.5287600000000002  1.0000
  H   H506      1.0  0.2729199999999999  0.9730000000000001  0.4671900000000001  1.0000
  H   H507      1.0  0.1478599999999999  0.94462  0.5416500000000001  1.0000
  H   H508      1.0  0.1826899999999999  0.93559  0.57092  1.0000
  H   H509      1.0  0.22723999999999997  0.9866999999999999  0.4262300000000001  1.0000
  H   H510      1.0  0.17322999999999994  0.97623  0.45679000000000003  1.0000
  H   H511      1.0  0.6011500000000002  0.71944  0.5282  1.0000
  H   H512      1.0  0.6793599999999999  0.7473700000000002  0.4450100000000001  1.0000
  H   H513      1.0  0.6800899999999998  0.80737  0.25616000000000005  1.0000
  H   H514      1.0  0.6136399999999999  0.8026100000000003  0.22958  1.0000
  H   H515      1.0  0.5699300000000002  0.87525  0.29844  1.0000
  H   H516      1.0  0.5372099999999999  0.8411500000000001  0.34910000000000013  1.0000
  H   H517      1.0  0.6036999999999999  0.7958299999999999  0.3751700000000001  1.0000
  H   H518      1.0  0.6363799999999998  0.8297600000000003  0.32403  1.0000
  H   H519      1.0  0.41508999999999985  0.8092600000000002  0.34701000000000004  1.0000
  H   H520      1.0  0.44644999999999985  0.80341  0.3781  1.0000
  H   H521      1.0  0.37376  0.88456  0.30557000000000006  1.0000
  H   H522      1.0  0.5288299999999999  0.76752  0.25453  1.0000
  H   H523      1.0  0.46718  0.78741  0.27284  1.0000
  H   H524      1.0  0.5421199999999999  0.8653100000000002  0.14845  1.0000
  H   H525      1.0  0.5714  0.81119  0.18287000000000003  1.0000
  H   H526      1.0  0.4265099999999999  0.85931  0.22754000000000005  1.0000
  H   H527      1.0  0.45745  0.89258  0.17383000000000004  1.0000
  H   H528      1.0  0.7191999999999998  0.6008900000000003  0.65115  1.0000
  H   H529      1.0  0.74738  0.67936  0.6291200000000002  1.0000
  H   H530      1.0  0.8074199999999999  0.68006  0.7572  1.0000
  H   H531      1.0  0.8032499999999997  0.6142900000000002  0.8536500000000002  1.0000
  H   H532      1.0  0.8751500000000001  0.5698599999999999  0.7569200000000003  1.0000
  H   H533      1.0  0.8408599999999996  0.5369500000000001  0.7725100000000003  1.0000
  H   H534      1.0  0.7952500000000001  0.6030199999999999  0.7258300000000002  1.0000
  H   H535      1.0  0.8291900000000002  0.63595  0.71114  1.0000
  H   H536      1.0  0.8097399999999999  0.4155599999999999  0.9279400000000002  1.0000
  H   H537      1.0  0.8033699999999999  0.44642999999999994  0.8721300000000001  1.0000
  H   H538      1.0  0.8851900000000001  0.37443999999999994  0.93551  1.0000
  H   H539      1.0  0.7669  0.52831  0.94962  1.0000
  H   H540      1.0  0.7866399999999999  0.46669999999999995  0.9725700000000003  1.0000
  H   H541      1.0  0.8652899999999999  0.54203  0.94508  1.0000
  H   H542      1.0  0.8109099999999998  0.5709400000000003  0.93553  1.0000
  H   H543      1.0  0.8591100000000002  0.4261999999999999  0.9867000000000002  1.0000
  H   H544      1.0  0.8925600000000001  0.45744  0.9766400000000001  1.0000
  H   H545      1.0  0.5284199999999998  0.7198199999999998  0.6517200000000002  1.0000
  H   H546      1.0  0.44466999999999995  0.7470500000000002  0.62893  1.0000
  H   H547      1.0  0.25558999999999993  0.80691  0.7566200000000002  1.0000
  H   H548      1.0  0.2299299999999997  0.8030100000000003  0.8532900000000002  1.0000
  H   H549      1.0  0.29829999999999973  0.8751700000000004  0.75716  1.0000
  H   H550      1.0  0.34936999999999985  0.8414  0.7730800000000002  1.0000
  H   H551      1.0  0.37488  0.7953399999999999  0.7263000000000002  1.0000
  H   H552      1.0  0.3234499999999998  0.829  0.7109900000000002  1.0000
  H   H553      1.0  0.34711  0.8096099999999999  0.9275400000000003  1.0000
  H   H554      1.0  0.37788  0.80291  0.8717700000000003  1.0000
  H   H555      1.0  0.3058699999999999  0.88491  0.9351200000000002  1.0000
  H   H556      1.0  0.25420999999999994  0.76698  0.9497100000000003  1.0000
  H   H557      1.0  0.2730099999999997  0.78724  0.97313  1.0000
  H   H558      1.0  0.14799999999999988  0.86484  0.9447900000000002  1.0000
  H   H559      1.0  0.18224999999999983  0.81051  0.9351000000000003  1.0000
  H   H560      1.0  0.2277199999999999  0.8596200000000004  0.98736  1.0000
  H   H561      1.0  0.17376  0.8925999999999997  0.9768500000000002  1.0000
  H   H562      1.0  0.6512000000000001  0.60092  0.52787  1.0000
  H   H563      1.0  0.6285  0.6787700000000001  0.4444300000000001  1.0000
  H   H564      1.0  0.75681  0.6797100000000001  0.25604  1.0000
  H   H565      1.0  0.85328  0.61371  0.23001000000000005  1.0000
  H   H566      1.0  0.7563599999999996  0.5694400000000002  0.2979100000000001  1.0000
  H   H567      1.0  0.7726400000000001  0.53706  0.34875  1.0000
  H   H568      1.0  0.72623  0.60361  0.37484  1.0000
  H   H569      1.0  0.7109099999999999  0.63597  0.3234300000000001  1.0000
  H   H570      1.0  0.92807  0.41555999999999993  0.3476100000000001  1.0000
  H   H571      1.0  0.8723999999999998  0.4467600000000002  0.37854000000000004  1.0000
  H   H572      1.0  0.9351100000000001  0.37401  0.30591  1.0000
  H   H573      1.0  0.9500000000000002  0.5288599999999999  0.2545600000000001  1.0000
  H   H574      1.0  0.9730099999999999  0.4672900000000001  0.27284  1.0000
  H   H575      1.0  0.9445899999999997  0.54166  0.14789000000000005  1.0000
  H   H576      1.0  0.93548  0.571  0.18274000000000007  1.0000
  H   H577      1.0  0.9867600000000001  0.42629  0.22714000000000006  1.0000
  H   H578      1.0  0.97628  0.4567900000000001  0.17318  1.0000
  H   H579      1.0  0.7193899999999999  0.5281000000000003  0.60124  1.0000
  H   H580      1.0  0.7474199999999998  0.44495  0.67934  1.0000
  H   H581      1.0  0.8074  0.2562200000000001  0.68003  1.0000
  H   H582      1.0  0.8027  0.22958000000000012  0.61355  1.0000
  H   H583      1.0  0.8752899999999999  0.29832999999999993  0.5699600000000002  1.0000
  H   H584      1.0  0.8411  0.3489800000000002  0.53729  1.0000
  H   H585      1.0  0.7957299999999999  0.37516  0.6037900000000003  1.0000
  H   H586      1.0  0.8297299999999999  0.3240199999999999  0.6364200000000002  1.0000
  H   H587      1.0  0.80929  0.34709000000000007  0.4150200000000001  1.0000
  H   H588      1.0  0.8033599999999999  0.37823  0.44642  1.0000
  H   H589      1.0  0.8846599999999999  0.30556  0.3736700000000001  1.0000
  H   H590      1.0  0.7673899999999998  0.25461000000000006  0.5288900000000001  1.0000
  H   H591      1.0  0.78731  0.27281999999999995  0.46729000000000004  1.0000
  H   H592      1.0  0.8653499999999998  0.14842000000000002  0.54208  1.0000
  H   H593      1.0  0.8111600000000001  0.18292999999999998  0.5713900000000001  1.0000
  H   H594      1.0  0.8592799999999998  0.22742999999999997  0.4266000000000001  1.0000
  H   H595      1.0  0.89263  0.17372  0.4574500000000001  1.0000
  H   H596      1.0  0.6008900000000001  0.65127  0.71913  1.0000
  H   H597      1.0  0.6794000000000001  0.62918  0.7473100000000001  1.0000
  H   H598      1.0  0.6801199999999996  0.75715  0.8074000000000002  1.0000
  H   H599      1.0  0.6141999999999996  0.8536500000000002  0.8033400000000003  1.0000
  H   H600      1.0  0.5698700000000001  0.75704  0.8750800000000002  1.0000
  H   H601      1.0  0.5369499999999999  0.7726299999999998  0.8408000000000002  1.0000
  H   H602      1.0  0.6031099999999999  0.72583  0.7951500000000002  1.0000
  H   H603      1.0  0.63604  0.7111499999999998  0.8291000000000002  1.0000
  H   H604      1.0  0.41549999999999976  0.9278500000000003  0.80986  1.0000
  H   H605      1.0  0.4464699999999998  0.8719999999999999  0.8034000000000002  1.0000
  H   H606      1.0  0.3743499999999999  0.9355199999999998  0.8852700000000002  1.0000
  H   H607      1.0  0.5283999999999999  0.9495599999999998  0.7668300000000001  1.0000
  H   H608      1.0  0.46674  0.97259  0.7866000000000002  1.0000
  H   H609      1.0  0.5420799999999998  0.9451100000000001  0.8652300000000003  1.0000
  H   H610      1.0  0.5710499999999997  0.9354699999999999  0.8108600000000002  1.0000
  H   H611      1.0  0.4261999999999998  0.9868100000000001  0.8590600000000003  1.0000
  H   H612      1.0  0.4574399999999997  0.9767500000000003  0.8925000000000001  1.0000
  H   H613      1.0  0.39914  0.34878  0.4720800000000001  1.0000
  H   H614      1.0  0.32116  0.37155  0.55562  1.0000
  H   H615      1.0  0.32019999999999993  0.24321  0.74408  1.0000
  H   H616      1.0  0.38623  0.14683000000000002  0.76993  1.0000
  H   H617      1.0  0.43054000000000003  0.24367000000000003  0.7021  1.0000
  H   H618      1.0  0.46299999999999997  0.2273399999999999  0.6512000000000002  1.0000
  H   H619      1.0  0.3964599999999999  0.27366000000000007  0.62522  1.0000
  H   H620      1.0  0.3640199999999999  0.28905000000000003  0.6766800000000002  1.0000
  H   H621      1.0  0.5844099999999998  0.07196000000000004  0.65238  1.0000
  H   H622      1.0  0.55324  0.12756999999999996  0.6215400000000002  1.0000
  H   H623      1.0  0.6259099999999997  0.06499999999999997  0.6940200000000001  1.0000
  H   H624      1.0  0.47119  0.049899999999999924  0.7455300000000002  1.0000
  H   H625      1.0  0.5328099999999999  0.026899999999999924  0.7271500000000002  1.0000
  H   H626      1.0  0.4582399999999999  0.05544999999999992  0.8522100000000002  1.0000
  H   H627      1.0  0.42896999999999985  0.06448999999999994  0.8173900000000002  1.0000
  H   H628      1.0  0.5737699999999998  0.013199999999999915  0.7728000000000003  1.0000
  H   H629      1.0  0.54318  0.02374999999999992  0.8268100000000003  1.0000
  H   H630      1.0  0.28016999999999975  0.47158999999999995  0.3482900000000001  1.0000
  H   H631      1.0  0.2528500000000001  0.55535  0.37119  1.0000
  H   H632      1.0  0.19302000000000005  0.74447  0.24344  1.0000
  H   H633      1.0  0.19703999999999988  0.7699700000000004  0.14679000000000003  1.0000
  H   H634      1.0  0.12476999999999994  0.70171  0.24294000000000004  1.0000
  H   H635      1.0  0.15859999999999996  0.65064  0.22693  1.0000
  H   H636      1.0  0.2046099999999999  0.6252200000000002  0.27362  1.0000
  H   H637      1.0  0.17089  0.67665  0.2890400000000001  1.0000
  H   H638      1.0  0.1904699999999999  0.6528400000000002  0.07243000000000002  1.0000
  H   H639      1.0  0.19708999999999996  0.62216  0.12816  1.0000
  H   H640      1.0  0.11516  0.6940199999999999  0.06497000000000003  1.0000
  H   H641      1.0  0.23296  0.7459000000000001  0.05021000000000001  1.0000
  H   H642      1.0  0.21275999999999998  0.72705  0.02678000000000001  1.0000
  H   H643      1.0  0.1350699999999999  0.8520600000000003  0.05532  1.0000
  H   H644      1.0  0.18940999999999997  0.81784  0.06491  1.0000
  H   H645      1.0  0.14038000000000003  0.77228  0.012650000000000003  1.0000
  H   H646      1.0  0.10734999999999995  0.82624  0.02325  1.0000
  H   H647      1.0  0.34875999999999996  0.3990500000000001  0.28093  1.0000
  H   H648      1.0  0.37093999999999994  0.3205400000000001  0.25262  1.0000
  H   H649      1.0  0.2429  0.3198800000000001  0.19250000000000006  1.0000
  H   H650      1.0  0.14635999999999985  0.3857600000000001  0.19671000000000005  1.0000
  H   H651      1.0  0.24305999999999997  0.43003  0.12492  1.0000
  H   H652      1.0  0.22740000000000005  0.46299000000000007  0.15925  1.0000
  H   H653      1.0  0.27417  0.39692  0.20479  1.0000
  H   H654      1.0  0.2889299999999999  0.36396  0.17079000000000005  1.0000
  H   H655      1.0  0.07208  0.58456  0.19017000000000006  1.0000
  H   H656      1.0  0.12794999999999984  0.5536300000000002  0.19652  1.0000
  H   H657      1.0  0.06449000000000006  0.62561  0.1148  1.0000
  H   H658      1.0  0.05040999999999986  0.47169000000000005  0.23308000000000006  1.0000
  H   H659      1.0  0.0273799999999999  0.5333000000000002  0.21341  1.0000
  H   H660      1.0  0.054999999999999924  0.4578600000000001  0.13468000000000002  1.0000
  H   H661      1.0  0.06456999999999997  0.4289900000000001  0.18901  1.0000
  H   H662      1.0  0.013229999999999974  0.57373  0.14101000000000005  1.0000
  H   H663      1.0  0.023349999999999812  0.5424600000000003  0.10752000000000003  1.0000
  H   H664      1.0  0.4718199999999999  0.28069  0.3987600000000001  1.0000
  H   H665      1.0  0.5551000000000001  0.25258  0.3205600000000001  1.0000
  H   H666      1.0  0.74391  0.19253  0.3199  1.0000
  H   H667      1.0  0.7704399999999999  0.19731  0.3863800000000001  1.0000
  H   H668      1.0  0.7016599999999998  0.12476999999999998  0.4299600000000001  1.0000
  H   H669      1.0  0.65094  0.15897999999999998  0.46271000000000007  1.0000
  H   H670      1.0  0.62482  0.20424  0.39628000000000013  1.0000
  H   H671      1.0  0.67603  0.17021999999999998  0.36357  1.0000
  H   H672      1.0  0.65294  0.19067000000000012  0.585  1.0000
  H   H673      1.0  0.6218499999999999  0.19651999999999997  0.5536500000000001  1.0000
  H   H674      1.0  0.6944500000000001  0.11537999999999997  0.62625  1.0000
  H   H675      1.0  0.7454199999999999  0.23252  0.47121000000000013  1.0000
  H   H676      1.0  0.7270999999999999  0.21271  0.5328  1.0000
  H   H677      1.0  0.8516699999999999  0.13462  0.4578100000000001  1.0000
  H   H678      1.0  0.81717  0.18873999999999996  0.4286200000000001  1.0000
  H   H679      1.0  0.7724899999999999  0.14081000000000007  0.57339  1.0000
  H   H680      1.0  0.8262599999999999  0.10743999999999997  0.5424500000000001  1.0000
  H   H681      1.0  0.3988499999999999  0.4718  0.2805600000000001  1.0000
  H   H682      1.0  0.32064000000000004  0.555  0.25264  1.0000
  H   H683      1.0  0.31990999999999986  0.7438500000000001  0.19264000000000003  1.0000
  H   H684      1.0  0.38635999999999976  0.7704200000000002  0.19739000000000007  1.0000
  H   H685      1.0  0.43006999999999995  0.7015600000000002  0.12475  1.0000
  H   H686      1.0  0.4627899999999999  0.65091  0.15886  1.0000
  H   H687      1.0  0.3963  0.62483  0.20417000000000005  1.0000
  H   H688      1.0  0.36361999999999994  0.67597  0.17024  1.0000
  H   H689      1.0  0.58491  0.653  0.19074000000000005  1.0000
  H   H690      1.0  0.5535499999999999  0.6219000000000002  0.19659000000000004  1.0000
  H   H691      1.0  0.6262400000000002  0.6944399999999998  0.11544000000000003  1.0000
  H   H692      1.0  0.47117  0.74547  0.23249000000000003  1.0000
  H   H693      1.0  0.53282  0.72716  0.2126  1.0000
  H   H694      1.0  0.4578800000000002  0.85156  0.1347  1.0000
  H   H695      1.0  0.4285999999999998  0.8171400000000002  0.18881000000000006  1.0000
  H   H696      1.0  0.5734900000000002  0.77247  0.14069000000000007  1.0000
  H   H697      1.0  0.5425499999999999  0.8261700000000002  0.10743  1.0000
  H   H698      1.0  0.2808  0.34884999999999994  0.39911000000000013  1.0000
  H   H699      1.0  0.25262  0.3708800000000001  0.32064000000000004  1.0000
  H   H700      1.0  0.19257999999999997  0.24280000000000002  0.31994  1.0000
  H   H701      1.0  0.19675000000000004  0.14634999999999995  0.3857100000000001  1.0000
  H   H702      1.0  0.12484999999999992  0.24308000000000002  0.43014000000000013  1.0000
  H   H703      1.0  0.15913999999999992  0.22748999999999997  0.46305000000000013  1.0000
  H   H704      1.0  0.2047499999999999  0.2741799999999999  0.3969800000000001  1.0000
  H   H705      1.0  0.1708099999999999  0.28886  0.3640600000000001  1.0000
  H   H706      1.0  0.19025999999999993  0.07205999999999992  0.5844500000000002  1.0000
  H   H707      1.0  0.19662999999999986  0.12787999999999994  0.5535800000000002  1.0000
  H   H708      1.0  0.11480999999999994  0.06448999999999996  0.6255600000000002  1.0000
  H   H709      1.0  0.23309999999999992  0.05037999999999996  0.4716900000000001  1.0000
  H   H710      1.0  0.2133599999999999  0.02742999999999991  0.5333000000000002  1.0000
  H   H711      1.0  0.13470999999999994  0.05491999999999996  0.4579700000000001  1.0000
  H   H712      1.0  0.18909  0.06447000000000006  0.42906  1.0000
  H   H713      1.0  0.14089  0.013299999999999998  0.5738  1.0000
  H   H714      1.0  0.10743999999999998  0.023359999999999985  0.54256  1.0000
  H   H715      1.0  0.34836  0.28011  0.4715400000000001  1.0000
  H   H716      1.0  0.37115999999999993  0.2529500000000001  0.55525  1.0000
  H   H717      1.0  0.24337999999999993  0.19309999999999994  0.7444000000000002  1.0000
  H   H718      1.0  0.14669  0.19711999999999996  0.77003  1.0000
  H   H719      1.0  0.24296000000000006  0.12481  0.7016  1.0000
  H   H720      1.0  0.22701999999999994  0.1585400000000001  0.65058  1.0000
  H   H721      1.0  0.27374  0.20452999999999996  0.62516  1.0000
  H   H722      1.0  0.2890899999999999  0.17090000000000002  0.6765300000000002  1.0000
  H   H723      1.0  0.0723499999999999  0.19049999999999995  0.6529400000000002  1.0000
  H   H724      1.0  0.12813999999999995  0.19707999999999995  0.6222100000000003  1.0000
  H   H725      1.0  0.06486000000000007  0.11521999999999998  0.69408  1.0000
  H   H726      1.0  0.050279999999999984  0.23289  0.74589  1.0000
  H   H727      1.0  0.02687999999999988  0.21265000000000003  0.7270500000000002  1.0000
  H   H728      1.0  0.055289999999999964  0.13515  0.85194  1.0000
  H   H729      1.0  0.06490999999999987  0.18944  0.8177700000000002  1.0000
  H   H730      1.0  0.012719999999999947  0.14033  0.77222  1.0000
  H   H731      1.0  0.023259999999999902  0.1074  0.8261400000000002  1.0000
  H   H732      1.0  0.4720299999999998  0.3991400000000001  0.3488900000000001  1.0000
  H   H733      1.0  0.5555699999999999  0.32122999999999996  0.3715000000000001  1.0000
  H   H734      1.0  0.7440399999999999  0.32029000000000013  0.2431  1.0000
  H   H735      1.0  0.77003  0.3861700000000001  0.14675000000000005  1.0000
  H   H736      1.0  0.7020199999999996  0.43059  0.24370000000000006  1.0000
  H   H737      1.0  0.65113  0.46301000000000003  0.22745000000000007  1.0000
  H   H738      1.0  0.62512  0.39652  0.2737500000000001  1.0000
  H   H739      1.0  0.6765799999999998  0.36412  0.28903000000000006  1.0000
  H   H740      1.0  0.6524599999999999  0.5843500000000003  0.0719  1.0000
  H   H741      1.0  0.6215599999999999  0.55325  0.12751000000000004  1.0000
  H   H742      1.0  0.6941199999999998  0.62587  0.06493  1.0000
  H   H743      1.0  0.7454599999999998  0.4712400000000001  0.049930000000000016  1.0000
  H   H744      1.0  0.72708  0.53281  0.027  1.0000
  H   H745      1.0  0.8521399999999999  0.45835  0.05538000000000001  1.0000
  H   H746      1.0  0.8173099999999999  0.42908000000000013  0.06442  1.0000
  H   H747      1.0  0.7727599999999999  0.57378  0.013300000000000003  1.0000
  H   H748      1.0  0.82677  0.54321  0.02377  1.0000
  H   H749      1.0  0.39910999999999985  0.2808700000000001  0.34873  1.0000
  H   H750      1.0  0.3206  0.25269  0.3708200000000001  1.0000
  H   H751      1.0  0.31988  0.19259999999999994  0.24285000000000007  1.0000
  H   H752      1.0  0.3858  0.19665999999999997  0.14635000000000006  1.0000
  H   H753      1.0  0.43012999999999996  0.12491999999999998  0.24296000000000006  1.0000
  H   H754      1.0  0.46304999999999985  0.1592  0.22737000000000004  1.0000
  H   H755      1.0  0.39688999999999985  0.20485  0.2741700000000001  1.0000
  H   H756      1.0  0.36396000000000006  0.17090999999999995  0.2888500000000001  1.0000
  H   H757      1.0  0.5844999999999999  0.19014  0.07215  1.0000
  H   H758      1.0  0.55353  0.19661  0.128  1.0000
  H   H759      1.0  0.6256499999999999  0.11473000000000001  0.06448  1.0000
  H   H760      1.0  0.47159999999999996  0.23317000000000004  0.05044  1.0000
  H   H761      1.0  0.53326  0.21341000000000004  0.027420000000000003  1.0000
  H   H762      1.0  0.45792  0.13478  0.054890000000000015  1.0000
  H   H763      1.0  0.42894999999999994  0.18914  0.06453  1.0000
  H   H764      1.0  0.5738  0.14095  0.0132  1.0000
  H   H765      1.0  0.54256  0.1075  0.02325  1.0000
  H   H766      1.0  0.2806099999999999  0.39876000000000006  0.47191  1.0000
  H   H767      1.0  0.2525799999999999  0.32065999999999995  0.5550500000000002  1.0000
  H   H768      1.0  0.1925999999999999  0.3199699999999999  0.7437900000000002  1.0000
  H   H769      1.0  0.1973  0.3864599999999999  0.7704200000000002  1.0000
  H   H770      1.0  0.1247099999999999  0.4300499999999999  0.7016700000000002  1.0000
  H   H771      1.0  0.15889999999999996  0.46271  0.6510200000000003  1.0000
  H   H772      1.0  0.2042699999999999  0.39621  0.6248400000000001  1.0000
  H   H773      1.0  0.17027  0.36358  0.67598  1.0000
  H   H774      1.0  0.19070999999999985  0.5849800000000003  0.65291  1.0000
  H   H775      1.0  0.19663999999999998  0.5535899999999999  0.6217700000000003  1.0000
  H   H776      1.0  0.11533999999999998  0.6263299999999999  0.6944500000000002  1.0000
  H   H777      1.0  0.23260999999999982  0.47110999999999986  0.7453900000000002  1.0000
  H   H778      1.0  0.21268999999999993  0.5327100000000002  0.72718  1.0000
  H   H779      1.0  0.1346499999999999  0.45791999999999994  0.8515800000000002  1.0000
  H   H780      1.0  0.1888399999999999  0.42862  0.8170800000000003  1.0000
  H   H781      1.0  0.14071999999999996  0.5734000000000001  0.77258  1.0000
  H   H782      1.0  0.1073699999999998  0.5425500000000002  0.8262800000000001  1.0000
  H   H783      1.0  0.34879999999999983  0.47213000000000016  0.39908  1.0000
  H   H784      1.0  0.37149999999999994  0.55557  0.3212300000000001  1.0000
  H   H785      1.0  0.24318999999999982  0.74396  0.32029000000000013  1.0000
  H   H786      1.0  0.14672000000000002  0.76999  0.3863  1.0000
  H   H787      1.0  0.24363999999999997  0.7021000000000001  0.43057  1.0000
  H   H788      1.0  0.22735999999999978  0.6512500000000002  0.46294000000000013  1.0000
  H   H789      1.0  0.2737699999999999  0.62516  0.3964000000000001  1.0000
  H   H790      1.0  0.2890899999999999  0.6765800000000001  0.36403000000000013  1.0000
  H   H791      1.0  0.07192999999999992  0.6523900000000002  0.58444  1.0000
  H   H792      1.0  0.12759999999999994  0.62147  0.55325  1.0000
  H   H793      1.0  0.0648899999999999  0.6940900000000001  0.62599  1.0000
  H   H794      1.0  0.05000000000000006  0.7454399999999999  0.47114  1.0000
  H   H795      1.0  0.026989999999999858  0.72716  0.5327200000000001  1.0000
  H   H796      1.0  0.05541000000000003  0.85212  0.45834  1.0000
  H   H797      1.0  0.06451000000000001  0.81726  0.42901  1.0000
  H   H798      1.0  0.013239999999999877  0.77286  0.5737100000000003  1.0000
  H   H799      1.0  0.023719999999999946  0.8268299999999998  0.5432100000000001  1.0000
  H   H800      1.0  0.47158  0.34828  0.28018  1.0000
  H   H801      1.0  0.55533  0.37108  0.25296  1.0000
  H   H802      1.0  0.7444100000000001  0.2433800000000001  0.1931  1.0000
  H   H803      1.0  0.7700699999999999  0.14671  0.19699000000000005  1.0000
  H   H804      1.0  0.7017  0.24284999999999998  0.12484000000000003  1.0000
  H   H805      1.0  0.65063  0.22692  0.15861  1.0000
  H   H806      1.0  0.6251199999999999  0.2737  0.20466000000000004  1.0000
  H   H807      1.0  0.67655  0.28902  0.171  1.0000
  H   H808      1.0  0.6528899999999999  0.07246000000000001  0.1904  1.0000
  H   H809      1.0  0.62212  0.12823000000000004  0.19709000000000004  1.0000
  H   H810      1.0  0.69413  0.06488  0.11509000000000003  1.0000
  H   H811      1.0  0.74579  0.05029999999999998  0.23302000000000006  1.0000
  H   H812      1.0  0.7269899999999999  0.026869999999999984  0.21276000000000006  1.0000
  H   H813      1.0  0.8520000000000001  0.05522  0.13516  1.0000
  H   H814      1.0  0.8177500000000001  0.06489999999999999  0.18950000000000006  1.0000
  H   H815      1.0  0.7722799999999999  0.012639999999999988  0.14038000000000003  1.0000
  H   H816      1.0  0.82624  0.023159999999999997  0.10740000000000002  1.0000
  C   C1        1.0  0.16071999999999995  0.22922  0.67991  1.0000
  C   C2        1.0  0.19073000000000007  0.25937  0.66341  1.0000
  C   C3        1.0  0.17634999999999998  0.10774999999999993  0.6304200000000002  1.0000
  C   C4        1.0  0.21585999999999986  0.02501999999999996  0.7578600000000002  1.0000
  C   C5        1.0  0.1707899999999999  0.04084999999999996  0.8303800000000002  1.0000
  C   C6        1.0  0.14302000000000006  0.009869999999999981  0.80382  1.0000
  C   C7        1.0  0.42982999999999993  0.6802899999999998  0.22962000000000005  1.0000
  C   C8        1.0  0.38663999999999993  0.66345  0.25941  1.0000
  C   C9        1.0  0.58577  0.63004  0.10735000000000003  1.0000
  C   C10       1.0  0.50112  0.75778  0.02491000000000001  1.0000
  C   C11       1.0  0.45866  0.83029  0.040740000000000005  1.0000
  C   C12       1.0  0.5429099999999999  0.80427  0.010270000000000003  1.0000
  C   C13       1.0  0.6799999999999999  0.4294900000000001  0.16083  1.0000
  C   C14       1.0  0.66308  0.38637  0.1904  1.0000
  C   C15       1.0  0.63037  0.58613  0.17623  1.0000
  C   C16       1.0  0.7577399999999997  0.50114  0.21569  1.0000
  C   C17       1.0  0.8300099999999997  0.45839  0.17037000000000005  1.0000
  C   C18       1.0  0.80397  0.54256  0.1432  1.0000
  C   C19       1.0  0.22943999999999995  0.16100000000000006  0.42967000000000005  1.0000
  C   C20       1.0  0.2595300000000001  0.19080999999999998  0.38677000000000006  1.0000
  C   C21       1.0  0.10752999999999996  0.17605999999999997  0.58598  1.0000
  C   C22       1.0  0.025309999999999996  0.2161  0.50152  1.0000
  C   C23       1.0  0.04058  0.17046999999999995  0.4585100000000001  1.0000
  C   C24       1.0  0.010109999999999985  0.14328999999999997  0.54268  1.0000
  C   C25       1.0  0.22924999999999995  0.67985  0.16072  1.0000
  C   C26       1.0  0.25942  0.66335  0.19071000000000005  1.0000
  C   C27       1.0  0.10771999999999997  0.63048  0.17635000000000006  1.0000
  C   C28       1.0  0.02508000000000002  0.75786  0.21580000000000005  1.0000
  C   C29       1.0  0.04082999999999989  0.8303200000000002  0.17084000000000002  1.0000
  C   C30       1.0  0.009899999999999931  0.80377  0.14302000000000004  1.0000
  C   C31       1.0  0.6802399999999998  0.22967000000000004  0.42985  1.0000
  C   C32       1.0  0.6633800000000001  0.25943  0.3867000000000001  1.0000
  C   C33       1.0  0.6300799999999999  0.10730999999999995  0.5857500000000002  1.0000
  C   C34       1.0  0.7577299999999999  0.024959999999999993  0.50114  1.0000
  C   C35       1.0  0.8302499999999999  0.04068999999999997  0.45873000000000014  1.0000
  C   C36       1.0  0.8042299999999998  0.010319999999999944  0.5429300000000002  1.0000
  C   C37       1.0  0.42956000000000005  0.16077999999999998  0.67995  1.0000
  C   C38       1.0  0.38639999999999997  0.19038000000000002  0.66306  1.0000
  C   C39       1.0  0.5860599999999999  0.17627999999999994  0.6304200000000002  1.0000
  C   C40       1.0  0.50113  0.21563999999999992  0.7577800000000002  1.0000
  C   C41       1.0  0.4584  0.17042999999999991  0.8299700000000001  1.0000
  C   C42       1.0  0.5426299999999998  0.14314999999999992  0.8039300000000003  1.0000
  C   C43       1.0  0.16093  0.42972999999999995  0.22947000000000004  1.0000
  C   C44       1.0  0.19079999999999991  0.38683000000000006  0.2595100000000001  1.0000
  C   C45       1.0  0.17612999999999995  0.58592  0.10750000000000003  1.0000
  C   C46       1.0  0.21609999999999993  0.50152  0.02532  1.0000
  C   C47       1.0  0.17050999999999994  0.4585700000000001  0.04051000000000001  1.0000
  C   C48       1.0  0.14321999999999982  0.5427300000000003  0.01014  1.0000
  C   C49       1.0  0.6799  0.16075000000000006  0.22919  1.0000
  C   C50       1.0  0.6633399999999999  0.19079  0.25939  1.0000
  C   C51       1.0  0.63042  0.17632  0.10779000000000001  1.0000
  C   C52       1.0  0.75781  0.21587  0.025090000000000008  1.0000
  C   C53       1.0  0.83033  0.17086  0.04081000000000001  1.0000
  C   C54       1.0  0.80382  0.14304  0.009830000000000004  1.0000
  C   C55       1.0  0.22963000000000006  0.4298100000000001  0.68031  1.0000
  C   C56       1.0  0.25945999999999997  0.38662  0.66339  1.0000
  C   C57       1.0  0.10735999999999994  0.58578  0.6300200000000002  1.0000
  C   C58       1.0  0.02497999999999992  0.50106  0.7577500000000001  1.0000
  C   C59       1.0  0.04073999999999987  0.45870999999999995  0.8302200000000002  1.0000
  C   C60       1.0  0.010269999999999863  0.5429  0.8043000000000002  1.0000
  C   C61       1.0  0.1607799999999999  0.68003  0.4295200000000001  1.0000
  C   C62       1.0  0.19041999999999992  0.66307  0.38635000000000014  1.0000
  C   C63       1.0  0.17628000000000008  0.63034  0.5861  1.0000
  C   C64       1.0  0.21570999999999982  0.7577600000000002  0.5010700000000001  1.0000
  C   C65       1.0  0.17041999999999985  0.8299500000000002  0.45842  1.0000
  C   C66       1.0  0.14313999999999988  0.8040100000000002  0.54259  1.0000
  C   C67       1.0  0.42971999999999994  0.22940000000000008  0.16098000000000007  1.0000
  C   C68       1.0  0.38676  0.25951  0.19087  1.0000
  C   C69       1.0  0.58592  0.10757999999999998  0.17608000000000004  1.0000
  C   C70       1.0  0.5014699999999999  0.025339999999999974  0.21613000000000004  1.0000
  C   C71       1.0  0.45852  0.04052999999999999  0.17055  1.0000
  C   C72       1.0  0.5427299999999999  0.010059999999999987  0.14326000000000005  1.0000
  C   C73       1.0  0.5701699999999998  0.7703800000000002  0.3197100000000001  1.0000
  C   C74       1.0  0.6133599999999999  0.74059  0.33655  1.0000
  C   C75       1.0  0.41422999999999993  0.8926500000000002  0.36997000000000013  1.0000
  C   C76       1.0  0.4988799999999998  0.97509  0.24223000000000006  1.0000
  C   C77       1.0  0.54134  0.95926  0.16971000000000003  1.0000
  C   C78       1.0  0.45708999999999994  0.9897300000000002  0.19574  1.0000
  C   C79       1.0  0.83928  0.32008999999999993  0.7707900000000002  1.0000
  C   C80       1.0  0.8092699999999999  0.3365899999999999  0.7406300000000002  1.0000
  C   C81       1.0  0.8236500000000001  0.3695899999999999  0.8922500000000002  1.0000
  C   C82       1.0  0.7841399999999998  0.2421399999999999  0.9749800000000002  1.0000
  C   C83       1.0  0.8292099999999999  0.16962999999999995  0.9591600000000002  1.0000
  C   C84       1.0  0.8569799999999996  0.1961799999999999  0.9901300000000002  1.0000
  C   C85       1.0  0.77056  0.57033  0.8390100000000001  1.0000
  C   C86       1.0  0.74047  0.61323  0.80919  1.0000
  C   C87       1.0  0.8924699999999999  0.41402  0.8239400000000002  1.0000
  C   C88       1.0  0.9746899999999998  0.4984900000000001  0.7839000000000003  1.0000
  C   C89       1.0  0.9594199999999999  0.54149  0.8295300000000002  1.0000
  C   C90       1.0  0.98989  0.45733  0.8567100000000002  1.0000
  C   C91       1.0  0.3199999999999997  0.83917  0.57051  1.0000
  C   C92       1.0  0.33691999999999983  0.80961  0.6136400000000002  1.0000
  C   C93       1.0  0.36963000000000007  0.8237799999999998  0.41387000000000007  1.0000
  C   C94       1.0  0.24225999999999986  0.7843100000000001  0.49886  1.0000
  C   C95       1.0  0.16998999999999995  0.8296300000000001  0.5416200000000001  1.0000
  C   C96       1.0  0.19602999999999987  0.8568000000000002  0.45744000000000007  1.0000
  C   C97       1.0  0.57044  0.32004999999999995  0.8392200000000002  1.0000
  C   C98       1.0  0.6136  0.33693999999999996  0.8096200000000001  1.0000
  C   C99       1.0  0.4139399999999999  0.36958999999999986  0.8237300000000002  1.0000
  C   C100      1.0  0.4988699999999999  0.24222000000000002  0.78436  1.0000
  C   C101      1.0  0.5416  0.17004000000000002  0.82958  1.0000
  C   C102      1.0  0.4573699999999999  0.19606999999999997  0.8568500000000002  1.0000
  C   C103      1.0  0.8390699999999998  0.77053  0.57027  1.0000
  C   C104      1.0  0.8092  0.7404900000000001  0.6131700000000002  1.0000
  C   C105      1.0  0.82387  0.8925  0.41408  1.0000
  C   C106      1.0  0.7839  0.97469  0.4984900000000001  1.0000
  C   C107      1.0  0.8294899999999996  0.95949  0.54143  1.0000
  C   C108      1.0  0.8567799999999997  0.9898600000000001  0.4572700000000001  1.0000
  C   C109      1.0  0.7707499999999998  0.8392900000000002  0.32015  1.0000
  C   C110      1.0  0.74058  0.80929  0.33665  1.0000
  C   C111      1.0  0.8922799999999996  0.8236500000000001  0.36953  1.0000
  C   C112      1.0  0.97492  0.7842  0.24215000000000006  1.0000
  C   C113      1.0  0.9591699999999997  0.8291700000000002  0.16968000000000005  1.0000
  C   C114      1.0  0.9900999999999996  0.8569800000000002  0.19623000000000004  1.0000
  C   C115      1.0  0.31976  0.5701499999999999  0.7703400000000002  1.0000
  C   C116      1.0  0.33662000000000003  0.6132999999999998  0.7405700000000002  1.0000
  C   C117      1.0  0.36991999999999975  0.41424999999999995  0.8927  1.0000
  C   C118      1.0  0.24227000000000004  0.4988600000000001  0.9750400000000001  1.0000
  C   C119      1.0  0.16974999999999982  0.5412700000000001  0.9593200000000002  1.0000
  C   C120      1.0  0.19576999999999997  0.45708000000000004  0.98969  1.0000
  C   C121      1.0  0.5702799999999998  0.83902  0.7706000000000001  1.0000
  C   C122      1.0  0.6132299999999997  0.80913  0.7405000000000002  1.0000
  C   C123      1.0  0.41408000000000006  0.82392  0.8924200000000001  1.0000
  C   C124      1.0  0.49853  0.7838700000000001  0.9746600000000002  1.0000
  C   C125      1.0  0.5414799999999999  0.8294600000000001  0.95947  1.0000
  C   C126      1.0  0.4572699999999998  0.8567400000000001  0.9899400000000003  1.0000
  C   C127      1.0  0.8392199999999999  0.57048  0.31997  1.0000
  C   C128      1.0  0.8095799999999999  0.6136500000000003  0.33694000000000013  1.0000
  C   C129      1.0  0.8237199999999997  0.4139  0.36966  1.0000
  C   C130      1.0  0.7842899999999999  0.49893000000000004  0.24224000000000004  1.0000
  C   C131      1.0  0.8295799999999999  0.54158  0.17005000000000006  1.0000
  C   C132      1.0  0.85686  0.45741  0.19599000000000005  1.0000
  C   C133      1.0  0.77037  0.3197000000000001  0.57019  1.0000
  C   C134      1.0  0.7405399999999996  0.33661000000000024  0.61338  1.0000
  C   C135      1.0  0.8926399999999999  0.36998  0.4142300000000001  1.0000
  C   C136      1.0  0.9750200000000001  0.2422500000000001  0.49894  1.0000
  C   C137      1.0  0.9592599999999999  0.16979000000000002  0.54129  1.0000
  C   C138      1.0  0.98973  0.19570999999999994  0.4571000000000001  1.0000
  C   C139      1.0  0.32010000000000005  0.77082  0.83925  1.0000
  C   C140      1.0  0.3366599999999999  0.7406200000000002  0.80921  1.0000
  C   C141      1.0  0.3695800000000001  0.8922199999999999  0.82368  1.0000
  C   C142      1.0  0.24219000000000004  0.9749099999999999  0.7841300000000002  1.0000
  C   C143      1.0  0.16966999999999988  0.9592000000000002  0.8291400000000002  1.0000
  C   C144      1.0  0.19617999999999994  0.99017  0.8569600000000003  1.0000
  C   C145      1.0  0.8392799999999998  0.7707900000000002  0.32009  1.0000
  C   C146      1.0  0.80927  0.74063  0.33659  1.0000
  C   C147      1.0  0.8236499999999999  0.8922500000000002  0.36959  1.0000
  C   C148      1.0  0.7841400000000001  0.97498  0.24214000000000005  1.0000
  C   C149      1.0  0.8292099999999998  0.9591600000000002  0.16963000000000006  1.0000
  C   C150      1.0  0.85698  0.99013  0.19618  1.0000
  C   C151      1.0  0.5701699999999998  0.31970999999999994  0.7703800000000002  1.0000
  C   C152      1.0  0.6133599999999999  0.33654999999999996  0.7405900000000002  1.0000
  C   C153      1.0  0.41422999999999977  0.36997000000000013  0.8926500000000003  1.0000
  C   C154      1.0  0.49888000000000005  0.2422299999999999  0.9750900000000002  1.0000
  C   C155      1.0  0.5413399999999999  0.16970999999999994  0.9592600000000002  1.0000
  C   C156      1.0  0.45708999999999994  0.1957400000000001  0.98973  1.0000
  C   C157      1.0  0.3200000000000002  0.57051  0.83917  1.0000
  C   C158      1.0  0.3369199999999999  0.61364  0.8096100000000003  1.0000
  C   C159      1.0  0.36962999999999985  0.41387  0.8237700000000002  1.0000
  C   C160      1.0  0.24225999999999978  0.49885999999999997  0.7843100000000002  1.0000
  C   C161      1.0  0.16998999999999995  0.54162  0.8296300000000002  1.0000
  C   C162      1.0  0.19603  0.45744000000000007  0.8568  1.0000
  C   C163      1.0  0.77056  0.8390100000000001  0.57033  1.0000
  C   C164      1.0  0.7404699999999996  0.80919  0.6132300000000003  1.0000
  C   C165      1.0  0.8924699999999999  0.8239400000000002  0.41402  1.0000
  C   C166      1.0  0.97469  0.7839  0.4984900000000001  1.0000
  C   C167      1.0  0.9594199999999999  0.8295300000000001  0.5414900000000002  1.0000
  C   C168      1.0  0.9898900000000003  0.85671  0.4573300000000001  1.0000
  C   C169      1.0  0.77075  0.32015  0.83929  1.0000
  C   C170      1.0  0.74058  0.3366500000000001  0.80929  1.0000
  C   C171      1.0  0.8922799999999996  0.36952999999999997  0.8236500000000002  1.0000
  C   C172      1.0  0.97492  0.24215000000000012  0.7842  1.0000
  C   C173      1.0  0.9591699999999997  0.16967999999999994  0.8291700000000002  1.0000
  C   C174      1.0  0.9900999999999996  0.19622999999999996  0.8569800000000002  1.0000
  C   C175      1.0  0.31975999999999966  0.7703400000000002  0.57015  1.0000
  C   C176      1.0  0.33662000000000003  0.74057  0.6133  1.0000
  C   C177      1.0  0.36991999999999986  0.8927000000000003  0.4142500000000001  1.0000
  C   C178      1.0  0.2422700000000001  0.9750399999999999  0.49886  1.0000
  C   C179      1.0  0.16975  0.95932  0.54127  1.0000
  C   C180      1.0  0.19576999999999983  0.9896900000000001  0.4570800000000001  1.0000
  C   C181      1.0  0.5704399999999998  0.83922  0.32005  1.0000
  C   C182      1.0  0.6136  0.80963  0.33694000000000013  1.0000
  C   C183      1.0  0.41393999999999986  0.82373  0.36959  1.0000
  C   C184      1.0  0.49887000000000004  0.78436  0.24222000000000005  1.0000
  C   C185      1.0  0.5416  0.8295800000000002  0.17004000000000005  1.0000
  C   C186      1.0  0.45736999999999994  0.85685  0.19607  1.0000
  C   C187      1.0  0.8390699999999998  0.57027  0.7705300000000003  1.0000
  C   C188      1.0  0.8091999999999999  0.6131699999999999  0.7404900000000002  1.0000
  C   C189      1.0  0.82387  0.41408000000000006  0.8925000000000001  1.0000
  C   C190      1.0  0.7838999999999998  0.49849  0.97469  1.0000
  C   C191      1.0  0.82949  0.54143  0.95949  1.0000
  C   C192      1.0  0.85678  0.45727  0.9898600000000002  1.0000
  C   C193      1.0  0.3200999999999998  0.8392500000000004  0.77082  1.0000
  C   C194      1.0  0.3366599999999999  0.8092100000000001  0.7406200000000001  1.0000
  C   C195      1.0  0.3695800000000001  0.8236799999999999  0.8922200000000002  1.0000
  C   C196      1.0  0.24218999999999993  0.78413  0.9749100000000003  1.0000
  C   C197      1.0  0.16966999999999988  0.82914  0.9592000000000003  1.0000
  C   C198      1.0  0.1961799999999999  0.8569599999999999  0.9901700000000002  1.0000
  C   C199      1.0  0.77037  0.5701899999999999  0.3197000000000001  1.0000
  C   C200      1.0  0.7405399999999996  0.6133800000000003  0.33661  1.0000
  C   C201      1.0  0.8926399999999999  0.4142299999999999  0.3699800000000001  1.0000
  C   C202      1.0  0.9750199999999999  0.49894  0.24225000000000005  1.0000
  C   C203      1.0  0.9592599999999999  0.54129  0.16979  1.0000
  C   C204      1.0  0.9897300000000002  0.4571  0.19571  1.0000
  C   C205      1.0  0.83922  0.31997000000000003  0.5704800000000002  1.0000
  C   C206      1.0  0.8095799999999997  0.33694  0.61365  1.0000
  C   C207      1.0  0.8237199999999998  0.36966  0.41390000000000005  1.0000
  C   C208      1.0  0.7842899999999999  0.24224  0.49893  1.0000
  C   C209      1.0  0.82958  0.17004999999999995  0.5415800000000002  1.0000
  C   C210      1.0  0.85686  0.19599000000000005  0.4574100000000001  1.0000
  C   C211      1.0  0.5702799999999997  0.7706000000000001  0.8390200000000002  1.0000
  C   C212      1.0  0.6132399999999998  0.7405000000000002  0.80913  1.0000
  C   C213      1.0  0.4140799999999999  0.8924200000000001  0.8239200000000002  1.0000
  C   C214      1.0  0.49853  0.9746599999999999  0.78387  1.0000
  C   C215      1.0  0.54148  0.9594700000000002  0.8294500000000002  1.0000
  C   C216      1.0  0.45727  0.9899399999999999  0.85674  1.0000
  C   C217      1.0  0.42983  0.22962  0.68029  1.0000
  C   C218      1.0  0.3866399999999999  0.2594100000000001  0.66345  1.0000
  C   C219      1.0  0.5857699999999999  0.10734999999999999  0.6300300000000001  1.0000
  C   C220      1.0  0.50112  0.02490999999999995  0.7577800000000002  1.0000
  C   C221      1.0  0.45865999999999996  0.04074000000000001  0.83029  1.0000
  C   C222      1.0  0.5429099999999999  0.010269999999999961  0.8042700000000003  1.0000
  C   C223      1.0  0.1607199999999998  0.6799100000000002  0.22922000000000006  1.0000
  C   C224      1.0  0.1907299999999999  0.6634200000000002  0.25937  1.0000
  C   C225      1.0  0.17634999999999987  0.6304200000000002  0.10775000000000003  1.0000
  C   C226      1.0  0.21586  0.75786  0.025020000000000004  1.0000
  C   C227      1.0  0.17078999999999997  0.83038  0.04085  1.0000
  C   C228      1.0  0.14301999999999998  0.80382  0.009870000000000004  1.0000
  C   C229      1.0  0.22943999999999992  0.4296700000000001  0.16100000000000006  1.0000
  C   C230      1.0  0.2595300000000002  0.38677  0.19081  1.0000
  C   C231      1.0  0.10752999999999983  0.5859800000000002  0.17606000000000005  1.0000
  C   C232      1.0  0.02530999999999993  0.5015200000000002  0.2161  1.0000
  C   C233      1.0  0.04058000000000001  0.4585099999999999  0.17047000000000004  1.0000
  C   C234      1.0  0.010110000000000037  0.54268  0.14329000000000006  1.0000
  C   C235      1.0  0.68  0.16083000000000006  0.4294900000000001  1.0000
  C   C236      1.0  0.66308  0.19040000000000004  0.38637  1.0000
  C   C237      1.0  0.63037  0.17622999999999994  0.5861300000000003  1.0000
  C   C238      1.0  0.75774  0.21569000000000002  0.50114  1.0000
  C   C239      1.0  0.8300100000000001  0.17036999999999997  0.45839  1.0000
  C   C240      1.0  0.8039699999999999  0.1432  0.54256  1.0000
  C   C241      1.0  0.42956  0.67995  0.16078  1.0000
  C   C242      1.0  0.38639999999999997  0.66306  0.19038000000000005  1.0000
  C   C243      1.0  0.5860599999999999  0.6304200000000002  0.17627000000000007  1.0000
  C   C244      1.0  0.5011300000000001  0.75778  0.21564  1.0000
  C   C245      1.0  0.4584000000000001  0.8299699999999999  0.17043000000000005  1.0000
  C   C246      1.0  0.54263  0.8039300000000003  0.14315  1.0000
  C   C247      1.0  0.16092999999999993  0.22946999999999998  0.42973  1.0000
  C   C248      1.0  0.19079999999999994  0.25951  0.38683000000000006  1.0000
  C   C249      1.0  0.17612999999999998  0.10749999999999998  0.58592  1.0000
  C   C250      1.0  0.21610000000000001  0.025319999999999974  0.50152  1.0000
  C   C251      1.0  0.17050999999999994  0.04050999999999995  0.4585700000000001  1.0000
  C   C252      1.0  0.14322  0.010150000000000055  0.54273  1.0000
  C   C253      1.0  0.22925000000000006  0.16072000000000003  0.67985  1.0000
  C   C254      1.0  0.25941999999999993  0.19071  0.66335  1.0000
  C   C255      1.0  0.10771999999999987  0.17634999999999995  0.6304800000000003  1.0000
  C   C256      1.0  0.02507999999999988  0.2157999999999999  0.7578600000000002  1.0000
  C   C257      1.0  0.040829999999999936  0.17083999999999994  0.8303200000000002  1.0000
  C   C258      1.0  0.009899999999999944  0.14301999999999995  0.8037700000000002  1.0000
  C   C259      1.0  0.6802399999999998  0.42985000000000007  0.22967000000000007  1.0000
  C   C260      1.0  0.66338  0.3867  0.25943  1.0000
  C   C261      1.0  0.63008  0.5857500000000001  0.10731000000000003  1.0000
  C   C262      1.0  0.75773  0.50114  0.024960000000000006  1.0000
  C   C263      1.0  0.8302499999999999  0.45873000000000014  0.04068  1.0000
  C   C264      1.0  0.80423  0.54293  0.010320000000000003  1.0000
  C   C265      1.0  0.42972000000000005  0.16097999999999998  0.22940000000000005  1.0000
  C   C266      1.0  0.38677  0.19087  0.25950000000000006  1.0000
  C   C267      1.0  0.58592  0.17608  0.10758000000000002  1.0000
  C   C268      1.0  0.5014699999999999  0.21613  0.02534000000000001  1.0000
  C   C269      1.0  0.4585199999999999  0.17055000000000006  0.04053000000000001  1.0000
  C   C270      1.0  0.5427299999999999  0.14326000000000005  0.010060000000000003  1.0000
  C   C271      1.0  0.16078000000000003  0.42951999999999996  0.68003  1.0000
  C   C272      1.0  0.19041999999999984  0.3863500000000002  0.6630700000000002  1.0000
  C   C273      1.0  0.17628000000000005  0.5860999999999998  0.6303400000000002  1.0000
  C   C274      1.0  0.21570999999999987  0.50107  0.7577600000000002  1.0000
  C   C275      1.0  0.17041999999999993  0.45841999999999994  0.8299500000000002  1.0000
  C   C276      1.0  0.14313999999999985  0.5425900000000001  0.8040100000000002  1.0000
  C   C277      1.0  0.22963  0.68031  0.42981  1.0000
  C   C278      1.0  0.25946  0.66339  0.38662000000000013  1.0000
  C   C279      1.0  0.10736  0.63002  0.58578  1.0000
  C   C280      1.0  0.02497999999999992  0.7577500000000001  0.5010600000000001  1.0000
  C   C281      1.0  0.04073999999999989  0.8302200000000002  0.4587100000000001  1.0000
  C   C282      1.0  0.010269999999999965  0.8043  0.5429000000000003  1.0000
  C   C283      1.0  0.6799  0.22919000000000006  0.16075  1.0000
  C   C284      1.0  0.6633399999999999  0.2593900000000001  0.19079000000000002  1.0000
  C   C285      1.0  0.6304199999999999  0.10778999999999998  0.17632000000000006  1.0000
  C   C286      1.0  0.7578099999999999  0.02509  0.21587000000000006  1.0000
  C   C287      1.0  0.83033  0.04080999999999999  0.17086  1.0000
  C   C288      1.0  0.80382  0.009829999999999992  0.14304000000000003  1.0000
  C   C289      1.0  0.29203  0.36047000000000007  0.4863900000000001  1.0000
  C   C290      1.0  0.2740499999999999  0.34253999999999996  0.5406600000000003  1.0000
  C   C291      1.0  0.3608199999999998  0.48669000000000023  0.36079  1.0000
  C   C292      1.0  0.3428299999999998  0.5409600000000002  0.34288000000000013  1.0000
  C   C293      1.0  0.48635999999999996  0.36046  0.29206000000000004  1.0000
  C   C294      1.0  0.54066  0.34246000000000004  0.2740900000000001  1.0000
  C   C295      1.0  0.36078  0.29238  0.36074  1.0000
  C   C296      1.0  0.34246  0.27403999999999995  0.3423900000000001  1.0000
  C   C297      1.0  0.36052999999999985  0.48632999999999993  0.2920000000000001  1.0000
  C   C298      1.0  0.34251999999999994  0.5406  0.27411000000000013  1.0000
  C   C299      1.0  0.4866299999999999  0.36085  0.3608500000000001  1.0000
  C   C300      1.0  0.54094  0.34285999999999994  0.3428600000000001  1.0000
  C   C301      1.0  0.3605300000000001  0.2919999999999999  0.4863300000000001  1.0000
  C   C302      1.0  0.34252000000000005  0.27411  0.5406  1.0000
  C   C303      1.0  0.29230999999999996  0.36081000000000013  0.36081000000000013  1.0000
  C   C304      1.0  0.2740099999999999  0.34245  0.34245000000000003  1.0000
  C   C305      1.0  0.48635999999999985  0.2920600000000001  0.36046000000000006  1.0000
  C   C306      1.0  0.54066  0.27408999999999994  0.34246000000000004  1.0000
  C   C307      1.0  0.36081999999999986  0.36079  0.4866900000000001  1.0000
  C   C308      1.0  0.3428300000000001  0.34288  0.5409600000000001  1.0000
  C   C309      1.0  0.29202999999999973  0.48639000000000016  0.36047000000000007  1.0000
  C   C310      1.0  0.27405  0.54066  0.34254  1.0000
  C   C311      1.0  0.36078000000000005  0.36074000000000006  0.29238  1.0000
  C   C312      1.0  0.34246  0.34239  0.27404  1.0000
  C   C313      1.0  0.6391799999999999  0.6392100000000002  0.51331  1.0000
  C   C314      1.0  0.65717  0.6571300000000002  0.45904  1.0000
  C   C315      1.0  0.7079699999999998  0.51361  0.63953  1.0000
  C   C316      1.0  0.7259499999999999  0.45934  0.6574600000000003  1.0000
  C   C317      1.0  0.6392199999999999  0.6392600000000003  0.7076300000000002  1.0000
  C   C318      1.0  0.6575399999999999  0.65761  0.72596  1.0000
  C   C319      1.0  0.5136399999999998  0.7079400000000002  0.6395400000000002  1.0000
  C   C320      1.0  0.4593399999999999  0.7259099999999999  0.6575400000000002  1.0000
  C   C321      1.0  0.63947  0.51367  0.708  1.0000
  C   C322      1.0  0.6574799999999998  0.4594100000000002  0.7259  1.0000
  C   C323      1.0  0.7076900000000002  0.63919  0.63919  1.0000
  C   C324      1.0  0.72599  0.65755  0.65755  1.0000
  C   C325      1.0  0.6394699999999999  0.708  0.51367  1.0000
  C   C326      1.0  0.6574799999999998  0.7259000000000002  0.4594100000000001  1.0000
  C   C327      1.0  0.5133700000000003  0.63915  0.63915  1.0000
  C   C328      1.0  0.45906  0.6571399999999998  0.6571400000000002  1.0000
  C   C329      1.0  0.6392199999999999  0.7076300000000001  0.6392600000000003  1.0000
  C   C330      1.0  0.6575400000000001  0.72597  0.65761  1.0000
  C   C331      1.0  0.7079699999999998  0.6395300000000002  0.5136100000000002  1.0000
  C   C332      1.0  0.7259499999999998  0.65746  0.45934000000000014  1.0000
  C   C333      1.0  0.6391799999999999  0.51331  0.63921  1.0000
  C   C334      1.0  0.6571699999999999  0.4590400000000001  0.6571300000000001  1.0000
  C   C335      1.0  0.5136399999999998  0.6395400000000002  0.70794  1.0000
  C   C336      1.0  0.45933999999999975  0.6575400000000001  0.7259100000000003  1.0000
  C   C337      1.0  0.21297999999999997  0.21303999999999995  0.7323500000000001  1.0000
  C   C338      1.0  0.18286999999999998  0.18293  0.7489100000000001  1.0000
  C   C339      1.0  0.10005  0.10010999999999999  0.67204  1.0000
  C   C340      1.0  0.3422999999999999  0.73205  0.21278000000000005  1.0000
  C   C341      1.0  0.38543  0.74903  0.18303  1.0000
  C   C342      1.0  0.62791  0.6722100000000002  0.10024000000000002  1.0000
  C   C343      1.0  0.73206  0.34233  0.2127  1.0000
  C   C344      1.0  0.74907  0.3854200000000001  0.18297  1.0000
  C   C345      1.0  0.67225  0.62789  0.10019000000000003  1.0000
  C   C346      1.0  0.2126299999999999  0.21255999999999994  0.3422000000000001  1.0000
  C   C347      1.0  0.18261999999999995  0.18259999999999998  0.3850500000000001  1.0000
  C   C348      1.0  0.09981999999999992  0.09980999999999993  0.6275400000000002  1.0000
  C   C349      1.0  0.21297999999999997  0.73235  0.21304  1.0000
  C   C350      1.0  0.18286999999999995  0.7489100000000002  0.18293  1.0000
  C   C351      1.0  0.10004999999999994  0.67204  0.10011  1.0000
  C   C352      1.0  0.7320600000000002  0.21269999999999994  0.34233000000000013  1.0000
  C   C353      1.0  0.74907  0.18296999999999997  0.38542  1.0000
  C   C354      1.0  0.6722499999999999  0.10018999999999993  0.6278900000000002  1.0000
  C   C355      1.0  0.34229999999999994  0.2127799999999999  0.7320500000000002  1.0000
  C   C356      1.0  0.38543000000000005  0.18303  0.74903  1.0000
  C   C357      1.0  0.6279100000000001  0.10023999999999994  0.6722100000000001  1.0000
  C   C358      1.0  0.21263000000000004  0.3422  0.21256000000000003  1.0000
  C   C359      1.0  0.18262  0.38505000000000006  0.1826  1.0000
  C   C360      1.0  0.09982000000000003  0.62754  0.09981000000000002  1.0000
  C   C361      1.0  0.7323400000000001  0.21301  0.21301  1.0000
  C   C362      1.0  0.7489599999999998  0.18286  0.18286000000000005  1.0000
  C   C363      1.0  0.67209  0.10003000000000001  0.10003000000000002  1.0000
  C   C364      1.0  0.21275000000000008  0.34236  0.732  1.0000
  C   C365      1.0  0.18295999999999998  0.38549000000000017  0.74905  1.0000
  C   C366      1.0  0.10016999999999984  0.6279600000000001  0.6722400000000002  1.0000
  C   C367      1.0  0.21274999999999997  0.7320000000000001  0.3423600000000001  1.0000
  C   C368      1.0  0.18295999999999987  0.7490500000000002  0.38549  1.0000
  C   C369      1.0  0.10017000000000005  0.67224  0.62796  1.0000
  C   C370      1.0  0.34219000000000005  0.21260999999999997  0.21261  1.0000
  C   C371      1.0  0.3850799999999999  0.18258000000000005  0.18258  1.0000
  C   C372      1.0  0.62758  0.09979000000000002  0.09979000000000003  1.0000
  C   C373      1.0  0.6577  0.78722  0.26795  1.0000
  C   C374      1.0  0.6145699999999998  0.81697  0.25097  1.0000
  C   C375      1.0  0.3720899999999996  0.8997700000000002  0.32779000000000014  1.0000
  C   C376      1.0  0.7870199999999999  0.2676500000000001  0.78697  1.0000
  C   C377      1.0  0.8171299999999999  0.25109  0.81707  1.0000
  C   C378      1.0  0.8999500000000001  0.32796  0.8999000000000001  1.0000
  C   C379      1.0  0.78737  0.6578  0.78744  1.0000
  C   C380      1.0  0.8173800000000001  0.6149599999999998  0.8174100000000002  1.0000
  C   C381      1.0  0.9001800000000001  0.37246999999999997  0.9001900000000003  1.0000
  C   C382      1.0  0.26794000000000007  0.7873  0.65767  1.0000
  C   C383      1.0  0.25093000000000004  0.81703  0.61458  1.0000
  C   C384      1.0  0.3277499999999998  0.8998100000000002  0.3721100000000001  1.0000
  C   C385      1.0  0.6577000000000001  0.26795  0.78722  1.0000
  C   C386      1.0  0.6145699999999998  0.25097000000000014  0.81697  1.0000
  C   C387      1.0  0.3720899999999999  0.32779000000000014  0.8997700000000002  1.0000
  C   C388      1.0  0.7873700000000001  0.7874399999999999  0.6578000000000002  1.0000
  C   C389      1.0  0.8173799999999999  0.8174100000000002  0.61496  1.0000
  C   C390      1.0  0.9001799999999998  0.9001900000000003  0.3724700000000001  1.0000
  C   C391      1.0  0.7870199999999999  0.7869700000000002  0.26765  1.0000
  C   C392      1.0  0.8171300000000001  0.81707  0.25109  1.0000
  C   C393      1.0  0.8999499999999999  0.8999000000000003  0.3279600000000001  1.0000
  C   C394      1.0  0.2679399999999999  0.6576700000000002  0.7873  1.0000
  C   C395      1.0  0.25092999999999993  0.61458  0.8170300000000003  1.0000
  C   C396      1.0  0.3277499999999999  0.37211000000000005  0.8998100000000002  1.0000
  C   C397      1.0  0.65781  0.78739  0.7873900000000003  1.0000
  C   C398      1.0  0.6149199999999997  0.8174200000000004  0.81742  1.0000
  C   C399      1.0  0.3724200000000001  0.90022  0.90022  1.0000
  C   C400      1.0  0.78725  0.65765  0.26801  1.0000
  C   C401      1.0  0.8170399999999998  0.6145100000000001  0.25095  1.0000
  C   C402      1.0  0.8998300000000001  0.3720400000000001  0.32777  1.0000
  C   C403      1.0  0.7872499999999999  0.26801  0.65765  1.0000
  C   C404      1.0  0.8170399999999998  0.25094999999999995  0.6145100000000002  1.0000
  C   C405      1.0  0.8998300000000002  0.32777  0.37204  1.0000
  C   C406      1.0  0.2676599999999999  0.7869999999999999  0.7870000000000003  1.0000
  C   C407      1.0  0.2510399999999998  0.8171400000000003  0.8171400000000002  1.0000
  C   C408      1.0  0.3279099999999999  0.8999699999999999  0.8999700000000003  1.0000
  N   N1        1.0  0.16795000000000002  0.04168999999999998  0.78894  1.0000
  N   N2        1.0  0.5015  0.78914  0.04179  1.0000
  N   N3        1.0  0.7887800000000001  0.5011499999999999  0.16774000000000006  1.0000
  N   N4        1.0  0.04180999999999999  0.16804000000000002  0.50153  1.0000
  N   N5        1.0  0.041709999999999865  0.7888800000000002  0.16795  1.0000
  N   N6        1.0  0.78908  0.041800000000000045  0.50156  1.0000
  N   N7        1.0  0.5011899999999999  0.1677299999999999  0.7887500000000002  1.0000
  N   N8        1.0  0.16801999999999997  0.5016  0.0418  1.0000
  N   N9        1.0  0.7888799999999998  0.16801  0.04169  1.0000
  N   N10       1.0  0.04181999999999987  0.50149  0.7891100000000002  1.0000
  N   N11       1.0  0.16775000000000004  0.78878  0.50114  1.0000
  N   N12       1.0  0.50154  0.04178999999999998  0.16808000000000006  1.0000
  N   N13       1.0  0.49849999999999983  0.95821  0.21086000000000005  1.0000
  N   N14       1.0  0.8320499999999998  0.21105999999999991  0.9583200000000002  1.0000
  N   N15       1.0  0.9581899999999997  0.4984700000000001  0.8319600000000003  1.0000
  N   N16       1.0  0.2112199999999999  0.8322700000000002  0.49885000000000007  1.0000
  N   N17       1.0  0.49881  0.21124999999999997  0.8322800000000001  1.0000
  N   N18       1.0  0.8319799999999999  0.95821  0.49841000000000013  1.0000
  N   N19       1.0  0.9582899999999998  0.8320500000000003  0.21112  1.0000
  N   N20       1.0  0.2109199999999999  0.49844000000000005  0.9582000000000003  1.0000
  N   N21       1.0  0.4984599999999999  0.83192  0.95821  1.0000
  N   N22       1.0  0.83225  0.49885999999999997  0.21123000000000006  1.0000
  N   N23       1.0  0.9581799999999999  0.21088999999999994  0.49852000000000013  1.0000
  N   N24       1.0  0.21111999999999992  0.95832  0.8320000000000002  1.0000
  N   N25       1.0  0.8320500000000001  0.95832  0.21106000000000003  1.0000
  N   N26       1.0  0.49849999999999983  0.2108600000000001  0.95821  1.0000
  N   N27       1.0  0.21121999999999996  0.49885000000000007  0.8322600000000001  1.0000
  N   N28       1.0  0.9581899999999999  0.83197  0.49847000000000014  1.0000
  N   N29       1.0  0.9582899999999999  0.21112  0.83205  1.0000
  N   N30       1.0  0.21091999999999983  0.9582000000000003  0.4984400000000001  1.0000
  N   N31       1.0  0.4988099999999997  0.8322800000000002  0.21125000000000005  1.0000
  N   N32       1.0  0.83198  0.4984100000000001  0.95821  1.0000
  N   N33       1.0  0.21111999999999967  0.8320000000000002  0.9583200000000002  1.0000
  N   N34       1.0  0.9581799999999999  0.49852  0.21089000000000005  1.0000
  N   N35       1.0  0.83225  0.21123  0.49886  1.0000
  N   N36       1.0  0.49845999999999974  0.9582099999999998  0.8319200000000002  1.0000
  N   N37       1.0  0.5014999999999998  0.04179  0.78914  1.0000
  N   N38       1.0  0.16794999999999993  0.78894  0.04169  1.0000
  N   N39       1.0  0.04180999999999997  0.50153  0.16804000000000005  1.0000
  N   N40       1.0  0.78878  0.16774  0.50115  1.0000
  N   N41       1.0  0.5011899999999999  0.7887500000000002  0.16773000000000005  1.0000
  N   N42       1.0  0.1680199999999999  0.04179999999999993  0.5016000000000003  1.0000
  N   N43       1.0  0.041709999999999935  0.1679500000000001  0.78888  1.0000
  N   N44       1.0  0.78908  0.50156  0.0418  1.0000
  N   N45       1.0  0.50154  0.16808  0.04179  1.0000
  N   N46       1.0  0.16774999999999993  0.50114  0.78878  1.0000
  N   N47       1.0  0.04181999999999987  0.7891100000000002  0.50149  1.0000
  N   N48       1.0  0.7888799999999998  0.04169  0.16801  1.0000
  N   N49       1.0  0.3436399999999999  0.34358000000000005  0.46876000000000007  1.0000
  N   N50       1.0  0.31389999999999996  0.31396999999999997  0.5585200000000001  1.0000
  N   N51       1.0  0.34363999999999995  0.4687599999999999  0.3435800000000001  1.0000
  N   N52       1.0  0.3139  0.55852  0.31397  1.0000
  N   N53       1.0  0.4687300000000001  0.34363999999999995  0.3436400000000001  1.0000
  N   N54       1.0  0.55854  0.31391000000000013  0.31391  1.0000
  N   N55       1.0  0.3439299999999999  0.34395999999999993  0.34396000000000004  1.0000
  N   N56       1.0  0.3136499999999999  0.31361999999999995  0.3136200000000001  1.0000
  N   N57       1.0  0.65636  0.65642  0.53125  1.0000
  N   N58       1.0  0.6860999999999997  0.68604  0.4414800000000001  1.0000
  N   N59       1.0  0.6563599999999997  0.5312500000000003  0.65642  1.0000
  N   N60       1.0  0.6861  0.4414799999999999  0.6860400000000002  1.0000
  N   N61       1.0  0.65607  0.65605  0.6560400000000002  1.0000
  N   N62       1.0  0.68635  0.6863800000000001  0.6863800000000001  1.0000
  N   N63       1.0  0.5312699999999999  0.6563600000000003  0.65636  1.0000
  N   N64       1.0  0.44145999999999996  0.6860999999999998  0.6861000000000003  1.0000
  N   N65       1.0  0.23090999999999998  0.23090000000000008  0.6808  1.0000
  N   N66       1.0  0.18112999999999987  0.18114999999999995  0.7082400000000002  1.0000
  N   N67       1.0  0.12819000000000003  0.12826  0.65869  1.0000
  N   N68       1.0  0.35780000000000006  0.6804799999999999  0.23058000000000006  1.0000
  N   N69       1.0  0.42899999999999994  0.7086300000000002  0.18148  1.0000
  N   N70       1.0  0.58543  0.65857  0.12806000000000003  1.0000
  N   N71       1.0  0.6804500000000001  0.3578299999999999  0.23056000000000004  1.0000
  N   N72       1.0  0.70865  0.42898  0.1815  1.0000
  N   N73       1.0  0.6585900000000001  0.5854499999999999  0.12798  1.0000
  N   N74       1.0  0.23082999999999995  0.23078  0.3580800000000001  1.0000
  N   N75       1.0  0.18120999999999998  0.18124999999999997  0.4288300000000001  1.0000
  N   N76       1.0  0.12782000000000004  0.12777000000000002  0.58527  1.0000
  N   N77       1.0  0.23090999999999998  0.6808  0.23090000000000005  1.0000
  N   N78       1.0  0.18113000000000004  0.70824  0.18115  1.0000
  N   N79       1.0  0.12818999999999992  0.65869  0.12826000000000004  1.0000
  N   N80       1.0  0.68045  0.23056  0.35783  1.0000
  N   N81       1.0  0.70865  0.1815  0.42898000000000003  1.0000
  N   N82       1.0  0.65859  0.12798000000000004  0.58545  1.0000
  N   N83       1.0  0.3577999999999999  0.23058  0.6804800000000001  1.0000
  N   N84       1.0  0.42900000000000005  0.18148000000000003  0.70863  1.0000
  N   N85       1.0  0.58543  0.12806  0.6585700000000001  1.0000
  N   N86       1.0  0.23082999999999998  0.35807999999999995  0.23078000000000007  1.0000
  N   N87       1.0  0.18120999999999987  0.4288300000000001  0.18125000000000005  1.0000
  N   N88       1.0  0.12782  0.58527  0.12777  1.0000
  N   N89       1.0  0.6807399999999999  0.23092999999999997  0.23093000000000005  1.0000
  N   N90       1.0  0.70828  0.18112  0.18112  1.0000
  N   N91       1.0  0.65869  0.12822  0.12822000000000006  1.0000
  N   N92       1.0  0.23060999999999993  0.35780000000000023  0.68042  1.0000
  N   N93       1.0  0.18144999999999997  0.42899999999999994  0.70869  1.0000
  N   N94       1.0  0.12802  0.58547  0.65854  1.0000
  N   N95       1.0  0.23060999999999982  0.6804200000000004  0.3578  1.0000
  N   N96       1.0  0.18144999999999994  0.7086900000000002  0.429  1.0000
  N   N97       1.0  0.12801999999999994  0.6585400000000002  0.58547  1.0000
  N   N98       1.0  0.35805000000000003  0.23083999999999996  0.23084000000000005  1.0000
  N   N99       1.0  0.4288599999999999  0.18120000000000003  0.18120000000000006  1.0000
  N   N100      1.0  0.58526  0.12781000000000006  0.12781  1.0000
  N   N101      1.0  0.6421999999999999  0.7694200000000004  0.31953  1.0000
  N   N102      1.0  0.571  0.8185199999999999  0.29138000000000003  1.0000
  N   N103      1.0  0.41456999999999966  0.87194  0.3414300000000001  1.0000
  N   N104      1.0  0.76909  0.31921  0.7691000000000001  1.0000
  N   N105      1.0  0.8188700000000001  0.2917699999999999  0.8188500000000002  1.0000
  N   N106      1.0  0.87181  0.34130999999999995  0.8717500000000002  1.0000
  N   N107      1.0  0.7691700000000002  0.64192  0.76922  1.0000
  N   N108      1.0  0.8187900000000001  0.5711799999999999  0.8187500000000002  1.0000
  N   N109      1.0  0.87218  0.41472999999999993  0.8722400000000002  1.0000
  N   N110      1.0  0.31955000000000006  0.76945  0.64217  1.0000
  N   N111      1.0  0.2913499999999999  0.8185100000000003  0.57102  1.0000
  N   N112      1.0  0.3414099999999997  0.8720200000000002  0.4145600000000001  1.0000
  N   N113      1.0  0.6421999999999999  0.31953000000000004  0.76942  1.0000
  N   N114      1.0  0.571  0.29137999999999986  0.8185200000000002  1.0000
  N   N115      1.0  0.41456999999999994  0.34143  0.8719400000000003  1.0000
  N   N116      1.0  0.76917  0.76922  0.64192  1.0000
  N   N117      1.0  0.8187900000000001  0.81875  0.57118  1.0000
  N   N118      1.0  0.8721799999999997  0.8722400000000003  0.41473  1.0000
  N   N119      1.0  0.7690899999999999  0.7691000000000002  0.31921  1.0000
  N   N120      1.0  0.81887  0.81885  0.2917700000000001  1.0000
  N   N121      1.0  0.8718099999999999  0.8717500000000002  0.3413100000000001  1.0000
  N   N122      1.0  0.31954999999999983  0.64217  0.7694500000000002  1.0000
  N   N123      1.0  0.29135000000000005  0.57102  0.81851  1.0000
  N   N124      1.0  0.3414099999999999  0.41456000000000004  0.8720200000000002  1.0000
  N   N125      1.0  0.6419500000000001  0.7691699999999999  0.7691700000000002  1.0000
  N   N126      1.0  0.5711399999999999  0.8187999999999999  0.8188000000000001  1.0000
  N   N127      1.0  0.4147399999999996  0.8722000000000002  0.8722000000000002  1.0000
  N   N128      1.0  0.76939  0.6421999999999999  0.3195800000000001  1.0000
  N   N129      1.0  0.81855  0.57101  0.29131000000000007  1.0000
  N   N130      1.0  0.8719799999999998  0.4145400000000001  0.3414600000000001  1.0000
  N   N131      1.0  0.7693899999999999  0.31957999999999986  0.6422000000000002  1.0000
  N   N132      1.0  0.8185499999999999  0.29130999999999996  0.5710100000000002  1.0000
  N   N133      1.0  0.87198  0.34146  0.41454000000000013  1.0000
  N   N134      1.0  0.3192599999999999  0.7690699999999999  0.7690700000000003  1.0000
  N   N135      1.0  0.2917200000000001  0.8188899999999999  0.8188900000000002  1.0000
  N   N136      1.0  0.34131  0.87178  0.87178  1.0000
