data_image0
_chemical_formula_structural       Ag48H288C240N96
_chemical_formula_sum              "Ag48 H288 C240 N96"
_cell_length_a       23.71881
_cell_length_b       23.71813
_cell_length_c       23.718109999999996
_cell_angle_alpha    109.4914
_cell_angle_beta     109.49333
_cell_angle_gamma    109.49332

_space_group_name_H-M_alt    "P 1"
_space_group_IT_number       1

loop_
  _space_group_symop_operation_xyz
  'x, y, z'

loop_
  _atom_site_type_symbol
  _atom_site_label
  _atom_site_symmetry_multiplicity
  _atom_site_fract_x
  _atom_site_fract_y
  _atom_site_fract_z
  _atom_site_occupancy
  Ag  Ag1       1.0  0.94717  0.54252  0.96345  1.0000
  Ag  Ag2       1.0  0.95058  0.59284  0.58382  1.0000
  Ag  Ag3       1.0  0.55264  0.5162200000000001  0.59534  1.0000
  Ag  Ag4       1.0  0.54948  0.13322000000000006  0.64226  1.0000
  Ag  Ag5       1.0  0.07904000000000008  0.9836700000000003  0.53629  1.0000
  Ag  Ag6       1.0  0.50907  0.36683000000000004  0.91629  1.0000
  Ag  Ag7       1.0  0.42086  0.9574  0.90455  1.0000
  Ag  Ag8       1.0  0.99096  0.9072200000000001  0.8577899999999999  1.0000
  Ag  Ag9       1.0  0.59535  0.05265000000000001  0.01623  1.0000
  Ag  Ag10      1.0  0.64227  0.04948000000000001  0.63323  1.0000
  Ag  Ag11      1.0  0.9634599999999999  0.44716  0.042519999999999995  1.0000
  Ag  Ag12      1.0  0.58383  0.45058  0.09284  1.0000
  Ag  Ag13      1.0  0.90455  0.9208700000000001  0.45741  1.0000
  Ag  Ag14      1.0  0.8577899999999999  0.4909600000000001  0.40722  1.0000
  Ag  Ag15      1.0  0.53629  0.57904  0.48366  1.0000
  Ag  Ag16      1.0  0.91628  0.009069999999999932  0.8668299999999999  1.0000
  Ag  Ag17      1.0  0.4573999999999999  0.40454999999999997  0.42086999999999997  1.0000
  Ag  Ag18      1.0  0.4072200000000001  0.35779000000000005  0.9909599999999998  1.0000
  Ag  Ag19      1.0  0.48367  0.03629  0.07905  1.0000
  Ag  Ag20      1.0  0.8668299999999999  0.4162800000000001  0.50908  1.0000
  Ag  Ag21      1.0  0.016219999999999977  0.09534000000000001  0.55264  1.0000
  Ag  Ag22      1.0  0.63323  0.14227000000000006  0.54948  1.0000
  Ag  Ag23      1.0  0.04252000000000007  0.4634500000000001  0.9471700000000001  1.0000
  Ag  Ag24      1.0  0.09284  0.08382000000000006  0.95058  1.0000
  Ag  Ag25      1.0  0.05264000000000006  0.5953400000000001  0.51622  1.0000
  Ag  Ag26      1.0  0.04948000000000001  0.64226  0.13323  1.0000
  Ag  Ag27      1.0  0.44717000000000007  0.9634500000000003  0.54253  1.0000
  Ag  Ag28      1.0  0.45057  0.58382  0.59284  1.0000
  Ag  Ag29      1.0  0.92086  0.9045500000000001  0.95741  1.0000
  Ag  Ag30      1.0  0.49096  0.85779  0.9072199999999999  1.0000
  Ag  Ag31      1.0  0.57904  0.53629  0.98367  1.0000
  Ag  Ag32      1.0  0.009069999999999986  0.91628  0.36684  1.0000
  Ag  Ag33      1.0  0.40454  0.4574  0.92087  1.0000
  Ag  Ag34      1.0  0.35779  0.40722  0.49095999999999995  1.0000
  Ag  Ag35      1.0  0.03628  0.48366  0.57904  1.0000
  Ag  Ag36      1.0  0.41628000000000004  0.8668300000000002  0.00907  1.0000
  Ag  Ag37      1.0  0.09535  0.016230000000000005  0.05265000000000001  1.0000
  Ag  Ag38      1.0  0.14226000000000003  0.63323  0.04948  1.0000
  Ag  Ag39      1.0  0.46346  0.042519999999999995  0.44716  1.0000
  Ag  Ag40      1.0  0.08382  0.09284  0.45058  1.0000
  Ag  Ag41      1.0  0.54252  0.94717  0.46346  1.0000
  Ag  Ag42      1.0  0.59284  0.9505800000000001  0.08382999999999999  1.0000
  Ag  Ag43      1.0  0.51623  0.55264  0.09535  1.0000
  Ag  Ag44      1.0  0.13323000000000007  0.5494800000000001  0.14227  1.0000
  Ag  Ag45      1.0  0.98367  0.07905000000000001  0.03629  1.0000
  Ag  Ag46      1.0  0.36683  0.5090800000000001  0.41628  1.0000
  Ag  Ag47      1.0  0.9573999999999999  0.4208600000000001  0.40456  1.0000
  Ag  Ag48      1.0  0.9072200000000001  0.9909600000000005  0.35779  1.0000
  H   H1        1.0  0.9002900000000001  0.5834300000000001  0.78535  1.0000
  H   H2        1.0  0.95832  0.6482500000000001  0.87402  1.0000
  H   H3        1.0  0.8844599999999998  0.57377  0.8508499999999999  1.0000
  H   H4        1.0  0.04844000000000002  0.45525000000000004  0.75275  1.0000
  H   H5        1.0  0.03861000000000003  0.41166  0.80007  1.0000
  H   H6        1.0  0.11381999999999999  0.49234000000000006  0.8393199999999998  1.0000
  H   H7        1.0  0.05550000000000013  0.6776600000000003  0.7442  1.0000
  H   H8        1.0  0.05844000000000007  0.6647700000000002  0.81485  1.0000
  H   H9        1.0  0.99097  0.67521  0.76715  1.0000
  H   H10       1.0  0.9131199999999999  0.35813000000000006  0.61775  1.0000
  H   H11       1.0  0.8399000000000002  0.3609700000000001  0.61918  1.0000
  H   H12       1.0  0.9110400000000002  0.38407000000000013  0.69641  1.0000
  H   H13       1.0  0.59977  0.38514  0.6833  1.0000
  H   H14       1.0  0.54173  0.41571  0.68997  1.0000
  H   H15       1.0  0.61561  0.46646  0.68943  1.0000
  H   H16       1.0  0.45145  0.20406999999999997  0.40654999999999997  1.0000
  H   H17       1.0  0.46130999999999994  0.26131000000000004  0.37289999999999995  1.0000
  H   H18       1.0  0.38611  0.22531000000000004  0.37832  1.0000
  H   H19       1.0  0.44458  0.18861999999999998  0.6220499999999999  1.0000
  H   H20       1.0  0.44177  0.25634  0.60622  1.0000
  H   H21       1.0  0.50914  0.27616000000000007  0.6842  1.0000
  H   H22       1.0  0.5868599999999999  0.20461000000000001  0.44498999999999994  1.0000
  H   H23       1.0  0.6600899999999998  0.27932000000000007  0.52113  1.0000
  H   H24       1.0  0.5889  0.28535  0.47308  1.0000
  H   H25       1.0  0.29807  0.11499  0.71465  1.0000
  H   H26       1.0  0.27422  0.0843  0.62599  1.0000
  H   H27       1.0  0.22287  0.03360999999999999  0.64911  1.0000
  H   H28       1.0  0.20255  0.2957500000000001  0.74731  1.0000
  H   H29       1.0  0.11156999999999999  0.23853999999999997  0.69991  1.0000
  H   H30       1.0  0.15299999999999997  0.27454000000000006  0.66072  1.0000
  H   H31       1.0  0.43344999999999995  0.31139  0.75597  1.0000
  H   H32       1.0  0.34986  0.24365  0.68536  1.0000
  H   H33       1.0  0.40803000000000006  0.2238800000000001  0.733  1.0000
  H   H34       1.0  0.24036999999999997  0.29538000000000003  0.8822299999999998  1.0000
  H   H35       1.0  0.24181000000000005  0.22071  0.88074  1.0000
  H   H36       1.0  0.18761  0.21459000000000003  0.80348  1.0000
  H   H37       1.0  0.20173999999999995  0.91647  0.8166199999999999  1.0000
  H   H38       1.0  0.22562  0.8517000000000001  0.8098999999999998  1.0000
  H   H39       1.0  0.27695  0.9261700000000002  0.8105299999999999  1.0000
  H   H40       1.0  0.29754  0.04479000000000001  0.09328  1.0000
  H   H41       1.0  0.38847000000000004  0.08841000000000002  0.12707  1.0000
  H   H42       1.0  0.347  0.00770999999999999  0.12148999999999999  1.0000
  H   H43       1.0  0.06650999999999994  0.82246  0.87788  1.0000
  H   H44       1.0  0.15003999999999998  0.83544  0.8937199999999998  1.0000
  H   H45       1.0  0.09185999999999998  0.82479  0.81574  1.0000
  H   H46       1.0  0.25978  0.14204  0.0551  1.0000
  H   H47       1.0  0.25836  0.13912  0.979  1.0000
  H   H48       1.0  0.31251  0.11605  0.027069999999999997  1.0000
  H   H49       1.0  0.6833099999999998  0.09976999999999989  0.8851499999999999  1.0000
  H   H50       1.0  0.68997  0.04173000000000006  0.9157200000000001  1.0000
  H   H51       1.0  0.68943  0.11559999999999997  0.9664699999999999  1.0000
  H   H52       1.0  0.40655  0.9514500000000001  0.70407  1.0000
  H   H53       1.0  0.37288999999999994  0.9613100000000001  0.76131  1.0000
  H   H54       1.0  0.3783100000000001  0.8861000000000001  0.72531  1.0000
  H   H55       1.0  0.62205  0.9445800000000001  0.6886299999999999  1.0000
  H   H56       1.0  0.60622  0.94176  0.75634  1.0000
  H   H57       1.0  0.68421  0.00913999999999997  0.77616  1.0000
  H   H58       1.0  0.44499  0.08685999999999999  0.70461  1.0000
  H   H59       1.0  0.52113  0.16008000000000003  0.77932  1.0000
  H   H60       1.0  0.47308  0.08891000000000009  0.78535  1.0000
  H   H61       1.0  0.78535  0.4002900000000001  0.08344  1.0000
  H   H62       1.0  0.87403  0.45832  0.14824999999999997  1.0000
  H   H63       1.0  0.85086  0.38446  0.07378  1.0000
  H   H64       1.0  0.75274  0.54844  0.9552599999999999  1.0000
  H   H65       1.0  0.8000699999999998  0.53861  0.91166  1.0000
  H   H66       1.0  0.83932  0.6138200000000001  0.9923499999999998  1.0000
  H   H67       1.0  0.74421  0.55551  0.17766  1.0000
  H   H68       1.0  0.81485  0.55844  0.16478  1.0000
  H   H69       1.0  0.76716  0.49097  0.17522  1.0000
  H   H70       1.0  0.61775  0.4131200000000001  0.85813  1.0000
  H   H71       1.0  0.6191799999999998  0.3398999999999999  0.86098  1.0000
  H   H72       1.0  0.69641  0.41103999999999996  0.8840699999999999  1.0000
  H   H73       1.0  0.8166199999999999  0.70175  0.41646999999999995  1.0000
  H   H74       1.0  0.8099  0.72563  0.3517  1.0000
  H   H75       1.0  0.8105299999999999  0.77696  0.42617  1.0000
  H   H76       1.0  0.09327999999999997  0.79754  0.54479  1.0000
  H   H77       1.0  0.1270700000000001  0.8884800000000003  0.58841  1.0000
  H   H78       1.0  0.12148999999999997  0.847  0.50771  1.0000
  H   H79       1.0  0.8778799999999999  0.56652  0.32246  1.0000
  H   H80       1.0  0.8937200000000001  0.6500400000000001  0.33543  1.0000
  H   H81       1.0  0.81573  0.5918600000000002  0.32479  1.0000
  H   H82       1.0  0.055099999999999955  0.75978  0.64203  1.0000
  H   H83       1.0  0.97899  0.75835  0.63912  1.0000
  H   H84       1.0  0.02705999999999995  0.8125100000000001  0.6160499999999999  1.0000
  H   H85       1.0  0.71465  0.7980700000000001  0.61499  1.0000
  H   H86       1.0  0.62598  0.7742200000000001  0.5843  1.0000
  H   H87       1.0  0.6491  0.72287  0.53361  1.0000
  H   H88       1.0  0.7473100000000001  0.7025500000000002  0.79576  1.0000
  H   H89       1.0  0.69991  0.6115700000000001  0.73854  1.0000
  H   H90       1.0  0.66071  0.653  0.77454  1.0000
  H   H91       1.0  0.75596  0.9334400000000003  0.81139  1.0000
  H   H92       1.0  0.6853500000000001  0.84986  0.74365  1.0000
  H   H93       1.0  0.73299  0.90803  0.72388  1.0000
  H   H94       1.0  0.88223  0.7403800000000003  0.79538  1.0000
  H   H95       1.0  0.88074  0.74181  0.72072  1.0000
  H   H96       1.0  0.80347  0.6876100000000002  0.71459  1.0000
  H   H97       1.0  0.41646999999999995  0.31662  0.20175  1.0000
  H   H98       1.0  0.3517  0.3099  0.22562999999999997  1.0000
  H   H99       1.0  0.42617999999999995  0.31054000000000004  0.27696  1.0000
  H   H100      1.0  0.5447900000000001  0.59328  0.29754  1.0000
  H   H101      1.0  0.5884100000000001  0.6270700000000001  0.38847  1.0000
  H   H102      1.0  0.5077  0.62149  0.347  1.0000
  H   H103      1.0  0.3224600000000001  0.37788000000000005  0.06652  1.0000
  H   H104      1.0  0.33544000000000007  0.3937200000000001  0.15004  1.0000
  H   H105      1.0  0.32479  0.31573000000000007  0.09186  1.0000
  H   H106      1.0  0.6420399999999999  0.55511  0.25978  1.0000
  H   H107      1.0  0.63912  0.4790000000000001  0.25836  1.0000
  H   H108      1.0  0.61604  0.5270599999999999  0.31251  1.0000
  H   H109      1.0  0.61499  0.21464000000000005  0.29806  1.0000
  H   H110      1.0  0.5843  0.12599  0.27423  1.0000
  H   H111      1.0  0.5336099999999999  0.14911  0.22287  1.0000
  H   H112      1.0  0.79576  0.24732000000000007  0.20256  1.0000
  H   H113      1.0  0.73855  0.19991  0.11156999999999999  1.0000
  H   H114      1.0  0.7745499999999998  0.16072000000000003  0.153  1.0000
  H   H115      1.0  0.81139  0.2559699999999999  0.43344999999999995  1.0000
  H   H116      1.0  0.7436500000000001  0.18536  0.34986  1.0000
  H   H117      1.0  0.72388  0.23300000000000004  0.40802999999999995  1.0000
  H   H118      1.0  0.79539  0.38223  0.24038  1.0000
  H   H119      1.0  0.7207199999999999  0.38074  0.24182  1.0000
  H   H120      1.0  0.71459  0.30347  0.18761  1.0000
  H   H121      1.0  0.8851499999999999  0.1833000000000001  0.59977  1.0000
  H   H122      1.0  0.9157099999999999  0.18996999999999997  0.54173  1.0000
  H   H123      1.0  0.96646  0.18943000000000004  0.6156  1.0000
  H   H124      1.0  0.70406  0.90655  0.45145  1.0000
  H   H125      1.0  0.76131  0.87289  0.46130999999999994  1.0000
  H   H126      1.0  0.72531  0.87832  0.38611  1.0000
  H   H127      1.0  0.68862  0.12205000000000002  0.44458  1.0000
  H   H128      1.0  0.75634  0.10622000000000001  0.44177  1.0000
  H   H129      1.0  0.77616  0.18420000000000003  0.50915  1.0000
  H   H130      1.0  0.7046000000000001  0.9449900000000002  0.58686  1.0000
  H   H131      1.0  0.7793200000000001  0.021129999999999968  0.66009  1.0000
  H   H132      1.0  0.78535  0.9730800000000002  0.58891  1.0000
  H   H133      1.0  0.08343999999999994  0.28536  0.90029  1.0000
  H   H134      1.0  0.14824999999999997  0.37402  0.9583199999999998  1.0000
  H   H135      1.0  0.07377  0.35085000000000005  0.88446  1.0000
  H   H136      1.0  0.95526  0.25274  0.04843999999999999  1.0000
  H   H137      1.0  0.91166  0.30007  0.03862  1.0000
  H   H138      1.0  0.99235  0.33932  0.11382  1.0000
  H   H139      1.0  0.17767  0.24420000000000006  0.05551  1.0000
  H   H140      1.0  0.16477000000000003  0.3148500000000001  0.05843999999999999  1.0000
  H   H141      1.0  0.17522000000000001  0.26715000000000005  0.99097  1.0000
  H   H142      1.0  0.8581299999999997  0.11775000000000002  0.9131199999999999  1.0000
  H   H143      1.0  0.86098  0.11917999999999986  0.8398999999999999  1.0000
  H   H144      1.0  0.8840700000000001  0.1964100000000001  0.91104  1.0000
  H   H145      1.0  0.09977  0.6833  0.38514  1.0000
  H   H146      1.0  0.04173  0.68997  0.41571  1.0000
  H   H147      1.0  0.1156  0.68943  0.46647  1.0000
  H   H148      1.0  0.9514500000000001  0.40655000000000013  0.20407  1.0000
  H   H149      1.0  0.9613099999999999  0.37290000000000006  0.26131  1.0000
  H   H150      1.0  0.8861100000000001  0.37832000000000005  0.22531  1.0000
  H   H151      1.0  0.9445800000000002  0.6220500000000001  0.18863  1.0000
  H   H152      1.0  0.94177  0.6062200000000001  0.25634  1.0000
  H   H153      1.0  0.009139999999999978  0.6842  0.27615999999999996  1.0000
  H   H154      1.0  0.08686000000000005  0.44499000000000005  0.20461  1.0000
  H   H155      1.0  0.16009000000000007  0.5211300000000002  0.27932  1.0000
  H   H156      1.0  0.0889  0.47308  0.28535  1.0000
  H   H157      1.0  0.40029  0.78535  0.58344  1.0000
  H   H158      1.0  0.4583100000000001  0.8740200000000001  0.64825  1.0000
  H   H159      1.0  0.38445  0.8508500000000002  0.57378  1.0000
  H   H160      1.0  0.54844  0.75274  0.45526  1.0000
  H   H161      1.0  0.53861  0.8000700000000002  0.41166  1.0000
  H   H162      1.0  0.61382  0.83932  0.49235  1.0000
  H   H163      1.0  0.5555  0.7442000000000002  0.67766  1.0000
  H   H164      1.0  0.55844  0.81485  0.66478  1.0000
  H   H165      1.0  0.49096999999999996  0.76715  0.67521  1.0000
  H   H166      1.0  0.41312000000000004  0.6177500000000002  0.35813  1.0000
  H   H167      1.0  0.33988999999999997  0.61918  0.36097  1.0000
  H   H168      1.0  0.41104000000000007  0.6964100000000002  0.38407  1.0000
  H   H169      1.0  0.7017399999999999  0.8166200000000002  0.91647  1.0000
  H   H170      1.0  0.72563  0.8099000000000002  0.8516999999999999  1.0000
  H   H171      1.0  0.7769500000000001  0.81053  0.92618  1.0000
  H   H172      1.0  0.7975499999999999  0.09328  0.04479  1.0000
  H   H173      1.0  0.88848  0.12707000000000002  0.08841  1.0000
  H   H174      1.0  0.847  0.12149  0.00771  1.0000
  H   H175      1.0  0.5665200000000001  0.8778800000000001  0.82246  1.0000
  H   H176      1.0  0.65004  0.8937100000000002  0.83544  1.0000
  H   H177      1.0  0.59186  0.8157400000000002  0.8248  1.0000
  H   H178      1.0  0.75978  0.05510000000000002  0.14204  1.0000
  H   H179      1.0  0.75836  0.979  0.13913  1.0000
  H   H180      1.0  0.81251  0.027060000000000004  0.11604999999999999  1.0000
  H   H181      1.0  0.7980700000000001  0.71465  0.11498999999999998  1.0000
  H   H182      1.0  0.77422  0.62599  0.0843  1.0000
  H   H183      1.0  0.7228699999999999  0.64911  0.033609999999999994  1.0000
  H   H184      1.0  0.7025499999999999  0.74731  0.29576  1.0000
  H   H185      1.0  0.61157  0.69991  0.23854999999999998  1.0000
  H   H186      1.0  0.6530000000000001  0.66072  0.27454  1.0000
  H   H187      1.0  0.93345  0.7559700000000001  0.31138999999999994  1.0000
  H   H188      1.0  0.84986  0.6853600000000001  0.24365  1.0000
  H   H189      1.0  0.90803  0.733  0.22388  1.0000
  H   H190      1.0  0.7403799999999999  0.8822300000000001  0.29538  1.0000
  H   H191      1.0  0.7418099999999999  0.88074  0.22071999999999997  1.0000
  H   H192      1.0  0.68761  0.80347  0.21459  1.0000
  H   H193      1.0  0.31662  0.4164700000000001  0.70175  1.0000
  H   H194      1.0  0.3099  0.35170000000000007  0.72563  1.0000
  H   H195      1.0  0.31053  0.42617  0.77696  1.0000
  H   H196      1.0  0.59328  0.54479  0.79754  1.0000
  H   H197      1.0  0.62707  0.5884  0.88848  1.0000
  H   H198      1.0  0.6214899999999999  0.5077  0.8469999999999999  1.0000
  H   H199      1.0  0.37788  0.32245999999999997  0.5665299999999999  1.0000
  H   H200      1.0  0.39371  0.33543  0.65005  1.0000
  H   H201      1.0  0.31573  0.32479  0.59186  1.0000
  H   H202      1.0  0.5551  0.64203  0.75978  1.0000
  H   H203      1.0  0.47899  0.63911  0.7583499999999999  1.0000
  H   H204      1.0  0.52706  0.61605  0.81251  1.0000
  H   H205      1.0  0.21464999999999998  0.61499  0.79807  1.0000
  H   H206      1.0  0.12598  0.58429  0.77422  1.0000
  H   H207      1.0  0.14909999999999995  0.5336100000000001  0.72287  1.0000
  H   H208      1.0  0.2473099999999999  0.79576  0.7025499999999999  1.0000
  H   H209      1.0  0.19990999999999998  0.7385400000000001  0.61157  1.0000
  H   H210      1.0  0.16071000000000002  0.77454  0.653  1.0000
  H   H211      1.0  0.2559599999999999  0.81138  0.9334399999999999  1.0000
  H   H212      1.0  0.18534999999999996  0.7436500000000001  0.8498599999999998  1.0000
  H   H213      1.0  0.23299000000000006  0.72388  0.9080299999999999  1.0000
  H   H214      1.0  0.38223  0.79538  0.74038  1.0000
  H   H215      1.0  0.38072999999999996  0.72072  0.7418199999999999  1.0000
  H   H216      1.0  0.3034700000000001  0.7145900000000001  0.68761  1.0000
  H   H217      1.0  0.18330999999999995  0.88515  0.09978  1.0000
  H   H218      1.0  0.18996999999999997  0.91572  0.041729999999999996  1.0000
  H   H219      1.0  0.18942999999999996  0.9664700000000003  0.1156  1.0000
  H   H220      1.0  0.9065500000000003  0.70406  0.95145  1.0000
  H   H221      1.0  0.87289  0.76131  0.9613099999999999  1.0000
  H   H222      1.0  0.8783100000000003  0.72531  0.8861  1.0000
  H   H223      1.0  0.12205  0.6886300000000001  0.9445799999999999  1.0000
  H   H224      1.0  0.10622000000000006  0.7563400000000002  0.94176  1.0000
  H   H225      1.0  0.18421000000000007  0.7761600000000001  0.00914  1.0000
  H   H226      1.0  0.9450000000000001  0.70461  0.08685999999999999  1.0000
  H   H227      1.0  0.021130000000000027  0.7793200000000001  0.16008  1.0000
  H   H228      1.0  0.97308  0.78535  0.08891  1.0000
  H   H229      1.0  0.28535  0.08343999999999996  0.4002899999999999  1.0000
  H   H230      1.0  0.37402  0.14825000000000002  0.45832000000000006  1.0000
  H   H231      1.0  0.35086  0.07377000000000003  0.38446  1.0000
  H   H232      1.0  0.25274  0.95526  0.54844  1.0000
  H   H233      1.0  0.30007  0.9116600000000002  0.53862  1.0000
  H   H234      1.0  0.33932000000000007  0.9923500000000001  0.61382  1.0000
  H   H235      1.0  0.2442  0.17766  0.55551  1.0000
  H   H236      1.0  0.31485  0.16478  0.55845  1.0000
  H   H237      1.0  0.26715  0.17522  0.49097  1.0000
  H   H238      1.0  0.11774999999999997  0.85813  0.41312  1.0000
  H   H239      1.0  0.11918000000000002  0.8609800000000001  0.3399  1.0000
  H   H240      1.0  0.19641000000000008  0.8840700000000002  0.41104  1.0000
  H   H241      1.0  0.58344  0.90029  0.28536  1.0000
  H   H242      1.0  0.6482499999999999  0.9583199999999998  0.37402  1.0000
  H   H243      1.0  0.57377  0.88446  0.35085  1.0000
  H   H244      1.0  0.45526000000000005  0.048439999999999976  0.25274  1.0000
  H   H245      1.0  0.41166  0.03862000000000003  0.30007  1.0000
  H   H246      1.0  0.49235  0.11382000000000002  0.33932  1.0000
  H   H247      1.0  0.67767  0.05551000000000002  0.2442  1.0000
  H   H248      1.0  0.66477  0.05844  0.31485  1.0000
  H   H249      1.0  0.67522  0.9909700000000001  0.26715  1.0000
  H   H250      1.0  0.35813  0.91312  0.11774999999999998  1.0000
  H   H251      1.0  0.36097000000000007  0.8399000000000001  0.11918  1.0000
  H   H252      1.0  0.3840600000000001  0.9110400000000001  0.19640999999999997  1.0000
  H   H253      1.0  0.38515  0.59977  0.1833  1.0000
  H   H254      1.0  0.41571  0.54173  0.18997  1.0000
  H   H255      1.0  0.46646  0.6156  0.18943  1.0000
  H   H256      1.0  0.20405999999999996  0.45144  0.90655  1.0000
  H   H257      1.0  0.26130999999999993  0.46131  0.87289  1.0000
  H   H258      1.0  0.22529999999999997  0.38609999999999994  0.8783199999999999  1.0000
  H   H259      1.0  0.18862000000000004  0.44458  0.12205  1.0000
  H   H260      1.0  0.25634000000000007  0.4417700000000001  0.10622  1.0000
  H   H261      1.0  0.27615999999999996  0.50915  0.18420999999999998  1.0000
  H   H262      1.0  0.20459999999999995  0.58685  0.9449899999999999  1.0000
  H   H263      1.0  0.27932  0.66009  0.02113  1.0000
  H   H264      1.0  0.28535  0.5889  0.97309  1.0000
  H   H265      1.0  0.11499000000000001  0.29806000000000005  0.21464  1.0000
  H   H266      1.0  0.08429999999999996  0.27422  0.12599  1.0000
  H   H267      1.0  0.03361000000000001  0.22287  0.14911  1.0000
  H   H268      1.0  0.29576  0.20256000000000005  0.24731999999999998  1.0000
  H   H269      1.0  0.23854999999999998  0.11157  0.19990999999999998  1.0000
  H   H270      1.0  0.27455  0.153  0.16071999999999997  1.0000
  H   H271      1.0  0.31139  0.43345  0.25597  1.0000
  H   H272      1.0  0.24365000000000003  0.34986000000000006  0.18536  1.0000
  H   H273      1.0  0.22388000000000002  0.4080300000000001  0.233  1.0000
  H   H274      1.0  0.29539000000000004  0.24038000000000007  0.38223  1.0000
  H   H275      1.0  0.22070999999999996  0.24181000000000002  0.38074  1.0000
  H   H276      1.0  0.21459  0.18761  0.30348  1.0000
  H   H277      1.0  0.91647  0.20175  0.31662  1.0000
  H   H278      1.0  0.8516999999999999  0.22563  0.3099  1.0000
  H   H279      1.0  0.92618  0.27696  0.31054  1.0000
  H   H280      1.0  0.04478999999999999  0.29754  0.59328  1.0000
  H   H281      1.0  0.08841  0.38847  0.62707  1.0000
  H   H282      1.0  0.007699999999999969  0.347  0.6214899999999999  1.0000
  H   H283      1.0  0.82246  0.06651999999999998  0.37787999999999994  1.0000
  H   H284      1.0  0.8354399999999998  0.15003999999999998  0.39372  1.0000
  H   H285      1.0  0.82479  0.09186000000000001  0.31573  1.0000
  H   H286      1.0  0.14204000000000003  0.25978000000000007  0.55511  1.0000
  H   H287      1.0  0.13912  0.25836000000000003  0.4789999999999999  1.0000
  H   H288      1.0  0.11603999999999999  0.3125  0.52706  1.0000
  C   C1        1.0  0.92494  0.59222  0.8380299999999999  1.0000
  C   C2        1.0  0.96516  0.55554  0.84331  1.0000
  C   C3        1.0  0.9868700000000001  0.5273  0.79794  1.0000
  C   C4        1.0  0.022559999999999986  0.49888  0.8282299999999999  1.0000
  C   C5        1.0  0.057629999999999994  0.46261  0.80384  1.0000
  C   C6        1.0  0.023969999999999998  0.6525200000000001  0.76283  1.0000
  C   C7        1.0  0.98266  0.57618  0.71519  1.0000
  C   C8        1.0  0.96894  0.5222900000000001  0.73062  1.0000
  C   C9        1.0  0.9286199999999999  0.46085  0.66597  1.0000
  C   C10       1.0  0.89663  0.38719000000000003  0.64901  1.0000
  C   C11       1.0  0.57511  0.41311000000000003  0.66738  1.0000
  C   C12       1.0  0.53484  0.3780700000000001  0.5904  1.0000
  C   C13       1.0  0.51316  0.31098  0.54039  1.0000
  C   C14       1.0  0.4774  0.3055  0.47622  1.0000
  C   C15       1.0  0.44227999999999995  0.24601000000000006  0.40479  1.0000
  C   C16       1.0  0.4761699999999999  0.23879000000000003  0.62847  1.0000
  C   C17       1.0  0.5174399999999999  0.23248999999999997  0.59349  1.0000
  C   C18       1.0  0.53115  0.26164  0.55333  1.0000
  C   C19       1.0  0.57142  0.23731  0.53224  1.0000
  C   C20       1.0  0.60336  0.2523700000000001  0.4905900000000001  1.0000
  C   C21       1.0  0.25418  0.08694  0.66194  1.0000
  C   C22       1.0  0.21222000000000002  0.12188000000000002  0.6566  1.0000
  C   C23       1.0  0.22934000000000007  0.18896  0.70206  1.0000
  C   C24       1.0  0.17062000000000002  0.19435999999999998  0.67169  1.0000
  C   C25       1.0  0.15875999999999996  0.25384  0.69616  1.0000
  C   C26       1.0  0.38967  0.2612100000000001  0.73736  1.0000
  C   C27       1.0  0.361  0.26754  0.78495  1.0000
  C   C28       1.0  0.29164000000000007  0.23835000000000003  0.76946  1.0000
  C   C29       1.0  0.29491  0.26271  0.8341  1.0000
  C   C30       1.0  0.23816000000000004  0.24761000000000002  0.85095  1.0000
  C   C31       1.0  0.24564  0.9077100000000001  0.8325299999999999  1.0000
  C   C32       1.0  0.2876600000000001  0.9444300000000001  0.90951  1.0000
  C   C33       1.0  0.27061  0.9727600000000002  0.9595099999999999  1.0000
  C   C34       1.0  0.32932  0.0011200000000000003  0.02368  1.0000
  C   C35       1.0  0.34125999999999995  0.03742  0.09507  1.0000
  C   C36       1.0  0.11026000000000001  0.84762  0.87147  1.0000
  C   C37       1.0  0.1389900000000001  0.9239400000000002  0.9064900000000001  1.0000
  C   C38       1.0  0.20835999999999996  0.9778700000000002  0.9466599999999998  1.0000
  C   C39       1.0  0.20518  0.03928000000000004  0.96782  1.0000
  C   C40       1.0  0.26198  0.11296000000000002  0.00953  1.0000
  C   C41       1.0  0.6673800000000001  0.07510000000000015  0.91311  1.0000
  C   C42       1.0  0.5904  0.034850000000000006  0.87807  1.0000
  C   C43       1.0  0.5403899999999999  0.01315999999999994  0.8109799999999999  1.0000
  C   C44       1.0  0.47620999999999997  0.9774  0.8055  1.0000
  C   C45       1.0  0.4047799999999999  0.94228  0.746  1.0000
  C   C46       1.0  0.62847  0.97616  0.73879  1.0000
  C   C47       1.0  0.5934899999999999  0.017440000000000053  0.73249  1.0000
  C   C48       1.0  0.55333  0.031150000000000004  0.76164  1.0000
  C   C49       1.0  0.5322399999999999  0.07142000000000001  0.7373199999999999  1.0000
  C   C50       1.0  0.49059  0.10334999999999998  0.75237  1.0000
  C   C51       1.0  0.83803  0.42494  0.09223  1.0000
  C   C52       1.0  0.8433099999999999  0.46516  0.05554  1.0000
  C   C53       1.0  0.79794  0.48687  0.027309999999999997  1.0000
  C   C54       1.0  0.82823  0.52257  0.99888  1.0000
  C   C55       1.0  0.80384  0.5576299999999998  0.9626199999999999  1.0000
  C   C56       1.0  0.7628399999999999  0.52398  0.15253  1.0000
  C   C57       1.0  0.71519  0.48267000000000004  0.07619  1.0000
  C   C58       1.0  0.73063  0.46895000000000003  0.0223  1.0000
  C   C59       1.0  0.66597  0.42862  0.96086  1.0000
  C   C60       1.0  0.64901  0.3966299999999999  0.8871999999999999  1.0000
  C   C61       1.0  0.83253  0.74564  0.40770999999999996  1.0000
  C   C62       1.0  0.90951  0.78766  0.44444  1.0000
  C   C63       1.0  0.95951  0.77061  0.47276  1.0000
  C   C64       1.0  0.023669999999999972  0.82932  0.50112  1.0000
  C   C65       1.0  0.09507000000000004  0.84126  0.53742  1.0000
  C   C66       1.0  0.87146  0.61026  0.34761  1.0000
  C   C67       1.0  0.90649  0.6389900000000001  0.42393999999999993  1.0000
  C   C68       1.0  0.9466600000000001  0.7083600000000002  0.47787  1.0000
  C   C69       1.0  0.96782  0.70518  0.53928  1.0000
  C   C70       1.0  0.009529999999999978  0.76198  0.61296  1.0000
  C   C71       1.0  0.66193  0.7541900000000001  0.58694  1.0000
  C   C72       1.0  0.6566000000000001  0.7122200000000001  0.62188  1.0000
  C   C73       1.0  0.70205  0.72934  0.68896  1.0000
  C   C74       1.0  0.6716900000000001  0.6706200000000001  0.69436  1.0000
  C   C75       1.0  0.69616  0.6587600000000001  0.75384  1.0000
  C   C76       1.0  0.73735  0.8896600000000002  0.76121  1.0000
  C   C77       1.0  0.7849499999999999  0.8610000000000001  0.76754  1.0000
  C   C78       1.0  0.7694600000000001  0.7916400000000001  0.73835  1.0000
  C   C79       1.0  0.83409  0.79491  0.76271  1.0000
  C   C80       1.0  0.85094  0.73816  0.74761  1.0000
  C   C81       1.0  0.40771  0.33253  0.24564999999999998  1.0000
  C   C82       1.0  0.44444  0.40951000000000004  0.28766  1.0000
  C   C83       1.0  0.47275999999999996  0.45952  0.27061  1.0000
  C   C84       1.0  0.5011200000000002  0.52368  0.32932  1.0000
  C   C85       1.0  0.5374200000000001  0.5950700000000001  0.34126  1.0000
  C   C86       1.0  0.34762  0.37147  0.11026  1.0000
  C   C87       1.0  0.42395  0.40649  0.139  1.0000
  C   C88       1.0  0.4778800000000001  0.44666000000000006  0.20837  1.0000
  C   C89       1.0  0.53928  0.46782000000000007  0.20518999999999998  1.0000
  C   C90       1.0  0.6129599999999997  0.5095400000000001  0.26198  1.0000
  C   C91       1.0  0.58694  0.16193  0.25418  1.0000
  C   C92       1.0  0.62189  0.15661  0.21222999999999997  1.0000
  C   C93       1.0  0.6889699999999999  0.20206  0.22934  1.0000
  C   C94       1.0  0.69437  0.17169  0.17062  1.0000
  C   C95       1.0  0.75384  0.19616000000000006  0.15877  1.0000
  C   C96       1.0  0.76121  0.23735000000000006  0.38967  1.0000
  C   C97       1.0  0.76754  0.28495  0.361  1.0000
  C   C98       1.0  0.73835  0.26946  0.29164  1.0000
  C   C99       1.0  0.76271  0.33409  0.29491  1.0000
  C   C100      1.0  0.74762  0.35095  0.23816  1.0000
  C   C101      1.0  0.9131100000000001  0.16738  0.57511  1.0000
  C   C102      1.0  0.87807  0.0904  0.53485  1.0000
  C   C103      1.0  0.8109799999999999  0.04038999999999999  0.51316  1.0000
  C   C104      1.0  0.8055000000000001  0.9762100000000001  0.47739999999999994  1.0000
  C   C105      1.0  0.746  0.9047900000000002  0.44228  1.0000
  C   C106      1.0  0.73879  0.12847000000000006  0.47617  1.0000
  C   C107      1.0  0.73249  0.09349000000000003  0.51744  1.0000
  C   C108      1.0  0.76164  0.05333000000000001  0.53115  1.0000
  C   C109      1.0  0.7373199999999999  0.032240000000000026  0.57142  1.0000
  C   C110      1.0  0.75237  0.99058  0.60336  1.0000
  C   C111      1.0  0.09222000000000007  0.3380300000000001  0.9249400000000001  1.0000
  C   C112      1.0  0.05553  0.34330000000000005  0.96516  1.0000
  C   C113      1.0  0.027300000000000012  0.29794  0.98687  1.0000
  C   C114      1.0  0.99888  0.32822  0.02257  1.0000
  C   C115      1.0  0.9626100000000001  0.30384  0.05763999999999999  1.0000
  C   C116      1.0  0.15253  0.26283  0.02398  1.0000
  C   C117      1.0  0.07617999999999996  0.21519  0.9826599999999999  1.0000
  C   C118      1.0  0.022289999999999973  0.23062000000000002  0.96895  1.0000
  C   C119      1.0  0.96086  0.16597  0.92862  1.0000
  C   C120      1.0  0.8872  0.14900999999999998  0.89663  1.0000
  C   C121      1.0  0.07509999999999997  0.66738  0.4131099999999999  1.0000
  C   C122      1.0  0.03484000000000002  0.5904  0.37807  1.0000
  C   C123      1.0  0.013160000000000015  0.5403900000000001  0.3109799999999999  1.0000
  C   C124      1.0  0.9774  0.47622  0.3055  1.0000
  C   C125      1.0  0.94228  0.40479  0.24600999999999998  1.0000
  C   C126      1.0  0.9761700000000002  0.62847  0.23879  1.0000
  C   C127      1.0  0.017440000000000067  0.5934900000000001  0.23249  1.0000
  C   C128      1.0  0.03115000000000007  0.55333  0.26164  1.0000
  C   C129      1.0  0.07141999999999998  0.53224  0.23732000000000003  1.0000
  C   C130      1.0  0.10336000000000001  0.4905900000000001  0.25238  1.0000
  C   C131      1.0  0.42494000000000004  0.8380200000000002  0.59222  1.0000
  C   C132      1.0  0.4651600000000001  0.8433100000000002  0.55554  1.0000
  C   C133      1.0  0.48686  0.7979400000000001  0.52731  1.0000
  C   C134      1.0  0.52257  0.82822  0.49888  1.0000
  C   C135      1.0  0.55764  0.80384  0.46262  1.0000
  C   C136      1.0  0.5239700000000002  0.7628300000000001  0.65253  1.0000
  C   C137      1.0  0.48266000000000003  0.71519  0.57618  1.0000
  C   C138      1.0  0.46893999999999997  0.73062  0.52229  1.0000
  C   C139      1.0  0.42862  0.66597  0.46086  1.0000
  C   C140      1.0  0.3966300000000001  0.6490100000000001  0.38719  1.0000
  C   C141      1.0  0.7456400000000002  0.8325300000000001  0.90771  1.0000
  C   C142      1.0  0.78766  0.9095100000000002  0.94444  1.0000
  C   C143      1.0  0.77061  0.9595100000000001  0.97276  1.0000
  C   C144      1.0  0.82932  0.023680000000000007  0.00112  1.0000
  C   C145      1.0  0.84126  0.09507000000000003  0.03742  1.0000
  C   C146      1.0  0.61026  0.87147  0.84762  1.0000
  C   C147      1.0  0.63899  0.9064900000000001  0.9239499999999999  1.0000
  C   C148      1.0  0.7083600000000003  0.9466500000000003  0.9778700000000001  1.0000
  C   C149      1.0  0.70518  0.9678200000000001  0.03928  1.0000
  C   C150      1.0  0.76198  0.009529999999999995  0.11296  1.0000
  C   C151      1.0  0.75418  0.66194  0.08694  1.0000
  C   C152      1.0  0.71222  0.6566  0.12189  1.0000
  C   C153      1.0  0.72934  0.7020600000000001  0.18897  1.0000
  C   C154      1.0  0.67062  0.6716900000000001  0.19437  1.0000
  C   C155      1.0  0.65876  0.69616  0.25384  1.0000
  C   C156      1.0  0.8896700000000001  0.7373500000000002  0.26121  1.0000
  C   C157      1.0  0.861  0.7849500000000001  0.26754  1.0000
  C   C158      1.0  0.79164  0.76946  0.23834999999999998  1.0000
  C   C159      1.0  0.79491  0.8341000000000001  0.26271  1.0000
  C   C160      1.0  0.7381600000000001  0.85094  0.24760999999999997  1.0000
  C   C161      1.0  0.33253  0.40771  0.74564  1.0000
  C   C162      1.0  0.40951  0.44444  0.7876599999999999  1.0000
  C   C163      1.0  0.45950999999999986  0.47276000000000007  0.77062  1.0000
  C   C164      1.0  0.5236799999999999  0.50111  0.82933  1.0000
  C   C165      1.0  0.5950699999999998  0.53742  0.84126  1.0000
  C   C166      1.0  0.37146  0.34761  0.61026  1.0000
  C   C167      1.0  0.40649  0.42394  0.63899  1.0000
  C   C168      1.0  0.4466499999999999  0.47786999999999996  0.7083599999999999  1.0000
  C   C169      1.0  0.46782  0.53928  0.70518  1.0000
  C   C170      1.0  0.5095300000000001  0.6129600000000002  0.76198  1.0000
  C   C171      1.0  0.16193000000000002  0.58693  0.7541899999999999  1.0000
  C   C172      1.0  0.15659999999999996  0.6218800000000001  0.71222  1.0000
  C   C173      1.0  0.20204999999999992  0.68896  0.72934  1.0000
  C   C174      1.0  0.17168999999999998  0.69436  0.67062  1.0000
  C   C175      1.0  0.19615999999999995  0.7538400000000001  0.65877  1.0000
  C   C176      1.0  0.23734999999999998  0.76121  0.8896699999999998  1.0000
  C   C177      1.0  0.2849500000000001  0.7675400000000001  0.86101  1.0000
  C   C178      1.0  0.26946000000000003  0.7383500000000001  0.79164  1.0000
  C   C179      1.0  0.3340899999999999  0.76271  0.79491  1.0000
  C   C180      1.0  0.35094000000000003  0.74761  0.73816  1.0000
  C   C181      1.0  0.16738  0.91311  0.07511  1.0000
  C   C182      1.0  0.09039000000000008  0.8780700000000002  0.03485  1.0000
  C   C183      1.0  0.04039000000000008  0.8109800000000003  0.01316  1.0000
  C   C184      1.0  0.97621  0.8055000000000002  0.9774000000000002  1.0000
  C   C185      1.0  0.90479  0.746  0.94228  1.0000
  C   C186      1.0  0.12846999999999995  0.7387899999999998  0.9761699999999999  1.0000
  C   C187      1.0  0.09348999999999996  0.73249  0.01744  1.0000
  C   C188      1.0  0.053330000000000016  0.76164  0.031149999999999997  1.0000
  C   C189      1.0  0.03224000000000003  0.7373200000000001  0.07142  1.0000
  C   C190      1.0  0.99059  0.75237  0.10336  1.0000
  C   C191      1.0  0.33802  0.09222000000000007  0.42494  1.0000
  C   C192      1.0  0.34331  0.05554  0.46515999999999996  1.0000
  C   C193      1.0  0.29794000000000004  0.027310000000000046  0.48687  1.0000
  C   C194      1.0  0.32822  0.9988800000000001  0.52257  1.0000
  C   C195      1.0  0.30383  0.96261  0.55764  1.0000
  C   C196      1.0  0.26283000000000006  0.15253000000000005  0.52398  1.0000
  C   C197      1.0  0.21519  0.07618000000000003  0.48267  1.0000
  C   C198      1.0  0.23062  0.02229999999999999  0.4689499999999999  1.0000
  C   C199      1.0  0.1659700000000001  0.9608600000000003  0.42863  1.0000
  C   C200      1.0  0.14901000000000003  0.8872000000000002  0.39663  1.0000
  C   C201      1.0  0.59222  0.9249400000000001  0.33803  1.0000
  C   C202      1.0  0.55554  0.9651600000000001  0.34329999999999994  1.0000
  C   C203      1.0  0.5273  0.98687  0.29794  1.0000
  C   C204      1.0  0.49888  0.022569999999999972  0.32821999999999996  1.0000
  C   C205      1.0  0.46261  0.05764  0.30384  1.0000
  C   C206      1.0  0.6525300000000002  0.02398  0.26283  1.0000
  C   C207      1.0  0.5761800000000002  0.9826600000000004  0.21519  1.0000
  C   C208      1.0  0.52229  0.96895  0.23062  1.0000
  C   C209      1.0  0.46085999999999994  0.9286200000000001  0.16597  1.0000
  C   C210      1.0  0.38719  0.89663  0.14900999999999998  1.0000
  C   C211      1.0  0.41311  0.57511  0.16738  1.0000
  C   C212      1.0  0.37806  0.5348500000000002  0.0904  1.0000
  C   C213      1.0  0.31098  0.51316  0.04039  1.0000
  C   C214      1.0  0.30549  0.47740000000000005  0.97622  1.0000
  C   C215      1.0  0.24599999999999994  0.44227999999999995  0.9047899999999999  1.0000
  C   C216      1.0  0.23879000000000006  0.47617000000000004  0.12847  1.0000
  C   C217      1.0  0.23249000000000009  0.5174400000000001  0.09348999999999999  1.0000
  C   C218      1.0  0.26164000000000004  0.5311500000000001  0.05333000000000001  1.0000
  C   C219      1.0  0.23732  0.57142  0.03224  1.0000
  C   C220      1.0  0.25237  0.60336  0.99059  1.0000
  C   C221      1.0  0.08693  0.25418  0.16193  1.0000
  C   C222      1.0  0.12189000000000001  0.21223000000000006  0.15661  1.0000
  C   C223      1.0  0.18897000000000005  0.22934000000000002  0.20205999999999996  1.0000
  C   C224      1.0  0.19436  0.17062000000000002  0.17169  1.0000
  C   C225      1.0  0.25384  0.15877  0.19616  1.0000
  C   C226      1.0  0.26121  0.38967000000000007  0.23735  1.0000
  C   C227      1.0  0.26754  0.361  0.28495  1.0000
  C   C228      1.0  0.23835  0.29164  0.26946  1.0000
  C   C229      1.0  0.26271  0.29491000000000006  0.3341  1.0000
  C   C230      1.0  0.24761  0.23816  0.35095  1.0000
  C   C231      1.0  0.9077100000000002  0.24564000000000002  0.33253  1.0000
  C   C232      1.0  0.94444  0.28766  0.40952  1.0000
  C   C233      1.0  0.97276  0.27061000000000013  0.45952000000000004  1.0000
  C   C234      1.0  0.0011200000000000168  0.32932  0.52368  1.0000
  C   C235      1.0  0.03742000000000001  0.34125  0.59508  1.0000
  C   C236      1.0  0.8476199999999999  0.11026000000000001  0.37147  1.0000
  C   C237      1.0  0.9239500000000002  0.13899999999999998  0.40649  1.0000
  C   C238      1.0  0.97788  0.20836000000000005  0.44666  1.0000
  C   C239      1.0  0.03928  0.20518  0.46782  1.0000
  C   C240      1.0  0.11295999999999995  0.26197999999999994  0.5095399999999999  1.0000
  N   N1        1.0  0.98636  0.5441700000000002  0.89672  1.0000
  N   N2        1.0  0.021730000000000037  0.50949  0.88762  1.0000
  N   N3        1.0  0.95193  0.54836  0.64591  1.0000
  N   N4        1.0  0.9190400000000001  0.4776800000000001  0.61574  1.0000
  N   N5        1.0  0.51361  0.41025  0.55782  1.0000
  N   N6        1.0  0.47818  0.36572  0.4877  1.0000
  N   N7        1.0  0.5481299999999999  0.19395000000000004  0.5964199999999998  1.0000
  N   N8        1.0  0.58098  0.19666  0.55864  1.0000
  N   N9        1.0  0.14745  0.08965  0.60309  1.0000
  N   N10       1.0  0.12185999999999998  0.13412000000000004  0.61219  1.0000
  N   N11       1.0  0.40251  0.30615  0.85422  1.0000
  N   N12       1.0  0.36202  0.30344  0.8843499999999999  1.0000
  N   N13       1.0  0.35242  0.9557100000000002  0.9421  1.0000
  N   N14       1.0  0.37805000000000005  0.9904200000000001  0.01221  1.0000
  N   N15       1.0  0.09752999999999996  0.95171  0.9035899999999999  1.0000
  N   N16       1.0  0.13807999999999998  0.02239000000000004  0.94144  1.0000
  N   N17       1.0  0.55783  0.01361000000000002  0.91026  1.0000
  N   N18       1.0  0.4877  0.9781800000000002  0.86573  1.0000
  N   N19       1.0  0.59642  0.04813000000000001  0.69395  1.0000
  N   N20       1.0  0.55864  0.08097999999999995  0.6966599999999998  1.0000
  N   N21       1.0  0.8967200000000001  0.48635000000000006  0.04418  1.0000
  N   N22       1.0  0.8876200000000001  0.52173  0.00949  1.0000
  N   N23       1.0  0.64591  0.45193000000000005  0.04836  1.0000
  N   N24       1.0  0.61574  0.41902999999999996  0.9776799999999999  1.0000
  N   N25       1.0  0.9421  0.8524299999999999  0.45570999999999995  1.0000
  N   N26       1.0  0.012200000000000098  0.8780500000000001  0.49042  1.0000
  N   N27       1.0  0.90359  0.59753  0.45171  1.0000
  N   N28       1.0  0.9414400000000002  0.6380800000000002  0.5224  1.0000
  N   N29       1.0  0.6030799999999997  0.64745  0.58965  1.0000
  N   N30       1.0  0.61219  0.6218600000000001  0.6341199999999999  1.0000
  N   N31       1.0  0.8542200000000001  0.9025100000000003  0.80615  1.0000
  N   N32       1.0  0.8843400000000001  0.86202  0.80344  1.0000
  N   N33       1.0  0.45571  0.44209000000000004  0.35242  1.0000
  N   N34       1.0  0.4904200000000001  0.5122  0.37805  1.0000
  N   N35       1.0  0.45171  0.4036  0.09754  1.0000
  N   N36       1.0  0.52239  0.44144  0.13807999999999998  1.0000
  N   N37       1.0  0.58966  0.10309  0.14746  1.0000
  N   N38       1.0  0.6341200000000001  0.11219000000000001  0.12186  1.0000
  N   N39       1.0  0.80615  0.35422  0.40251  1.0000
  N   N40       1.0  0.80344  0.38435  0.36203  1.0000
  N   N41       1.0  0.91025  0.057830000000000034  0.51361  1.0000
  N   N42       1.0  0.8657199999999999  0.98771  0.47818  1.0000
  N   N43       1.0  0.69395  0.09642000000000006  0.54813  1.0000
  N   N44       1.0  0.69666  0.058640000000000025  0.58098  1.0000
  N   N45       1.0  0.04417000000000007  0.3967200000000002  0.98635  1.0000
  N   N46       1.0  0.009489999999999986  0.38762  0.021729999999999996  1.0000
  N   N47       1.0  0.04834999999999997  0.14591000000000004  0.9519399999999999  1.0000
  N   N48       1.0  0.97768  0.11574000000000012  0.9190400000000001  1.0000
  N   N49       1.0  0.013599999999999984  0.55782  0.41025  1.0000
  N   N50       1.0  0.97818  0.48770000000000013  0.36572  1.0000
  N   N51       1.0  0.04813  0.59642  0.19395  1.0000
  N   N52       1.0  0.08097000000000004  0.5586400000000001  0.19665999999999997  1.0000
  N   N53       1.0  0.48636  0.89672  0.54418  1.0000
  N   N54       1.0  0.52173  0.88762  0.50949  1.0000
  N   N55       1.0  0.45193  0.64591  0.54836  1.0000
  N   N56       1.0  0.41904000000000013  0.6157400000000001  0.47769  1.0000
  N   N57       1.0  0.85242  0.9421  0.95571  1.0000
  N   N58       1.0  0.87805  0.012209999999999997  0.99042  1.0000
  N   N59       1.0  0.59753  0.90359  0.95171  1.0000
  N   N60       1.0  0.63808  0.94144  0.02239  1.0000
  N   N61       1.0  0.64745  0.60308  0.08965  1.0000
  N   N62       1.0  0.62186  0.61219  0.13412  1.0000
  N   N63       1.0  0.9025099999999999  0.85422  0.30615  1.0000
  N   N64       1.0  0.86203  0.8843500000000001  0.30344  1.0000
  N   N65       1.0  0.4420899999999999  0.45571000000000006  0.8524299999999999  1.0000
  N   N66       1.0  0.51221  0.49041999999999997  0.8780599999999998  1.0000
  N   N67       1.0  0.40359  0.45171  0.59753  1.0000
  N   N68       1.0  0.44144000000000005  0.52239  0.63808  1.0000
  N   N69       1.0  0.10308000000000003  0.5896500000000001  0.64745  1.0000
  N   N70       1.0  0.11218999999999987  0.63412  0.6218599999999999  1.0000
  N   N71       1.0  0.35422  0.80615  0.9025099999999999  1.0000
  N   N72       1.0  0.38434  0.8034400000000003  0.86202  1.0000
  N   N73       1.0  0.05782  0.91026  0.01361  1.0000
  N   N74       1.0  0.9877  0.86572  0.97818  1.0000
  N   N75       1.0  0.09642  0.6939500000000001  0.04813  1.0000
  N   N76       1.0  0.05863999999999998  0.69666  0.08098  1.0000
  N   N77       1.0  0.39672  0.044169999999999994  0.48634999999999995  1.0000
  N   N78       1.0  0.38761999999999996  0.009489999999999995  0.52173  1.0000
  N   N79       1.0  0.14590999999999996  0.04834999999999993  0.45192999999999994  1.0000
  N   N80       1.0  0.11574000000000008  0.9776800000000002  0.41904  1.0000
  N   N81       1.0  0.54418  0.98635  0.39672  1.0000
  N   N82       1.0  0.5095  0.021730000000000027  0.38762  1.0000
  N   N83       1.0  0.54835  0.95194  0.14591  1.0000
  N   N84       1.0  0.47768  0.91904  0.11574  1.0000
  N   N85       1.0  0.41025  0.51361  0.05782999999999999  1.0000
  N   N86       1.0  0.36572000000000005  0.47818000000000005  0.9877099999999999  1.0000
  N   N87       1.0  0.19395  0.54813  0.09642  1.0000
  N   N88       1.0  0.19666000000000003  0.5809800000000002  0.05864  1.0000
  N   N89       1.0  0.08966  0.14746000000000004  0.10309  1.0000
  N   N90       1.0  0.13411999999999993  0.12186  0.11219  1.0000
  N   N91       1.0  0.3061499999999999  0.40251  0.35422  1.0000
  N   N92       1.0  0.30344  0.3620200000000001  0.38435  1.0000
  N   N93       1.0  0.95571  0.35242  0.44209  1.0000
  N   N94       1.0  0.9904199999999999  0.37805  0.51221  1.0000
  N   N95       1.0  0.9517099999999998  0.09752999999999995  0.40359999999999996  1.0000
  N   N96       1.0  0.02238999999999997  0.13808  0.44143999999999994  1.0000
