data_image0
_chemical_formula_structural       Zn16P16H336C272N16O72
_chemical_formula_sum              "Zn16 P16 H336 C272 N16 O72"
_cell_length_a       27.62978
_cell_length_b       27.632030000000004
_cell_length_c       29.438920000000003
_cell_angle_alpha    118.05947
_cell_angle_beta     118.06225
_cell_angle_gamma    89.91751

_symmetry_space_group_name_H-M    'P 1'
_symmetry_Int_Tables_number       1

loop_
  _symmetry_equiv_pos_as_xyz
  'x,y,z'

loop_
  _atom_site_type_symbol
  _atom_site_label
  _atom_site_symmetry_multiplicity
  _atom_site_fract_x
  _atom_site_fract_y
  _atom_site_fract_z
  _atom_site_occupancy
  Zn  Zn1       1.0  0.69962  0.6784999999999998  0.7499099999999999  1.0000
  Zn  Zn2       1.0  0.5849699999999998  0.7389299999999998  0.6558499999999999  1.0000
  Zn  Zn3       1.0  0.05067999999999997  0.07163999999999998  0.75033  1.0000
  Zn  Zn4       1.0  0.07091999999999994  0.9169299999999997  0.65589  1.0000
  Zn  Zn5       1.0  0.9287399999999999  0.3001999999999999  0.25006999999999996  1.0000
  Zn  Zn6       1.0  0.08332999999999997  0.4146799999999999  0.34369999999999995  1.0000
  Zn  Zn7       1.0  0.3215  0.9498299999999997  0.25026  1.0000
  Zn  Zn8       1.0  0.26154  0.9293399999999998  0.34459  1.0000
  Zn  Zn9       1.0  0.5502  0.6787399999999998  0.75008  1.0000
  Zn  Zn10      1.0  0.66467  0.8333199999999997  0.84371  1.0000
  Zn  Zn11      1.0  0.19982  0.07151000000000002  0.75026  1.0000
  Zn  Zn12      1.0  0.17935000000000006  0.01153000000000001  0.84459  1.0000
  Zn  Zn13      1.0  0.32161  0.8006499999999998  0.2503  1.0000
  Zn  Zn14      1.0  0.16694  0.8209499999999997  0.15591  1.0000
  Zn  Zn15      1.0  0.9285  0.44962999999999975  0.24992  1.0000
  Zn  Zn16      1.0  0.98891  0.33496999999999993  0.15583  1.0000
  P   P1        1.0  0.71271  0.7968899999999998  0.7581299999999999  1.0000
  P   P2        1.0  0.5753799999999998  0.6188699999999999  0.6419999999999999  1.0000
  P   P3        1.0  0.04556000000000006  0.9618  0.75838  1.0000
  P   P4        1.0  0.06656000000000006  0.023140000000000032  0.64199  1.0000
  P   P5        1.0  0.03879999999999998  0.28697  0.24184999999999998  1.0000
  P   P6        1.0  0.9771599999999999  0.4248599999999999  0.35808999999999996  1.0000
  P   P7        1.0  0.20324000000000006  0.9546199999999998  0.24197999999999995  1.0000
  P   P8        1.0  0.38172999999999996  0.9339899999999999  0.35853999999999997  1.0000
  P   P9        1.0  0.53697  0.7888  0.74186  1.0000
  P   P10       1.0  0.67486  0.7271699999999998  0.8581  1.0000
  P   P11       1.0  0.20461  0.9532399999999998  0.74198  1.0000
  P   P12       1.0  0.18401000000000006  0.13175000000000003  0.85857  1.0000
  P   P13       1.0  0.2118  0.79556  0.25839  1.0000
  P   P14       1.0  0.27314  0.81654  0.14199  1.0000
  P   P15       1.0  0.04688  0.46269999999999983  0.25809  1.0000
  P   P16       1.0  0.8688699999999999  0.32539  0.142  1.0000
  H   H1        1.0  0.35996  0.46375  0.43352  1.0000
  H   H2        1.0  0.34862  0.41433999999999993  0.48114  1.0000
  H   H3        1.0  0.43243  0.42822  0.57557  1.0000
  H   H4        1.0  0.57763  0.52697  0.65671  1.0000
  H   H5        1.0  0.57181  0.50829  0.72845  1.0000
  H   H6        1.0  0.49822  0.47130999999999995  0.67538  1.0000
  H   H7        1.0  0.52288  0.5459199999999997  0.7066099999999998  1.0000
  H   H8        1.0  0.59939  0.43937999999999994  0.65528  1.0000
  H   H9        1.0  0.56905  0.4282799999999999  0.58165  1.0000
  H   H10       1.0  0.52688  0.39903999999999995  0.59814  1.0000
  H   H11       1.0  0.50093  0.55668  0.4949  1.0000
  H   H12       1.0  0.45197  0.62077  0.53812  1.0000
  H   H13       1.0  0.38415  0.57622  0.47017  1.0000
  H   H14       1.0  0.43449  0.6147  0.46904  1.0000
  H   H15       1.0  0.44334000000000007  0.46276999999999996  0.39277  1.0000
  H   H16       1.0  0.43664000000000003  0.52383  0.38674  1.0000
  H   H17       1.0  0.3806399999999999  0.48549999999999993  0.3806999999999999  1.0000
  H   H18       1.0  0.75957  0.009109999999999964  0.7935799999999998  1.0000
  H   H19       1.0  0.83924  0.05852000000000003  0.90167  1.0000
  H   H20       1.0  0.88557  0.0019499999999999977  0.94599  1.0000
  H   H21       1.0  0.8341000000000001  0.8414399999999997  0.86011  1.0000
  H   H22       1.0  0.82498  0.90514  0.94873  1.0000
  H   H23       1.0  0.89381  0.9516499999999999  0.9873199999999999  1.0000
  H   H24       1.0  0.88675  0.8812399999999998  0.97174  1.0000
  H   H25       1.0  0.9392999999999999  0.85891  0.9145199999999999  1.0000
  H   H26       1.0  0.9493599999999999  0.9304899999999998  0.9326899999999999  1.0000
  H   H27       1.0  0.91734  0.87344  0.85611  1.0000
  H   H28       1.0  0.82586  0.5837299999999997  0.78909  1.0000
  H   H29       1.0  0.92236  0.6228499999999998  0.88563  1.0000
  H   H30       1.0  0.8953400000000001  0.79038  0.9393699999999998  1.0000
  H   H31       1.0  0.80113  0.7449799999999998  0.84124  1.0000
  H   H32       1.0  0.05550999999999998  0.84986  0.12317999999999997  1.0000
  H   H33       1.0  0.95535  0.8075899999999998  0.03294  1.0000
  H   H34       1.0  0.013220000000000003  0.6737699999999999  0.93576  1.0000
  H   H35       1.0  0.11014  0.7203699999999997  0.031099999999999996  1.0000
  H   H36       1.0  0.7107300000000001  0.8485099999999998  0.68903  1.0000
  H   H37       1.0  0.62212  0.8789099999999997  0.65098  1.0000
  H   H38       1.0  0.65502  0.94553  0.72122  1.0000
  H   H39       1.0  0.64177  0.8812799999999997  0.71904  1.0000
  H   H40       1.0  0.77149  0.91086  0.68364  1.0000
  H   H41       1.0  0.7311300000000001  0.9606599999999997  0.69354  1.0000
  H   H42       1.0  0.69769  0.89094  0.62768  1.0000
  H   H43       1.0  0.07352999999999997  0.9695599999999998  0.4338  1.0000
  H   H44       1.0  0.13242  0.06675  0.4816  1.0000
  H   H45       1.0  0.14268  0.1473299999999999  0.57575  1.0000
  H   H46       1.0  0.07821000000000004  0.12970999999999994  0.65644  1.0000
  H   H47       1.0  0.1559799999999999  0.22010999999999983  0.7283399999999999  1.0000
  H   H48       1.0  0.17654  0.20393  0.67537  1.0000
  H   H49       1.0  0.18302999999999991  0.16057  0.70651  1.0000
  H   H50       1.0  0.055309999999999984  0.21595  0.65503  1.0000
  H   H51       1.0  0.011970000000000027  0.15337  0.58134  1.0000
  H   H52       1.0  0.07085000000000005  0.19900000000000007  0.59803  1.0000
  H   H53       1.0  0.9936  0.9377499999999998  0.4947  1.0000
  H   H54       1.0  0.08581999999999998  0.9170500000000001  0.53798  1.0000
  H   H55       1.0  0.08584999999999995  0.8937299999999998  0.47017999999999993  1.0000
  H   H56       1.0  0.03436000000000001  0.85396  0.46884  1.0000
  H   H57       1.0  0.9491  0.92975  0.39276  1.0000
  H   H58       1.0  0.94968  0.8624899999999998  0.38637  1.0000
  H   H59       1.0  0.9996999999999999  0.8949999999999998  0.38056999999999996  1.0000
  H   H60       1.0  0.03384999999999999  0.78481  0.79286  1.0000
  H   H61       1.0  0.06267000000000009  0.8433299999999998  0.90109  1.0000
  H   H62       1.0  0.0605299999999999  0.9443599999999999  0.9457899999999998  1.0000
  H   H63       1.0  0.025920000000000044  0.019060000000000046  0.86005  1.0000
  H   H64       1.0  0.12365999999999998  0.04376999999999993  0.9486599999999998  1.0000
  H   H65       1.0  0.09328999999999997  0.03586999999999995  0.98709  1.0000
  H   H66       1.0  0.085  0.09084000000000002  0.97172  1.0000
  H   H67       1.0  0.97509  0.05582999999999996  0.91433  1.0000
  H   H68       1.0  0.9829699999999999  0.0021799999999999493  0.9321399999999999  1.0000
  H   H69       1.0  0.93856  0.98289  0.85563  1.0000
  H   H70       1.0  0.9640200000000001  0.20640999999999993  0.7900299999999999  1.0000
  H   H71       1.0  0.9639200000000001  0.2634199999999999  0.8864199999999998  1.0000
  H   H72       1.0  0.044059999999999905  0.14902999999999986  0.9393899999999997  1.0000
  H   H73       1.0  0.04026999999999986  0.09662999999999991  0.8414399999999997  1.0000
  H   H74       1.0  0.06745  0.27274  0.1232  1.0000
  H   H75       1.0  0.07767000000000002  0.22522999999999996  0.03325  1.0000
  H   H76       1.0  0.92287  0.2624899999999999  0.93631  1.0000
  H   H77       1.0  0.92107  0.3105899999999999  0.03145  1.0000
  H   H78       1.0  0.9779899999999999  0.8406699999999998  0.68848  1.0000
  H   H79       1.0  0.02862999999999995  0.7722099999999997  0.65071  1.0000
  H   H80       1.0  0.06599  0.7760799999999998  0.72102  1.0000
  H   H81       1.0  0.07706000000000005  0.8380299999999998  0.71869  1.0000
  H   H82       1.0  0.91184  0.77295  0.68319  1.0000
  H   H83       1.0  0.96217  0.7331599999999998  0.69323  1.0000
  H   H84       1.0  0.9297700000000002  0.73689  0.62734  1.0000
  H   H85       1.0  0.030339999999999985  0.64047  0.56669  1.0000
  H   H86       1.0  0.9330799999999999  0.6515  0.5189899999999998  1.0000
  H   H87       1.0  0.8526899999999998  0.5675599999999997  0.4246599999999999  1.0000
  H   H88       1.0  0.8706900000000001  0.42242  0.34374  1.0000
  H   H89       1.0  0.78014  0.4282799999999999  0.2717899999999999  1.0000
  H   H90       1.0  0.79621  0.5018399999999998  0.32486  1.0000
  H   H91       1.0  0.83961  0.47720999999999997  0.29373  1.0000
  H   H92       1.0  0.7843899999999999  0.4009099999999999  0.34509  1.0000
  H   H93       1.0  0.8469699999999998  0.4313299999999999  0.41877999999999993  1.0000
  H   H94       1.0  0.80123  0.4735299999999999  0.40206  1.0000
  H   H95       1.0  0.06255000000000001  0.4996299999999999  0.5055  1.0000
  H   H96       1.0  0.08317  0.5487499999999998  0.4625  1.0000
  H   H97       1.0  0.10621000000000001  0.6165599999999999  0.53033  1.0000
  H   H98       1.0  0.14623  0.56647  0.5317  1.0000
  H   H99       1.0  0.07032999999999996  0.55678  0.60732  1.0000
  H   H100      1.0  0.13763  0.5639399999999998  0.61388  1.0000
  H   H101      1.0  0.10493999999999999  0.61974  0.61979  1.0000
  H   H102      1.0  0.21560999999999997  0.24053999999999992  0.20644999999999997  1.0000
  H   H103      1.0  0.15677  0.16102  0.09821  1.0000
  H   H104      1.0  0.055889999999999995  0.11450999999999997  0.053919999999999996  1.0000
  H   H105      1.0  0.98149  0.16598999999999997  0.13993999999999998  1.0000
  H   H106      1.0  0.9564400000000001  0.17490999999999998  0.05125  1.0000
  H   H107      1.0  0.96427  0.10596999999999997  0.01272  1.0000
  H   H108      1.0  0.9095300000000001  0.11332999999999997  0.0284  1.0000
  H   H109      1.0  0.9445500000000001  0.06090999999999999  0.08571  1.0000
  H   H110      1.0  0.99801  0.0506  0.0676  1.0000
  H   H111      1.0  0.01757  0.0828  0.14419  1.0000
  H   H112      1.0  0.79431  0.17437999999999995  0.21067  1.0000
  H   H113      1.0  0.7370300000000001  0.07788  0.11421  1.0000
  H   H114      1.0  0.85128  0.10421999999999995  0.06093  1.0000
  H   H115      1.0  0.90394  0.19852  0.15898  1.0000
  H   H116      1.0  0.72684  0.9444699999999999  0.8769499999999999  1.0000
  H   H117      1.0  0.7746899999999999  0.04462999999999995  0.9672399999999999  1.0000
  H   H118      1.0  0.73795  0.9865899999999997  0.06406999999999999  1.0000
  H   H119      1.0  0.68939  0.88962  0.9686  1.0000
  H   H120      1.0  0.15983  0.28917999999999994  0.31105  1.0000
  H   H121      1.0  0.22805  0.3777599999999999  0.34904  1.0000
  H   H122      1.0  0.2242  0.34488  0.27873  1.0000
  H   H123      1.0  0.16220000000000004  0.35813  0.28108  1.0000
  H   H124      1.0  0.22763  0.22839999999999994  0.31646  1.0000
  H   H125      1.0  0.26746  0.26864  0.30655  1.0000
  H   H126      1.0  0.26361  0.30223  0.37238  1.0000
  H   H127      1.0  0.53592  0.9261699999999998  0.56617  1.0000
  H   H128      1.0  0.58533  0.8671099999999998  0.51835  1.0000
  H   H129      1.0  0.5717799999999998  0.85697  0.42435  1.0000
  H   H130      1.0  0.47350000000000003  0.9215899999999998  0.34363999999999995  1.0000
  H   H131      1.0  0.49199000000000004  0.8438799999999997  0.27181  1.0000
  H   H132      1.0  0.52906  0.82331  0.32477  1.0000
  H   H133      1.0  0.45448  0.81683  0.29369  1.0000
  H   H134      1.0  0.56102  0.94459  0.34512  1.0000
  H   H135      1.0  0.57213  0.9879799999999997  0.41877  1.0000
  H   H136      1.0  0.60136  0.9291799999999997  0.4022099999999999  1.0000
  H   H137      1.0  0.44317000000000006  0.006260000000000002  0.50514  1.0000
  H   H138      1.0  0.37941  0.9139799999999998  0.4619199999999999  1.0000
  H   H139      1.0  0.42402  0.9142199999999998  0.52989  1.0000
  H   H140      1.0  0.38533  0.9655899999999995  0.53095  1.0000
  H   H141      1.0  0.537  0.05106999999999994  0.6072  1.0000
  H   H142      1.0  0.47597  0.05019000000000001  0.61331  1.0000
  H   H143      1.0  0.51471  0.0004199999999999619  0.61941  1.0000
  H   H144      1.0  0.9911200000000001  0.9661899999999998  0.20654  1.0000
  H   H145      1.0  0.9417100000000002  0.9375999999999999  0.09845  1.0000
  H   H146      1.0  0.99827  0.9396399999999998  0.05418  1.0000
  H   H147      1.0  0.15881  0.97404  0.14032  1.0000
  H   H148      1.0  0.09506  0.8763799999999998  0.05145  1.0000
  H   H149      1.0  0.04867  0.90688  0.013059999999999997  1.0000
  H   H150      1.0  0.11909000000000002  0.9152299999999998  0.02867  1.0000
  H   H151      1.0  0.1416  0.024979999999999992  0.08619  1.0000
  H   H152      1.0  0.06997  0.017029999999999993  0.0679  1.0000
  H   H153      1.0  0.12694  0.061509999999999995  0.14456  1.0000
  H   H154      1.0  0.41617999999999994  0.03630000000000001  0.21077  1.0000
  H   H155      1.0  0.37706000000000006  0.03625  0.11433  1.0000
  H   H156      1.0  0.20952  0.9555099999999997  0.06035999999999999  1.0000
  H   H157      1.0  0.25491  0.9594299999999998  0.15842  1.0000
  H   H158      1.0  0.14985999999999994  0.9325399999999998  0.8768599999999999  1.0000
  H   H159      1.0  0.19211999999999996  0.9222499999999998  0.9667599999999998  1.0000
  H   H160      1.0  0.32644  0.07695  0.06417  1.0000
  H   H161      1.0  0.2797200000000001  0.07883999999999995  0.9691399999999999  1.0000
  H   H162      1.0  0.15164  0.021930000000000026  0.31126  1.0000
  H   H163      1.0  0.12127999999999997  0.97118  0.349  1.0000
  H   H164      1.0  0.05475  0.93382  0.27868  1.0000
  H   H165      1.0  0.11911  0.92286  0.28103  1.0000
  H   H166      1.0  0.08919  0.08813000000000001  0.31678  1.0000
  H   H167      1.0  0.03941000000000003  0.037790000000000025  0.30666  1.0000
  H   H168      1.0  0.10909999999999996  0.07010999999999995  0.37255999999999995  1.0000
  H   H169      1.0  0.89047  0.7803499999999998  0.06669  1.0000
  H   H170      1.0  0.90149  0.6830799999999998  0.01899  1.0000
  H   H171      1.0  0.81756  0.6026899999999998  0.92466  1.0000
  H   H172      1.0  0.6724300000000001  0.6206899999999997  0.84375  1.0000
  H   H173      1.0  0.67827  0.5301399999999998  0.77179  1.0000
  H   H174      1.0  0.75183  0.5462099999999999  0.82487  1.0000
  H   H175      1.0  0.7272100000000001  0.58962  0.79374  1.0000
  H   H176      1.0  0.6509000000000001  0.5343899999999999  0.84508  1.0000
  H   H177      1.0  0.68132  0.5969799999999997  0.91879  1.0000
  H   H178      1.0  0.72351  0.5512299999999999  0.90205  1.0000
  H   H179      1.0  0.74965  0.81255  0.005509999999999999  1.0000
  H   H180      1.0  0.79876  0.8331599999999998  0.9625  1.0000
  H   H181      1.0  0.86655  0.8562099999999998  0.030339999999999995  1.0000
  H   H182      1.0  0.81648  0.8962299999999997  0.03171  1.0000
  H   H183      1.0  0.80678  0.8203299999999998  0.10733  1.0000
  H   H184      1.0  0.8139400000000001  0.88764  0.11389  1.0000
  H   H185      1.0  0.86974  0.8549299999999997  0.11979  1.0000
  H   H186      1.0  0.49054  0.9656199999999998  0.70644  1.0000
  H   H187      1.0  0.41101999999999994  0.9067699999999997  0.5982099999999999  1.0000
  H   H188      1.0  0.36452  0.8058899999999998  0.55392  1.0000
  H   H189      1.0  0.41599000000000014  0.7314899999999999  0.63994  1.0000
  H   H190      1.0  0.42490000000000006  0.70644  0.55124  1.0000
  H   H191      1.0  0.35596  0.71428  0.51272  1.0000
  H   H192      1.0  0.36333  0.65953  0.52841  1.0000
  H   H193      1.0  0.31092  0.69456  0.58572  1.0000
  H   H194      1.0  0.30060999999999993  0.74801  0.5676199999999999  1.0000
  H   H195      1.0  0.3328  0.7675699999999999  0.64419  1.0000
  H   H196      1.0  0.4243799999999999  0.5442999999999999  0.7106699999999999  1.0000
  H   H197      1.0  0.32788  0.48702  0.6142  1.0000
  H   H198      1.0  0.35421  0.6012799999999998  0.56093  1.0000
  H   H199      1.0  0.44851  0.65394  0.65898  1.0000
  H   H200      1.0  0.19447  0.4768399999999999  0.37694  1.0000
  H   H201      1.0  0.29462  0.52469  0.46722999999999987  1.0000
  H   H202      1.0  0.23658  0.4879399999999999  0.56406  1.0000
  H   H203      1.0  0.13962  0.4393899999999999  0.46859  1.0000
  H   H204      1.0  0.53918  0.9098199999999997  0.8110499999999999  1.0000
  H   H205      1.0  0.62776  0.9780499999999998  0.84904  1.0000
  H   H206      1.0  0.59488  0.9742099999999999  0.77873  1.0000
  H   H207      1.0  0.60812  0.9121999999999999  0.78108  1.0000
  H   H208      1.0  0.47839000000000004  0.9776199999999998  0.81646  1.0000
  H   H209      1.0  0.5186299999999999  0.01745999999999995  0.8065399999999999  1.0000
  H   H210      1.0  0.55223  0.013609999999999978  0.87239  1.0000
  H   H211      1.0  0.17617  0.28593  0.06618  1.0000
  H   H212      1.0  0.11712  0.3353299999999999  0.01836  1.0000
  H   H213      1.0  0.10698000000000003  0.32179  0.92435  1.0000
  H   H214      1.0  0.17158999999999985  0.22349999999999992  0.8436499999999998  1.0000
  H   H215      1.0  0.09386999999999994  0.24198999999999998  0.77181  1.0000
  H   H216      1.0  0.07331000000000003  0.27905  0.82477  1.0000
  H   H217      1.0  0.06683000000000001  0.20448999999999998  0.7937  1.0000
  H   H218      1.0  0.1946  0.31101999999999996  0.84513  1.0000
  H   H219      1.0  0.23798000000000008  0.32212999999999997  0.91877  1.0000
  H   H220      1.0  0.17918000000000006  0.3513699999999999  0.90222  1.0000
  H   H221      1.0  0.25627  0.19317999999999996  0.00515  1.0000
  H   H222      1.0  0.16398999999999997  0.12941  0.96191  1.0000
  H   H223      1.0  0.16421  0.17402  0.02988  1.0000
  H   H224      1.0  0.21559  0.13533  0.03095  1.0000
  H   H225      1.0  0.30107  0.2869999999999999  0.10722  1.0000
  H   H226      1.0  0.30019  0.22597999999999993  0.11331999999999998  1.0000
  H   H227      1.0  0.25041  0.26471  0.11942  1.0000
  H   H228      1.0  0.21618  0.7411099999999998  0.70653  1.0000
  H   H229      1.0  0.18758  0.6917  0.59844  1.0000
  H   H230      1.0  0.18962999999999997  0.7482599999999998  0.55416  1.0000
  H   H231      1.0  0.22404999999999994  0.9088199999999997  0.6403299999999998  1.0000
  H   H232      1.0  0.12639  0.8450499999999997  0.55144  1.0000
  H   H233      1.0  0.15687  0.79866  0.51305  1.0000
  H   H234      1.0  0.16522000000000003  0.8690899999999997  0.52866  1.0000
  H   H235      1.0  0.2749700000000001  0.8915899999999998  0.58618  1.0000
  H   H236      1.0  0.26703  0.8199599999999998  0.56789  1.0000
  H   H237      1.0  0.3115  0.8769299999999998  0.64454  1.0000
  H   H238      1.0  0.2863  0.16620000000000004  0.71078  1.0000
  H   H239      1.0  0.28625000000000006  0.12706999999999996  0.61432  1.0000
  H   H240      1.0  0.20552  0.9594999999999998  0.56036  1.0000
  H   H241      1.0  0.20945000000000003  0.004909999999999959  0.65844  1.0000
  H   H242      1.0  0.18255000000000002  0.8998599999999998  0.37687  1.0000
  H   H243      1.0  0.17226  0.94212  0.46677  1.0000
  H   H244      1.0  0.32695  0.07645999999999999  0.56417  1.0000
  H   H245      1.0  0.32883  0.02973  0.46914  1.0000
  H   H246      1.0  0.2719299999999999  0.9016499999999997  0.8112599999999998  1.0000
  H   H247      1.0  0.22119  0.87128  0.8489899999999999  1.0000
  H   H248      1.0  0.18381999999999996  0.8047499999999997  0.7786799999999998  1.0000
  H   H249      1.0  0.17288000000000006  0.86912  0.78103  1.0000
  H   H250      1.0  0.33812  0.83919  0.81677  1.0000
  H   H251      1.0  0.28779999999999994  0.7893999999999997  0.8066499999999999  1.0000
  H   H252      1.0  0.32011  0.8590999999999999  0.87255  1.0000
  H   H253      1.0  0.21955999999999995  0.82353  0.93381  1.0000
  H   H254      1.0  0.31674  0.8824099999999998  0.9816  1.0000
  H   H255      1.0  0.39732  0.89268  0.07575  1.0000
  H   H256      1.0  0.37971  0.8282  0.15644999999999998  1.0000
  H   H257      1.0  0.4701199999999999  0.9059799999999998  0.22834999999999994  1.0000
  H   H258      1.0  0.45393000000000006  0.9265399999999998  0.17537  1.0000
  H   H259      1.0  0.41057  0.9330399999999998  0.20652  1.0000
  H   H260      1.0  0.46595  0.80531  0.15503  1.0000
  H   H261      1.0  0.40337  0.7619699999999998  0.08134  1.0000
  H   H262      1.0  0.449  0.82085  0.09803  1.0000
  H   H263      1.0  0.18774999999999992  0.7435899999999998  0.9946999999999999  1.0000
  H   H264      1.0  0.16704  0.8358099999999998  0.03798  1.0000
  H   H265      1.0  0.14372  0.8358399999999999  0.9701799999999999  1.0000
  H   H266      1.0  0.10396  0.78435  0.96884  1.0000
  H   H267      1.0  0.17975000000000008  0.6991  0.89277  1.0000
  H   H268      1.0  0.11249000000000006  0.69967  0.88637  1.0000
  H   H269      1.0  0.14498999999999998  0.7497  0.8805699999999999  1.0000
  H   H270      1.0  0.03482000000000003  0.78384  0.29287  1.0000
  H   H271      1.0  0.09332999999999994  0.81266  0.40108999999999995  1.0000
  H   H272      1.0  0.19435000000000002  0.8105299999999998  0.44578  1.0000
  H   H273      1.0  0.26906  0.7759299999999998  0.36006  1.0000
  H   H274      1.0  0.29377  0.8736699999999997  0.44866  1.0000
  H   H275      1.0  0.28587  0.8432899999999998  0.4871  1.0000
  H   H276      1.0  0.34083  0.835  0.47172  1.0000
  H   H277      1.0  0.30584  0.72509  0.41433999999999993  1.0000
  H   H278      1.0  0.25218  0.7329799999999997  0.43213999999999997  1.0000
  H   H279      1.0  0.2329  0.6885599999999997  0.35563  1.0000
  H   H280      1.0  0.45641000000000004  0.7140099999999998  0.29004  1.0000
  H   H281      1.0  0.51341  0.7139199999999998  0.38643  1.0000
  H   H282      1.0  0.39905  0.79408  0.43939  1.0000
  H   H283      1.0  0.34665  0.7902899999999999  0.34145  1.0000
  H   H284      1.0  0.52274  0.81746  0.62321  1.0000
  H   H285      1.0  0.47523  0.8276799999999997  0.53326  1.0000
  H   H286      1.0  0.51249  0.67287  0.43632  1.0000
  H   H287      1.0  0.56058  0.67105  0.53145  1.0000
  H   H288      1.0  0.09065999999999999  0.7279899999999999  0.18847999999999998  1.0000
  H   H289      1.0  0.02221  0.77863  0.15071  1.0000
  H   H290      1.0  0.02608999999999999  0.8159899999999998  0.22102  1.0000
  H   H291      1.0  0.08803  0.8270699999999996  0.21869  1.0000
  H   H292      1.0  0.02294  0.6618399999999999  0.1832  1.0000
  H   H293      1.0  0.98316  0.7121699999999999  0.19322999999999996  1.0000
  H   H294      1.0  0.98689  0.67977  0.12734  1.0000
  H   H295      1.0  0.7137499999999999  0.10994999999999995  0.9335199999999999  1.0000
  H   H296      1.0  0.66434  0.09859999999999994  0.9811399999999999  1.0000
  H   H297      1.0  0.67823  0.18244  0.07557  1.0000
  H   H298      1.0  0.77697  0.32763  0.15672  1.0000
  H   H299      1.0  0.75829  0.32181  0.22844  1.0000
  H   H300      1.0  0.72131  0.24822  0.17538  1.0000
  H   H301      1.0  0.79592  0.27287999999999996  0.20661  1.0000
  H   H302      1.0  0.68938  0.34938  0.15527  1.0000
  H   H303      1.0  0.67828  0.31905  0.08165  1.0000
  H   H304      1.0  0.64904  0.27687999999999996  0.09813  1.0000
  H   H305      1.0  0.80667  0.25095  0.99491  1.0000
  H   H306      1.0  0.87076  0.20197  0.03812  1.0000
  H   H307      1.0  0.8262200000000002  0.1341399999999999  0.97017  1.0000
  H   H308      1.0  0.8646899999999998  0.1844999999999999  0.9690499999999999  1.0000
  H   H309      1.0  0.71278  0.19334  0.89278  1.0000
  H   H310      1.0  0.7738300000000001  0.1866399999999999  0.8867399999999999  1.0000
  H   H311      1.0  0.7355  0.13063  0.88069  1.0000
  H   H312      1.0  0.2591  0.50956  0.29358  1.0000
  H   H313      1.0  0.3085  0.58923  0.40165  1.0000
  H   H314      1.0  0.25194  0.63556  0.44599  1.0000
  H   H315      1.0  0.09144999999999999  0.5840999999999996  0.36010999999999993  1.0000
  H   H316      1.0  0.15513  0.5749699999999999  0.44872  1.0000
  H   H317      1.0  0.20165  0.6438  0.48731  1.0000
  H   H318      1.0  0.13124  0.6367599999999998  0.47173  1.0000
  H   H319      1.0  0.10891000000000003  0.6892899999999998  0.41452  1.0000
  H   H320      1.0  0.1805  0.6993499999999998  0.43269  1.0000
  H   H321      1.0  0.12344  0.66733  0.3561  1.0000
  H   H322      1.0  0.83374  0.57586  0.28909  1.0000
  H   H323      1.0  0.87286  0.6723599999999997  0.3856399999999999  1.0000
  H   H324      1.0  0.040380000000000006  0.6453299999999998  0.43937  1.0000
  H   H325      1.0  0.99497  0.5511299999999999  0.34123  1.0000
  H   H326      1.0  0.09984999999999992  0.8054999999999999  0.62318  1.0000
  H   H327      1.0  0.05759  0.70534  0.53294  1.0000
  H   H328      1.0  0.92377  0.7632099999999998  0.43574999999999997  1.0000
  H   H329      1.0  0.97037  0.8601299999999997  0.53109  1.0000
  H   H330      1.0  0.09853  0.4607199999999999  0.18903  1.0000
  H   H331      1.0  0.12892  0.37212  0.15097  1.0000
  H   H332      1.0  0.19554  0.40503  0.22122  1.0000
  H   H333      1.0  0.13128  0.3917599999999999  0.21904  1.0000
  H   H334      1.0  0.16087  0.5214899999999999  0.18364  1.0000
  H   H335      1.0  0.21066  0.48113  0.19353999999999996  1.0000
  H   H336      1.0  0.14095  0.44767999999999997  0.12768  1.0000
  C   C1        1.0  0.49480999999999997  0.5179099999999999  0.5575499999999999  1.0000
  C   C2        1.0  0.44857  0.50917  0.5028  1.0000
  C   C3        1.0  0.3960600000000001  0.4716  0.47617  1.0000
  C   C4        1.0  0.38973  0.4435  0.50274  1.0000
  C   C5        1.0  0.43679  0.4516999999999998  0.5559899999999999  1.0000
  C   C6        1.0  0.49044000000000004  0.48839999999999995  0.58422  1.0000
  C   C7        1.0  0.54239  0.49181999999999987  0.63831  1.0000
  C   C8        1.0  0.53285  0.5049399999999999  0.6898599999999999  1.0000
  C   C9        1.0  0.56036  0.43631  0.61698  1.0000
  C   C10       1.0  0.45495  0.53997  0.47383  1.0000
  C   C11       1.0  0.42996000000000006  0.5910399999999997  0.48879999999999996  1.0000
  C   C12       1.0  0.42739  0.5005299999999998  0.4047  1.0000
  C   C13       1.0  0.78571  0.8932199999999998  0.80332  1.0000
  C   C14       1.0  0.75992  0.9242299999999998  0.77627  1.0000
  C   C15       1.0  0.77942  0.9841299999999997  0.81316  1.0000
  C   C16       1.0  0.82408  0.01202999999999992  0.8739799999999999  1.0000
  C   C17       1.0  0.8500999999999997  0.9800199999999999  0.8988399999999998  1.0000
  C   C18       1.0  0.8314499999999999  0.9200799999999999  0.8642899999999999  1.0000
  C   C19       1.0  0.86093  0.8859099999999998  0.89187  1.0000
  C   C20       1.0  0.86676  0.9073099999999998  0.95323  1.0000
  C   C21       1.0  0.91992  0.8871199999999998  0.89894  1.0000
  C   C22       1.0  0.84485  0.62874  0.82451  1.0000
  C   C23       1.0  0.8976  0.65172  0.87766  1.0000
  C   C24       1.0  0.91815  0.7107699999999998  0.921  1.0000
  C   C25       1.0  0.9754599999999999  0.7363999999999998  0.9763599999999999  1.0000
  C   C26       1.0  0.8821  0.7443299999999999  0.9081999999999999  1.0000
  C   C27       1.0  0.82957  0.7204599999999998  0.85445  1.0000
  C   C28       1.0  0.04345  0.81028  0.08088  1.0000
  C   C29       1.0  0.98819  0.78688  0.0301  1.0000
  C   C30       1.0  0.020079999999999917  0.7117499999999999  0.9766299999999998  1.0000
  C   C31       1.0  0.07412  0.7373899999999999  0.029179999999999998  1.0000
  C   C32       1.0  0.71356  0.8941399999999998  0.70919  1.0000
  C   C33       1.0  0.6547200000000001  0.9004299999999997  0.69974  1.0000
  C   C34       1.0  0.7295100000000002  0.91544  0.67681  1.0000
  C   C35       1.0  0.06216  0.03943999999999998  0.55739  1.0000
  C   C36       1.0  0.053850000000000016  0.9933799999999998  0.50277  1.0000
  C   C37       1.0  0.07987000000000001  0.004410000000000018  0.47633  1.0000
  C   C38       1.0  0.11268  0.05917999999999996  0.50298  1.0000
  C   C39       1.0  0.11874  0.10425  0.55613  1.0000
  C   C40       1.0  0.09315999999999995  0.09571  0.58415  1.0000
  C   C41       1.0  0.09520000000000002  0.1464  0.63814  1.0000
  C   C42       1.0  0.15632999999999994  0.18480999999999992  0.68978  1.0000
  C   C43       1.0  0.05602999999999993  0.18064  0.61677  1.0000
  C   C44       1.0  0.018540000000000004  0.9334999999999998  0.47369  1.0000
  C   C45       1.0  0.05857000000000002  0.89746  0.48866  1.0000
  C   C46       1.0  0.97694  0.90384  0.40454  1.0000
  C   C47       1.0  0.017510000000000032  0.9105399999999998  0.80315  1.0000
  C   C48       1.0  0.016200000000000003  0.8524899999999997  0.7759  1.0000
  C   C49       1.0  0.03366999999999999  0.8293999999999998  0.81267  1.0000
  C   C50       1.0  0.05004999999999997  0.86226  0.8735499999999999  1.0000
  C   C51       1.0  0.04885999999999999  0.91914  0.89863  1.0000
  C   C52       1.0  0.03282999999999999  0.9445699999999998  0.86414  1.0000
  C   C53       1.0  0.030829999999999972  0.006289999999999926  0.8917299999999999  1.0000
  C   C54       1.0  0.08635999999999987  0.046209999999999876  0.9531199999999997  1.0000
  C   C55       1.0  0.9787999999999999  0.01198999999999985  0.8985899999999998  1.0000
  C   C56       1.0  0.9802600000000001  0.19649999999999995  0.82519  1.0000
  C   C57       1.0  0.9805399999999999  0.22648999999999986  0.8782799999999998  1.0000
  C   C58       1.0  0.003049999999999964  0.21052999999999994  0.9214  1.0000
  C   C59       1.0  0.0010599999999999477  0.24008  0.97672  1.0000
  C   C60       1.0  0.026199999999999987  0.16412  0.90842  1.0000
  C   C61       1.0  0.025120000000000003  0.13440999999999997  0.85477  1.0000
  C   C62       1.0  0.037340000000000005  0.27022  0.08101  1.0000
  C   C63       1.0  0.04196  0.24308  0.030339999999999995  1.0000
  C   C64       1.0  0.95675  0.26505999999999985  0.9770299999999998  1.0000
  C   C65       1.0  0.95513  0.29164  0.029449999999999997  1.0000
  C   C66       1.0  0.9953800000000002  0.81535  0.7088099999999999  1.0000
  C   C67       1.0  0.04478000000000004  0.7995999999999999  0.69944  1.0000
  C   C68       1.0  0.9470500000000001  0.7615999999999998  0.67646  1.0000
  C   C69       1.0  0.9608199999999999  0.50547  0.44278999999999996  1.0000
  C   C70       1.0  0.00675  0.5517999999999998  0.49754  1.0000
  C   C71       1.0  0.99561  0.60424  0.52413  1.0000
  C   C72       1.0  0.94079  0.61042  0.49751999999999996  1.0000
  C   C73       1.0  0.8958300000000001  0.56329  0.44429  1.0000
  C   C74       1.0  0.90449  0.5096899999999999  0.41609  1.0000
  C   C75       1.0  0.85388  0.4576999999999999  0.36202  1.0000
  C   C76       1.0  0.81539  0.4671999999999999  0.3104  1.0000
  C   C77       1.0  0.81965  0.43992  0.38334  1.0000
  C   C78       1.0  0.06667  0.54559  0.52661  1.0000
  C   C79       1.0  0.10267000000000001  0.5707899999999998  0.51181  1.0000
  C   C80       1.0  0.09623  0.5730099999999998  0.59571  1.0000
  C   C81       1.0  0.09014999999999998  0.2141799999999999  0.19672999999999993  1.0000
  C   C82       1.0  0.14816  0.24001  0.22375999999999996  1.0000
  C   C83       1.0  0.17106  0.22065  0.18682  1.0000
  C   C84       1.0  0.13805  0.17607999999999993  0.12594999999999998  1.0000
  C   C85       1.0  0.08121000000000002  0.14998  0.10108  1.0000
  C   C86       1.0  0.05593  0.16852999999999996  0.13572  1.0000
  C   C87       1.0  0.9942000000000001  0.13907999999999998  0.10821999999999998  1.0000
  C   C88       1.0  0.95412  0.13318  0.04684  1.0000
  C   C89       1.0  0.98839  0.08015999999999998  0.1013  1.0000
  C   C90       1.0  0.80415  0.15528999999999998  0.17546  1.0000
  C   C91       1.0  0.774  0.10249999999999997  0.12235  1.0000
  C   C92       1.0  0.78984  0.08171999999999997  0.07913  1.0000
  C   C93       1.0  0.76011  0.024419999999999997  0.02371  1.0000
  C   C94       1.0  0.83631  0.11757999999999998  0.09200999999999998  1.0000
  C   C95       1.0  0.86615  0.17016999999999993  0.14569999999999997  1.0000
  C   C96       1.0  0.72953  0.9565499999999998  0.9192099999999999  1.0000
  C   C97       1.0  0.75689  0.011769999999999916  0.9700399999999999  1.0000
  C   C98       1.0  0.73517  0.97976  0.023299999999999998  1.0000
  C   C99       1.0  0.70831  0.9257499999999997  0.9707099999999999  1.0000
  C   C100      1.0  0.18521  0.2863199999999999  0.29084  1.0000
  C   C101      1.0  0.20074  0.3451499999999999  0.30029  1.0000
  C   C102      1.0  0.23897  0.27034999999999987  0.32326  1.0000
  C   C103      1.0  0.48253  0.9380099999999998  0.44289  1.0000
  C   C104      1.0  0.49096000000000006  0.9461199999999999  0.49734  1.0000
  C   C105      1.0  0.52832  0.91991  0.52373  1.0000
  C   C106      1.0  0.55635  0.8869199999999998  0.49701999999999996  1.0000
  C   C107      1.0  0.54838  0.88103  0.44401  1.0000
  C   C108      1.0  0.51194  0.90681  0.41606  1.0000
  C   C109      1.0  0.50861  0.90468  0.36205999999999994  1.0000
  C   C110      1.0  0.49541999999999997  0.84354  0.31040999999999996  1.0000
  C   C111      1.0  0.56411  0.9439099999999999  0.3834199999999999  1.0000
  C   C112      1.0  0.46004  0.9813999999999998  0.52625  1.0000
  C   C113      1.0  0.4091  0.9413599999999998  0.51125  1.0000
  C   C114      1.0  0.49942  0.023100000000000058  0.59537  1.0000
  C   C115      1.0  0.10693  0.9826399999999998  0.19692  1.0000
  C   C116      1.0  0.07597000000000001  0.98388  0.22394  1.0000
  C   C117      1.0  0.016089999999999993  0.9664599999999999  0.18699999999999997  1.0000
  C   C118      1.0  0.9882  0.9502599999999999  0.12619  1.0000
  C   C119      1.0  0.02016  0.95134  0.10132  1.0000
  C   C120      1.0  0.0801  0.9673199999999998  0.13595  1.0000
  C   C121      1.0  0.11438  0.96922  0.10853999999999998  1.0000
  C   C122      1.0  0.09298  0.9137499999999997  0.04710999999999999  1.0000
  C   C123      1.0  0.11331  0.021260000000000008  0.10169  1.0000
  C   C124      1.0  0.37116  0.01988  0.1753  1.0000
  C   C125      1.0  0.34814  0.019489999999999983  0.12217999999999998  1.0000
  C   C126      1.0  0.28908  0.9967599999999998  0.0788  1.0000
  C   C127      1.0  0.2635  0.9987999999999999  0.02352  1.0000
  C   C128      1.0  0.25557  0.97349  0.09156  1.0000
  C   C129      1.0  0.27944  0.9746899999999997  0.14528  1.0000
  C   C130      1.0  0.18951  0.9626299999999999  0.9191299999999999  1.0000
  C   C131      1.0  0.21292  0.9579599999999998  0.96976  1.0000
  C   C132      1.0  0.2883  0.04311  0.023359999999999995  1.0000
  C   C133      1.0  0.26259999999999994  0.044769999999999935  0.9709499999999999  1.0000
  C   C134      1.0  0.106  0.004549999999999973  0.29099  1.0000
  C   C135      1.0  0.09983  0.9550699999999998  0.30027  1.0000
  C   C136      1.0  0.08463000000000002  0.05288  0.32345  1.0000
  C   C137      1.0  0.75547  0.7108299999999996  0.9428099999999999  1.0000
  C   C138      1.0  0.8018  0.7567599999999998  0.99755  1.0000
  C   C139      1.0  0.85424  0.74561  0.02413  1.0000
  C   C140      1.0  0.8604199999999997  0.6907999999999997  0.9975199999999999  1.0000
  C   C141      1.0  0.81329  0.6458299999999998  0.9442999999999999  1.0000
  C   C142      1.0  0.7596999999999998  0.6544999999999997  0.9160999999999998  1.0000
  C   C143      1.0  0.70771  0.6038799999999999  0.86203  1.0000
  C   C144      1.0  0.71719  0.5653999999999998  0.81041  1.0000
  C   C145      1.0  0.68991  0.56966  0.88334  1.0000
  C   C146      1.0  0.7956000000000001  0.8166799999999999  0.02662  1.0000
  C   C147      1.0  0.8207900000000001  0.85268  0.01181  1.0000
  C   C148      1.0  0.823  0.84623  0.09570999999999999  1.0000
  C   C149      1.0  0.46417  0.84015  0.69673  1.0000
  C   C150      1.0  0.4900099999999999  0.8981499999999998  0.7237499999999999  1.0000
  C   C151      1.0  0.47065  0.9210599999999998  0.68681  1.0000
  C   C152      1.0  0.42607  0.8880499999999999  0.62595  1.0000
  C   C153      1.0  0.39999  0.8312099999999999  0.60108  1.0000
  C   C154      1.0  0.4185199999999999  0.8059299999999998  0.63572  1.0000
  C   C155      1.0  0.38908  0.7442  0.60822  1.0000
  C   C156      1.0  0.38317  0.7041199999999997  0.54684  1.0000
  C   C157      1.0  0.33016  0.73839  0.60131  1.0000
  C   C158      1.0  0.40528  0.55414  0.67545  1.0000
  C   C159      1.0  0.3524900000000001  0.52399  0.62234  1.0000
  C   C160      1.0  0.33170999999999995  0.5398499999999999  0.5791299999999999  1.0000
  C   C161      1.0  0.27442  0.51011  0.52372  1.0000
  C   C162      1.0  0.36758  0.5863099999999998  0.59202  1.0000
  C   C163      1.0  0.42016  0.61615  0.6457  1.0000
  C   C164      1.0  0.20655  0.4795299999999999  0.41921  1.0000
  C   C165      1.0  0.26177  0.50689  0.47004  1.0000
  C   C166      1.0  0.22975999999999994  0.48516999999999993  0.5232899999999999  1.0000
  C   C167      1.0  0.17574  0.4583199999999999  0.47069  1.0000
  C   C168      1.0  0.53632  0.93521  0.7908399999999999  1.0000
  C   C169      1.0  0.59515  0.9507399999999998  0.80029  1.0000
  C   C170      1.0  0.5203499999999998  0.9889799999999999  0.8232599999999998  1.0000
  C   C171      1.0  0.1880199999999999  0.23254999999999987  0.9429099999999998  1.0000
  C   C172      1.0  0.19613000000000003  0.24098  0.99736  1.0000
  C   C173      1.0  0.16991  0.27833  0.02373  1.0000
  C   C174      1.0  0.13692999999999994  0.3063599999999998  0.9970199999999999  1.0000
  C   C175      1.0  0.13103999999999996  0.29837999999999987  0.94401  1.0000
  C   C176      1.0  0.15681  0.2619399999999999  0.91606  1.0000
  C   C177      1.0  0.15469  0.25860999999999984  0.8620599999999999  1.0000
  C   C178      1.0  0.09352999999999996  0.2454199999999999  0.81041  1.0000
  C   C179      1.0  0.19391000000000003  0.31412  0.88342  1.0000
  C   C180      1.0  0.23141  0.21003999999999995  0.02626  1.0000
  C   C181      1.0  0.19136  0.15909  0.01124  1.0000
  C   C182      1.0  0.27309999999999995  0.24942  0.09537999999999999  1.0000
  C   C183      1.0  0.23264000000000007  0.85693  0.69692  1.0000
  C   C184      1.0  0.23387999999999998  0.8259699999999998  0.72394  1.0000
  C   C185      1.0  0.21645  0.7660899999999998  0.687  1.0000
  C   C186      1.0  0.20024999999999996  0.7381799999999998  0.62618  1.0000
  C   C187      1.0  0.20134  0.77015  0.60131  1.0000
  C   C188      1.0  0.21731999999999996  0.8300999999999997  0.63594  1.0000
  C   C189      1.0  0.21923  0.8643799999999997  0.6085399999999999  1.0000
  C   C190      1.0  0.16375  0.84297  0.5471  1.0000
  C   C191      1.0  0.27125  0.86329  0.60167  1.0000
  C   C192      1.0  0.26988  0.12116999999999994  0.6753  1.0000
  C   C193      1.0  0.26948  0.09814999999999992  0.62218  1.0000
  C   C194      1.0  0.24677000000000002  0.039079999999999934  0.57881  1.0000
  C   C195      1.0  0.24881  0.013499999999999979  0.52352  1.0000
  C   C196      1.0  0.22349999999999995  0.0055599999999999365  0.5915599999999999  1.0000
  C   C197      1.0  0.22469999999999998  0.029439999999999848  0.6452899999999999  1.0000
  C   C198      1.0  0.21263  0.9395099999999997  0.41913  1.0000
  C   C199      1.0  0.20795999999999998  0.96292  0.46975999999999996  1.0000
  C   C200      1.0  0.29311  0.03830999999999997  0.52336  1.0000
  C   C201      1.0  0.29476  0.012599999999999983  0.47095  1.0000
  C   C202      1.0  0.25456  0.8560099999999998  0.79099  1.0000
  C   C203      1.0  0.20508  0.84982  0.80027  1.0000
  C   C204      1.0  0.3028799999999998  0.8346199999999998  0.8234399999999997  1.0000
  C   C205      1.0  0.2894400000000001  0.8121599999999998  0.05739999999999999  1.0000
  C   C206      1.0  0.24338  0.80385  0.00278  1.0000
  C   C207      1.0  0.2543999999999999  0.82985  0.97633  1.0000
  C   C208      1.0  0.30917  0.8626799999999998  0.0029799999999999996  1.0000
  C   C209      1.0  0.35424000000000005  0.86873  0.05612999999999999  1.0000
  C   C210      1.0  0.34571  0.84315  0.08415  1.0000
  C   C211      1.0  0.3964  0.8451999999999997  0.13815  1.0000
  C   C212      1.0  0.43482  0.9063299999999997  0.18979  1.0000
  C   C213      1.0  0.43064  0.8060299999999999  0.11677  1.0000
  C   C214      1.0  0.18350000000000002  0.76853  0.97369  1.0000
  C   C215      1.0  0.14745  0.80856  0.98866  1.0000
  C   C216      1.0  0.15383999999999998  0.72694  0.90454  1.0000
  C   C217      1.0  0.16054  0.76751  0.30315  1.0000
  C   C218      1.0  0.10247999999999997  0.7661999999999998  0.2758999999999999  1.0000
  C   C219      1.0  0.07940000000000004  0.78365  0.31267  1.0000
  C   C220      1.0  0.11226000000000001  0.80005  0.37354999999999994  1.0000
  C   C221      1.0  0.16913999999999998  0.7988499999999998  0.39862999999999993  1.0000
  C   C222      1.0  0.19457  0.78283  0.36414  1.0000
  C   C223      1.0  0.25629  0.7808399999999998  0.39173  1.0000
  C   C224      1.0  0.2962000000000001  0.83637  0.45312  1.0000
  C   C225      1.0  0.26199  0.7287999999999998  0.39858999999999994  1.0000
  C   C226      1.0  0.4465  0.7302499999999997  0.32519999999999993  1.0000
  C   C227      1.0  0.47649  0.7305399999999997  0.37827999999999995  1.0000
  C   C228      1.0  0.46053  0.7530599999999997  0.42140999999999995  1.0000
  C   C229      1.0  0.49008000000000007  0.75107  0.4767199999999999  1.0000
  C   C230      1.0  0.41413  0.77621  0.40841999999999995  1.0000
  C   C231      1.0  0.3844200000000001  0.77513  0.35477  1.0000
  C   C232      1.0  0.52022  0.7873499999999998  0.58102  1.0000
  C   C233      1.0  0.49307  0.7919599999999999  0.53034  1.0000
  C   C234      1.0  0.51505  0.7067399999999998  0.47703  1.0000
  C   C235      1.0  0.54164  0.70512  0.52946  1.0000
  C   C236      1.0  0.06535  0.7453799999999998  0.20882  1.0000
  C   C237      1.0  0.0496  0.7947799999999999  0.19945  1.0000
  C   C238      1.0  0.011600000000000004  0.69705  0.17646  1.0000
  C   C239      1.0  0.7679100000000002  0.24480999999999994  0.05754999999999999  1.0000
  C   C240      1.0  0.75917  0.19857  0.00281  1.0000
  C   C241      1.0  0.7216  0.14604999999999999  0.97617  1.0000
  C   C242      1.0  0.6935  0.13972999999999994  0.00274  1.0000
  C   C243      1.0  0.70171  0.18678999999999996  0.056  1.0000
  C   C244      1.0  0.7383999999999998  0.24045  0.08422  1.0000
  C   C245      1.0  0.74182  0.29239  0.1383  1.0000
  C   C246      1.0  0.75493  0.28285  0.18985  1.0000
  C   C247      1.0  0.6863  0.31035  0.11697  1.0000
  C   C248      1.0  0.78996  0.20496000000000006  0.97384  1.0000
  C   C249      1.0  0.8410299999999999  0.17994999999999983  0.9887999999999998  1.0000
  C   C250      1.0  0.75053  0.17738  0.9047  1.0000
  C   C251      1.0  0.14324  0.5357  0.30332  1.0000
  C   C252      1.0  0.17423  0.50992  0.27626  1.0000
  C   C253      1.0  0.23413  0.52941  0.31316  1.0000
  C   C254      1.0  0.26202  0.5740799999999999  0.37397  1.0000
  C   C255      1.0  0.23002999999999998  0.6001  0.3988399999999999  1.0000
  C   C256      1.0  0.17008999999999994  0.5814399999999997  0.36428999999999995  1.0000
  C   C257      1.0  0.13592  0.6109199999999998  0.39187  1.0000
  C   C258      1.0  0.15731  0.6167499999999998  0.45321  1.0000
  C   C259      1.0  0.13713  0.66991  0.39893  1.0000
  C   C260      1.0  0.8787500000000003  0.5948499999999998  0.3245  1.0000
  C   C261      1.0  0.90172  0.6476  0.37765  1.0000
  C   C262      1.0  0.96077  0.6681499999999998  0.42101  1.0000
  C   C263      1.0  0.98641  0.7254599999999999  0.47636  1.0000
  C   C264      1.0  0.99432  0.6320999999999999  0.4082  1.0000
  C   C265      1.0  0.97046  0.5795699999999998  0.35445  1.0000
  C   C266      1.0  0.06026999999999995  0.79344  0.58088  1.0000
  C   C267      1.0  0.03688000000000001  0.73819  0.53011  1.0000
  C   C268      1.0  0.96175  0.77007  0.47662  1.0000
  C   C269      1.0  0.98739  0.8240999999999998  0.52916  1.0000
  C   C270      1.0  0.14416  0.4635499999999999  0.2092  1.0000
  C   C271      1.0  0.15043  0.40471999999999997  0.19974  1.0000
  C   C272      1.0  0.16544000000000003  0.47950999999999994  0.17681  1.0000
  N   N1        1.0  0.81173  0.6630699999999998  0.81257  1.0000
  N   N2        1.0  0.08557000000000001  0.7856599999999998  0.0805  1.0000
  N   N3        1.0  0.001349999999999995  0.15015999999999993  0.81308  1.0000
  N   N4        1.0  0.9948400000000001  0.2944199999999999  0.08063  1.0000
  N   N5        1.0  0.85049  0.18824  0.18744999999999998  1.0000
  N   N6        1.0  0.70532  0.9143999999999998  0.9194799999999999  1.0000
  N   N7        1.0  0.33684  0.9987099999999999  0.18718999999999994  1.0000
  N   N8        1.0  0.21419999999999992  0.005129999999999893  0.9196499999999997  1.0000
  N   N9        1.0  0.43822  0.60048  0.68744  1.0000
  N   N10       1.0  0.16439999999999994  0.45531999999999995  0.41946999999999995  1.0000
  N   N11       1.0  0.2487300000000001  0.08685  0.6872  1.0000
  N   N12       1.0  0.25512999999999997  0.9642  0.41963999999999996  1.0000
  N   N13       1.0  0.40016  0.75135  0.31309  1.0000
  N   N14       1.0  0.54441  0.74484  0.58063  1.0000
  N   N15       1.0  0.91307  0.56172  0.31256  1.0000
  N   N16       1.0  0.03564999999999995  0.8355599999999997  0.58049  1.0000
  O   O1        1.0  0.7671399999999999  0.83333  0.7676599999999999  1.0000
  O   O2        1.0  0.73716  0.75554  0.77816  1.0000
  O   O3        1.0  0.66638  0.76575  0.6901599999999999  1.0000
  O   O4        1.0  0.6948800000000002  0.84112  0.799  1.0000
  O   O5        1.0  0.54798  0.55325  0.58287  1.0000
  O   O6        1.0  0.63967  0.62645  0.66774  1.0000
  O   O7        1.0  0.55279  0.65749  0.61707  1.0000
  O   O8        1.0  0.55594  0.62042  0.68343  1.0000
  O   O9        1.0  0.76311  0.63871  0.75974  1.0000
  O   O10       1.0  0.00045999999999998977  0.9349099999999998  0.76769  1.0000
  O   O11       1.0  0.04085000000000001  0.023119999999999998  0.77846  1.0000
  O   O12       1.0  0.023969999999999974  0.9251999999999998  0.69045  1.0000
  O   O13       1.0  0.10441999999999999  0.95874  0.79934  1.0000
  O   O14       1.0  0.03441000000000007  0.029399999999999937  0.58274  1.0000
  O   O15       1.0  0.028710000000000006  0.042179999999999974  0.66842  1.0000
  O   O16       1.0  0.06372999999999994  0.9594999999999998  0.61708  1.0000
  O   O17       1.0  0.12769  0.06244000000000006  0.68286  1.0000
  O   O18       1.0  0.99741  0.12188999999999992  0.7604199999999999  1.0000
  O   O19       1.0  0.06617999999999999  0.23276999999999995  0.23257  1.0000
  O   O20       1.0  0.97757  0.26212  0.22188  1.0000
  O   O21       1.0  0.07551000000000004  0.3333299999999999  0.30984  1.0000
  O   O22       1.0  0.0417  0.30499  0.20097  1.0000
  O   O23       1.0  0.97118  0.45240999999999987  0.41756  1.0000
  O   O24       1.0  0.95861  0.36059999999999987  0.33211  1.0000
  O   O25       1.0  0.04064999999999994  0.44696999999999987  0.38254999999999995  1.0000
  O   O26       1.0  0.9372100000000001  0.4447499999999999  0.31706  1.0000
  O   O27       1.0  0.87888  0.23695  0.24018  1.0000
  O   O28       1.0  0.16679  0.9996499999999999  0.23263  1.0000
  O   O29       1.0  0.24453999999999995  0.95925  0.22200999999999999  1.0000
  O   O30       1.0  0.23449999999999996  0.9761399999999998  0.30989999999999995  1.0000
  O   O31       1.0  0.15919  0.89583  0.20095  1.0000
  O   O32       1.0  0.44737  0.9662  0.41781  1.0000
  O   O33       1.0  0.37365  0.9721399999999999  0.33236  1.0000
  O   O34       1.0  0.34309  0.9364  0.38344  1.0000
  O   O35       1.0  0.38037  0.8730699999999999  0.31729  1.0000
  O   O36       1.0  0.36127  0.0029699999999999948  0.24001  1.0000
  O   O37       1.0  0.48277000000000003  0.81618  0.73258  1.0000
  O   O38       1.0  0.5121199999999999  0.72758  0.7218899999999999  1.0000
  O   O39       1.0  0.58333  0.8255099999999999  0.8098499999999998  1.0000
  O   O40       1.0  0.55499  0.7917099999999998  0.70098  1.0000
  O   O41       1.0  0.7024  0.7211699999999999  0.9175599999999999  1.0000
  O   O42       1.0  0.61059  0.7085899999999998  0.8321  1.0000
  O   O43       1.0  0.69695  0.7906599999999998  0.88257  1.0000
  O   O44       1.0  0.69473  0.6872199999999998  0.81705  1.0000
  O   O45       1.0  0.48694  0.62887  0.74017  1.0000
  O   O46       1.0  0.24963999999999995  0.9167899999999998  0.7326299999999999  1.0000
  O   O47       1.0  0.20928  0.9945599999999998  0.72204  1.0000
  O   O48       1.0  0.22615  0.9844700000000001  0.80989  1.0000
  O   O49       1.0  0.14581000000000008  0.90919  0.70092  1.0000
  O   O50       1.0  0.21620999999999987  0.19738999999999984  0.9178299999999998  1.0000
  O   O51       1.0  0.22214000000000006  0.12367999999999996  0.83235  1.0000
  O   O52       1.0  0.18645999999999993  0.09309999999999997  0.88346  1.0000
  O   O53       1.0  0.12307000000000001  0.13039999999999993  0.8173299999999999  1.0000
  O   O54       1.0  0.25298999999999994  0.11126999999999988  0.7400199999999999  1.0000
  O   O55       1.0  0.1849  0.75045  0.26769  1.0000
  O   O56       1.0  0.27312  0.79085  0.27846  1.0000
  O   O57       1.0  0.17519999999999997  0.7739699999999998  0.19045999999999993  1.0000
  O   O58       1.0  0.20874  0.85441  0.29934  1.0000
  O   O59       1.0  0.27939  0.7843999999999998  0.08273  1.0000
  O   O60       1.0  0.29216  0.7786599999999998  0.16838  1.0000
  O   O61       1.0  0.2095  0.81374  0.11707999999999999  1.0000
  O   O62       1.0  0.31245  0.8776699999999997  0.18288  1.0000
  O   O63       1.0  0.37189  0.7473999999999997  0.26042  1.0000
  O   O64       1.0  0.08333999999999998  0.51714  0.26766  1.0000
  O   O65       1.0  0.005559999999999986  0.48714999999999997  0.27818  1.0000
  O   O66       1.0  0.015699999999999967  0.4163699999999998  0.19012999999999994  1.0000
  O   O67       1.0  0.0911  0.44483999999999996  0.29894  1.0000
  O   O68       1.0  0.80324  0.29798  0.08286  1.0000
  O   O69       1.0  0.87645  0.3896699999999999  0.16774  1.0000
  O   O70       1.0  0.90748  0.30279  0.11705999999999998  1.0000
  O   O71       1.0  0.87042  0.30594  0.18341999999999997  1.0000
  O   O72       1.0  0.88872  0.5131  0.25973  1.0000
