data_image0
_chemical_formula_structural       Zn24H198C300N6O90
_chemical_formula_sum              "Zn24 H198 C300 N6 O90"
_cell_length_a       17.65033
_cell_length_b       41.90008
_cell_length_c       41.89636
_cell_angle_alpha    120.02294
_cell_angle_beta     90.0
_cell_angle_gamma    90.0

_space_group_name_H-M_alt    "P 1"
_space_group_IT_number       1

loop_
  _space_group_symop_operation_xyz
  'x, y, z'

loop_
  _atom_site_type_symbol
  _atom_site_label
  _atom_site_symmetry_multiplicity
  _atom_site_fract_x
  _atom_site_fract_y
  _atom_site_fract_z
  _atom_site_occupancy
  Zn  Zn1       1.0  0.40265  0.97114  0.59823  1.0000
  Zn  Zn2       1.0  0.49842  0.9301  0.52193  1.0000
  Zn  Zn3       1.0  0.58174  0.9697499999999999  0.6000499999999998  1.0000
  Zn  Zn4       1.0  0.49045  0.8940899999999999  0.5731699999999998  1.0000
  Zn  Zn5       1.0  0.4027  0.62697  0.02878  1.0000
  Zn  Zn6       1.0  0.49843  0.5918  0.06989999999999998  1.0000
  Zn  Zn7       1.0  0.58173  0.63026  0.03024  1.0000
  Zn  Zn8       1.0  0.49036  0.67901  0.10588999999999997  1.0000
  Zn  Zn9       1.0  0.40255  0.40181000000000006  0.37285  1.0000
  Zn  Zn10      1.0  0.49836  0.47803999999999996  0.40815  1.0000
  Zn  Zn11      1.0  0.58153  0.39984  0.36957  1.0000
  Zn  Zn12      1.0  0.49039999999999995  0.42686  0.32093999999999995  1.0000
  Zn  Zn13      1.0  0.90265  0.028849999999999987  0.40177  1.0000
  Zn  Zn14      1.0  0.99842  0.06989999999999999  0.47806999999999994  1.0000
  Zn  Zn15      1.0  0.08174  0.03024999999999999  0.39994  1.0000
  Zn  Zn16      1.0  0.9904599999999999  0.10591000000000005  0.42683  1.0000
  Zn  Zn17      1.0  0.90271  0.3730299999999999  0.9712199999999999  1.0000
  Zn  Zn18      1.0  0.99844  0.40819999999999995  0.9300999999999999  1.0000
  Zn  Zn19      1.0  0.08172999999999998  0.3697400000000001  0.96976  1.0000
  Zn  Zn20      1.0  0.99036  0.32097999999999993  0.8941099999999998  1.0000
  Zn  Zn21      1.0  0.90255  0.59819  0.62715  1.0000
  Zn  Zn22      1.0  0.99836  0.52196  0.5918499999999998  1.0000
  Zn  Zn23      1.0  0.08153  0.60015  0.63043  1.0000
  Zn  Zn24      1.0  0.9904  0.57314  0.67906  1.0000
  H   H1        1.0  0.23203999999999997  0.01325000000000002  0.56078  1.0000
  H   H2        1.0  0.1411  0.03688999999999997  0.53148  1.0000
  H   H3        1.0  0.54235  0.82898  0.42237  1.0000
  H   H4        1.0  0.54535  0.7657  0.36837  1.0000
  H   H5        1.0  0.43604  0.72498  0.43292  1.0000
  H   H6        1.0  0.43999  0.7877500000000001  0.48755  1.0000
  H   H7        1.0  0.49118  0.72063  0.32416  1.0000
  H   H8        1.0  0.31855  0.8407500000000001  0.59186  1.0000
  H   H9        1.0  0.20025  0.81136  0.59643  1.0000
  H   H10       1.0  0.08768  0.91669  0.6452399999999998  1.0000
  H   H11       1.0  0.20485  0.94505  0.63793  1.0000
  H   H12       1.0  0.11428  0.80072  0.62753  1.0000
  H   H13       1.0  0.8706599999999999  0.8004700000000001  0.62639  1.0000
  H   H14       1.0  0.9930699999999999  0.88185  0.6136599999999998  1.0000
  H   H15       1.0  0.77543  0.94167  0.63444  1.0000
  H   H16       1.0  0.8936499999999999  0.9151  0.64333  1.0000
  H   H17       1.0  0.79147  0.8071600000000001  0.5884  1.0000
  H   H18       1.0  0.67143  0.83468  0.58233  1.0000
  H   H19       1.0  0.88204  0.68497  0.60308  1.0000
  H   H20       1.0  0.88332  0.7428  0.6006099999999999  1.0000
  H   H21       1.0  0.09996  0.77077  0.65547  1.0000
  H   H22       1.0  0.10132  0.7109500000000001  0.65418  1.0000
  H   H23       1.0  0.32555  0.9335900000000001  0.39082999999999996  1.0000
  H   H24       1.0  0.35334999999999994  0.94927  0.34421  1.0000
  H   H25       1.0  0.26109  0.96896  0.3485999999999999  1.0000
  H   H26       1.0  0.1655  0.9524300000000001  0.37837  1.0000
  H   H27       1.0  0.12512  0.90257  0.3914799999999999  1.0000
  H   H28       1.0  0.16775  0.9398000000000001  0.43078  1.0000
  H   H29       1.0  0.21946  0.8985900000000001  0.40352  1.0000
  H   H30       1.0  0.15821  0.8861499999999999  0.32838  1.0000
  H   H31       1.0  0.25502  0.87993  0.3351999999999999  1.0000
  H   H32       1.0  0.22871  0.90959  0.31814  1.0000
  H   H33       1.0  0.8643499999999998  0.50232  0.9638799999999998  1.0000
  H   H34       1.0  0.232  0.54757  0.9868399999999999  1.0000
  H   H35       1.0  0.14096  0.4946699999999999  0.9631699999999999  1.0000
  H   H36       1.0  0.54232  0.5932  0.17085999999999996  1.0000
  H   H37       1.0  0.54537  0.60242  0.23409999999999997  1.0000
  H   H38       1.0  0.436  0.70778  0.27492  1.0000
  H   H39       1.0  0.43995  0.6996  0.21218  1.0000
  H   H40       1.0  0.49121000000000004  0.60335  0.27925  1.0000
  H   H41       1.0  0.31859  0.75098  0.15913  1.0000
  H   H42       1.0  0.20011  0.7849200000000001  0.18855  1.0000
  H   H43       1.0  0.08771  0.72838  0.08319  1.0000
  H   H44       1.0  0.20494  0.6927  0.05485  1.0000
  H   H45       1.0  0.11447000000000002  0.82667  0.19915  1.0000
  H   H46       1.0  0.87082  0.82578  0.19935  1.0000
  H   H47       1.0  0.9932600000000001  0.73164  0.11799999999999998  1.0000
  H   H48       1.0  0.77571  0.69263  0.05814999999999999  1.0000
  H   H49       1.0  0.89386  0.72813  0.08476  1.0000
  H   H50       1.0  0.79199  0.7810600000000001  0.19268  1.0000
  H   H51       1.0  0.67182  0.74748  0.16520999999999997  1.0000
  H   H52       1.0  0.88226  0.9179800000000001  0.31497  1.0000
  H   H53       1.0  0.88351  0.85769  0.25708  1.0000
  H   H54       1.0  0.10009  0.8846200000000001  0.22912999999999997  1.0000
  H   H55       1.0  0.10151  0.9431500000000002  0.28896999999999995  1.0000
  H   H56       1.0  0.32546  0.45725000000000005  0.06636999999999998  1.0000
  H   H57       1.0  0.35326  0.39502000000000004  0.050739999999999987  1.0000
  H   H58       1.0  0.26102  0.37962  0.03097  1.0000
  H   H59       1.0  0.16537  0.42593  0.04765  1.0000
  H   H60       1.0  0.1251  0.48898  0.09746999999999997  1.0000
  H   H61       1.0  0.1678  0.49096000000000006  0.06021  1.0000
  H   H62       1.0  0.21947  0.5049500000000001  0.10143  1.0000
  H   H63       1.0  0.1582  0.44227  0.11385999999999999  1.0000
  H   H64       1.0  0.25502  0.45532  0.12012999999999999  1.0000
  H   H65       1.0  0.22871  0.40858  0.09046  1.0000
  H   H66       1.0  0.86374  0.46142999999999995  0.49763999999999997  1.0000
  H   H67       1.0  0.23224999999999998  0.4391  0.45242  1.0000
  H   H68       1.0  0.14092999999999997  0.4682799999999999  0.5052299999999998  1.0000
  H   H69       1.0  0.54232  0.57762  0.40669  1.0000
  H   H70       1.0  0.54527  0.6316399999999999  0.3974699999999999  1.0000
  H   H71       1.0  0.43597  0.56702  0.2921  1.0000
  H   H72       1.0  0.44004  0.51243  0.30028  1.0000
  H   H73       1.0  0.4910900000000001  0.67578  0.39652  1.0000
  H   H74       1.0  0.31854  0.40814  0.24876999999999996  1.0000
  H   H75       1.0  0.20007  0.40354  0.21489  1.0000
  H   H76       1.0  0.08791  0.35474  0.27143  1.0000
  H   H77       1.0  0.20514  0.36206  0.30706  1.0000
  H   H78       1.0  0.11424  0.37239  0.1732  1.0000
  H   H79       1.0  0.87057  0.37353  0.17411999999999997  1.0000
  H   H80       1.0  0.9930699999999999  0.38641  0.26828  1.0000
  H   H81       1.0  0.77548  0.36554000000000003  0.30728999999999995  1.0000
  H   H82       1.0  0.89366  0.35662000000000005  0.27175  1.0000
  H   H83       1.0  0.79162  0.41157  0.21883  1.0000
  H   H84       1.0  0.67149  0.41768  0.25239999999999996  1.0000
  H   H85       1.0  0.88225  0.39709  0.08204  1.0000
  H   H86       1.0  0.8834799999999999  0.39944  0.14227  1.0000
  H   H87       1.0  0.10001  0.34454  0.11535  1.0000
  H   H88       1.0  0.10157  0.34587000000000007  0.05686  1.0000
  H   H89       1.0  0.32568  0.60895  0.54262  1.0000
  H   H90       1.0  0.35418  0.65548  0.60494  1.0000
  H   H91       1.0  0.26177  0.65151  0.62032  1.0000
  H   H92       1.0  0.16559  0.62181  0.57406  1.0000
  H   H93       1.0  0.12509  0.60863  0.51111  1.0000
  H   H94       1.0  0.16765  0.56936  0.50907  1.0000
  H   H95       1.0  0.21933  0.59651  0.49498999999999993  1.0000
  H   H96       1.0  0.15831  0.67174  0.55782  1.0000
  H   H97       1.0  0.25508  0.66498  0.54473  1.0000
  H   H98       1.0  0.22888  0.6820200000000001  0.5914799999999999  1.0000
  H   H99       1.0  0.86437  0.03606000000000001  0.53848  1.0000
  H   H100      1.0  0.7320399999999999  0.98675  0.43922  1.0000
  H   H101      1.0  0.6411  0.9631  0.4685099999999999  1.0000
  H   H102      1.0  0.04235  0.17102000000000006  0.57763  1.0000
  H   H103      1.0  0.04535  0.2343  0.63163  1.0000
  H   H104      1.0  0.93604  0.27502  0.56708  1.0000
  H   H105      1.0  0.9399900000000001  0.21225000000000002  0.51245  1.0000
  H   H106      1.0  0.9911800000000001  0.27937  0.67584  1.0000
  H   H107      1.0  0.81855  0.15924  0.40814  1.0000
  H   H108      1.0  0.70025  0.18863999999999995  0.40357  1.0000
  H   H109      1.0  0.58768  0.08329999999999997  0.35475999999999996  1.0000
  H   H110      1.0  0.70485  0.05494999999999997  0.36206999999999995  1.0000
  H   H111      1.0  0.61428  0.19927000000000003  0.37246  1.0000
  H   H112      1.0  0.37066  0.19952  0.37361  1.0000
  H   H113      1.0  0.49307000000000006  0.11814  0.38633999999999996  1.0000
  H   H114      1.0  0.27543  0.05832  0.36556  1.0000
  H   H115      1.0  0.39365  0.08489000000000002  0.35667  1.0000
  H   H116      1.0  0.29147  0.19283000000000003  0.4116  1.0000
  H   H117      1.0  0.17143  0.16531  0.41767  1.0000
  H   H118      1.0  0.38204  0.3150299999999999  0.39692  1.0000
  H   H119      1.0  0.38332  0.2572  0.3993899999999999  1.0000
  H   H120      1.0  0.59996  0.22923  0.34453  1.0000
  H   H121      1.0  0.60132  0.28905000000000003  0.3458199999999999  1.0000
  H   H122      1.0  0.82556  0.06639999999999988  0.6091699999999998  1.0000
  H   H123      1.0  0.85336  0.050719999999999967  0.6557799999999999  1.0000
  H   H124      1.0  0.76109  0.031040000000000015  0.65139  1.0000
  H   H125      1.0  0.6655  0.04755999999999995  0.6216299999999999  1.0000
  H   H126      1.0  0.62512  0.09742999999999995  0.6085199999999998  1.0000
  H   H127      1.0  0.66775  0.06020000000000001  0.56922  1.0000
  H   H128      1.0  0.71946  0.10140999999999986  0.5964799999999998  1.0000
  H   H129      1.0  0.65821  0.11384999999999988  0.6716199999999998  1.0000
  H   H130      1.0  0.75502  0.12006000000000001  0.66479  1.0000
  H   H131      1.0  0.72871  0.09040000000000001  0.68186  1.0000
  H   H132      1.0  0.36435  0.49767  0.03612  1.0000
  H   H133      1.0  0.732  0.45243  0.01316  1.0000
  H   H134      1.0  0.64096  0.50533  0.03682999999999999  1.0000
  H   H135      1.0  0.04232  0.4068  0.8291399999999999  1.0000
  H   H136      1.0  0.04537  0.39757  0.7659  1.0000
  H   H137      1.0  0.936  0.29222  0.7250799999999997  1.0000
  H   H138      1.0  0.93995  0.3003999999999999  0.7878199999999997  1.0000
  H   H139      1.0  0.9912100000000001  0.39665000000000006  0.72075  1.0000
  H   H140      1.0  0.81859  0.24901999999999994  0.84086  1.0000
  H   H141      1.0  0.70011  0.21508  0.81145  1.0000
  H   H142      1.0  0.58771  0.27162  0.91681  1.0000
  H   H143      1.0  0.70494  0.3073  0.94514  1.0000
  H   H144      1.0  0.6144699999999998  0.17332999999999996  0.8008499999999998  1.0000
  H   H145      1.0  0.37082  0.17421999999999996  0.8006399999999998  1.0000
  H   H146      1.0  0.49326  0.26836  0.882  1.0000
  H   H147      1.0  0.27571  0.30737  0.94185  1.0000
  H   H148      1.0  0.39386  0.27186999999999995  0.9152299999999999  1.0000
  H   H149      1.0  0.29198  0.21894  0.80732  1.0000
  H   H150      1.0  0.17182  0.2525199999999999  0.8347899999999998  1.0000
  H   H151      1.0  0.38226  0.08201000000000001  0.68503  1.0000
  H   H152      1.0  0.38351  0.1423  0.74292  1.0000
  H   H153      1.0  0.60009  0.11538000000000008  0.77087  1.0000
  H   H154      1.0  0.60151  0.05683999999999986  0.7110299999999998  1.0000
  H   H155      1.0  0.82546  0.5427399999999999  0.9336299999999998  1.0000
  H   H156      1.0  0.85326  0.60498  0.9492599999999999  1.0000
  H   H157      1.0  0.76102  0.62038  0.9690299999999998  1.0000
  H   H158      1.0  0.66537  0.57406  0.95234  1.0000
  H   H159      1.0  0.62511  0.5110200000000001  0.9025299999999999  1.0000
  H   H160      1.0  0.6678  0.5090399999999999  0.9397899999999999  1.0000
  H   H161      1.0  0.71947  0.4950399999999999  0.8985699999999998  1.0000
  H   H162      1.0  0.6582  0.55773  0.88614  1.0000
  H   H163      1.0  0.75502  0.54468  0.87987  1.0000
  H   H164      1.0  0.72872  0.59142  0.90954  1.0000
  H   H165      1.0  0.36374  0.53857  0.50236  1.0000
  H   H166      1.0  0.73225  0.5609  0.5475799999999998  1.0000
  H   H167      1.0  0.64093  0.53172  0.49476999999999993  1.0000
  H   H168      1.0  0.04232  0.42237  0.59331  1.0000
  H   H169      1.0  0.04527  0.36835999999999997  0.6025299999999999  1.0000
  H   H170      1.0  0.93597  0.4329799999999998  0.7078999999999998  1.0000
  H   H171      1.0  0.94004  0.48756000000000005  0.69972  1.0000
  H   H172      1.0  0.9910899999999999  0.3242199999999999  0.6034699999999997  1.0000
  H   H173      1.0  0.81854  0.5918499999999999  0.7512299999999998  1.0000
  H   H174      1.0  0.70007  0.5964499999999999  0.7851099999999998  1.0000
  H   H175      1.0  0.58791  0.6452599999999997  0.7285699999999998  1.0000
  H   H176      1.0  0.70514  0.63794  0.69294  1.0000
  H   H177      1.0  0.61425  0.62761  0.8267999999999998  1.0000
  H   H178      1.0  0.37057  0.6264699999999999  0.8258799999999997  1.0000
  H   H179      1.0  0.49307000000000006  0.61359  0.73172  1.0000
  H   H180      1.0  0.27548  0.6344599999999999  0.6927099999999998  1.0000
  H   H181      1.0  0.39365999999999995  0.64338  0.72824  1.0000
  H   H182      1.0  0.29162  0.5884299999999999  0.7811699999999998  1.0000
  H   H183      1.0  0.17149  0.58232  0.74759  1.0000
  H   H184      1.0  0.3822499999999999  0.6029099999999998  0.9179599999999999  1.0000
  H   H185      1.0  0.38348  0.60055  0.8577299999999999  1.0000
  H   H186      1.0  0.60001  0.6554499999999999  0.8846499999999999  1.0000
  H   H187      1.0  0.60157  0.65413  0.9431299999999999  1.0000
  H   H188      1.0  0.82568  0.39105  0.45736999999999994  1.0000
  H   H189      1.0  0.8541799999999999  0.34451  0.39506  1.0000
  H   H190      1.0  0.76177  0.34848999999999997  0.3796799999999999  1.0000
  H   H191      1.0  0.66559  0.37819  0.42593999999999993  1.0000
  H   H192      1.0  0.6251  0.39136000000000004  0.48889  1.0000
  H   H193      1.0  0.66765  0.43062999999999996  0.49093  1.0000
  H   H194      1.0  0.71933  0.40349  0.50501  1.0000
  H   H195      1.0  0.65831  0.32825999999999994  0.44216999999999995  1.0000
  H   H196      1.0  0.75508  0.33502  0.45527  1.0000
  H   H197      1.0  0.72888  0.31798000000000004  0.4085199999999999  1.0000
  H   H198      1.0  0.36437  0.96393  0.46151  1.0000
  C   C1        1.0  0.14118999999999998  0.027439999999999985  0.4645099999999999  1.0000
  C   C2        1.0  0.20073999999999997  0.01362000000000001  0.4802699999999999  1.0000
  C   C3        1.0  0.26489  0.99297  0.46039  1.0000
  C   C4        1.0  0.31466  0.97935  0.47668  1.0000
  C   C5        1.0  0.30307  0.98635  0.51269  1.0000
  C   C6        1.0  0.24042999999999998  0.007459999999999984  0.5327  1.0000
  C   C7        1.0  0.19015  0.02067  0.51648  1.0000
  C   C8        1.0  0.35814999999999997  0.97249  0.5302  1.0000
  C   C9        1.0  0.49197  0.85007  0.49122  1.0000
  C   C10       1.0  0.49124  0.81233  0.45837  1.0000
  C   C11       1.0  0.51972  0.8059300000000001  0.4244099999999999  1.0000
  C   C12       1.0  0.52044  0.77041  0.39410999999999996  1.0000
  C   C13       1.0  0.49084999999999995  0.7404299999999999  0.39645  1.0000
  C   C14       1.0  0.46112000000000003  0.7474  0.4305499999999999  1.0000
  C   C15       1.0  0.46222  0.7826499999999998  0.46119999999999994  1.0000
  C   C16       1.0  0.49104999999999993  0.70268  0.3641399999999999  1.0000
  C   C17       1.0  0.49112999999999996  0.6969299999999999  0.32813999999999993  1.0000
  C   C18       1.0  0.33775999999999995  0.91123  0.60757  1.0000
  C   C19       1.0  0.26891  0.8946400000000001  0.61407  1.0000
  C   C20       1.0  0.26754  0.85708  0.6033899999999999  1.0000
  C   C21       1.0  0.2011  0.8408200000000001  0.60637  1.0000
  C   C22       1.0  0.13439  0.86166  0.6207  1.0000
  C   C23       1.0  0.13753999999999997  0.8996700000000001  0.6328299999999999  1.0000
  C   C24       1.0  0.20334  0.91587  0.62921  1.0000
  C   C25       1.0  0.06228000000000001  0.84433  0.62216  1.0000
  C   C26       1.0  0.06099999999999999  0.81264  0.6255599999999999  1.0000
  C   C27       1.0  0.9925  0.79577  0.62603  1.0000
  C   C28       1.0  0.92423  0.8119  0.6239899999999998  1.0000
  C   C29       1.0  0.92353  0.8431899999999999  0.6199999999999999  1.0000
  C   C30       1.0  0.9929900000000002  0.85885  0.61877  1.0000
  C   C31       1.0  0.64509  0.9062  0.6033899999999999  1.0000
  C   C32       1.0  0.7157299999999999  0.8898699999999999  0.6083899999999998  1.0000
  C   C33       1.0  0.77906  0.9124099999999999  0.6251399999999998  1.0000
  C   C34       1.0  0.8456  0.8972300000000001  0.62946  1.0000
  C   C35       1.0  0.8514599999999999  0.8591700000000001  0.61649  1.0000
  C   C36       1.0  0.78768  0.8367800000000001  0.59951  1.0000
  C   C37       1.0  0.72048  0.85195  0.59572  1.0000
  C   C38       1.0  0.9921500000000001  0.65849  0.62832  1.0000
  C   C39       1.0  0.99189  0.69409  0.62843  1.0000
  C   C40       1.0  0.9297999999999998  0.7037899999999999  0.61412  1.0000
  C   C41       1.0  0.93052  0.73657  0.61329  1.0000
  C   C42       1.0  0.99189  0.76133  0.6278  1.0000
  C   C43       1.0  0.05293  0.75169  0.64299  1.0000
  C   C44       1.0  0.05363999999999999  0.71835  0.64275  1.0000
  C   C45       1.0  0.28343  0.95254  0.38986  1.0000
  C   C46       1.0  0.30961  0.9666200000000001  0.36376  1.0000
  C   C47       1.0  0.31794  0.01610999999999994  0.4226999999999999  1.0000
  C   C48       1.0  0.20663999999999993  0.93237  0.37753999999999993  1.0000
  C   C49       1.0  0.17839  0.91775  0.40244  1.0000
  C   C50       1.0  0.21295  0.9003400000000001  0.33757  1.0000
  C   C51       1.0  0.14116  0.43705  0.97253  1.0000
  C   C52       1.0  0.20073  0.46662000000000003  0.98633  1.0000
  C   C53       1.0  0.26485999999999993  0.46738  0.00699  1.0000
  C   C54       1.0  0.31461  0.49732000000000004  0.020659999999999998  1.0000
  C   C55       1.0  0.30297  0.52632  0.01367  1.0000
  C   C56       1.0  0.24035  0.5252399999999999  0.9925599999999999  1.0000
  C   C57       1.0  0.19008  0.4958000000000001  0.97932  1.0000
  C   C58       1.0  0.35806  0.55769  0.02754  1.0000
  C   C59       1.0  0.49190999999999996  0.64106  0.14989  1.0000
  C   C60       1.0  0.49121999999999993  0.6458699999999999  0.18757999999999994  1.0000
  C   C61       1.0  0.51968  0.6182799999999999  0.19393  1.0000
  C   C62       1.0  0.52042  0.62347  0.22944  1.0000
  C   C63       1.0  0.49084999999999995  0.65582  0.25945  1.0000
  C   C64       1.0  0.46109  0.68296  0.25252  1.0000
  C   C65       1.0  0.46218  0.67837  0.21728  1.0000
  C   C66       1.0  0.49104000000000003  0.6613099999999998  0.29720999999999986  1.0000
  C   C67       1.0  0.49112999999999996  0.63106  0.30293999999999993  1.0000
  C   C68       1.0  0.33777  0.69624  0.08861  1.0000
  C   C69       1.0  0.26895  0.7193300000000001  0.10522999999999998  1.0000
  C   C70       1.0  0.26759  0.7462  0.14280999999999996  1.0000
  C   C71       1.0  0.20113  0.7654100000000001  0.15907  1.0000
  C   C72       1.0  0.13447  0.7589  0.13822999999999996  1.0000
  C   C73       1.0  0.13756  0.73302  0.10021  1.0000
  C   C74       1.0  0.20337  0.71322  0.08402  1.0000
  C   C75       1.0  0.06241  0.7777  0.15555  1.0000
  C   C76       1.0  0.06117  0.81281  0.18723999999999993  1.0000
  C   C77       1.0  0.99266  0.8301700000000001  0.20409  1.0000
  C   C78       1.0  0.92442  0.8119700000000001  0.18794  1.0000
  C   C79       1.0  0.92374  0.77667  0.15665  1.0000
  C   C80       1.0  0.9931799999999998  0.75977  0.141  1.0000
  C   C81       1.0  0.64511  0.69705  0.09368999999999998  1.0000
  C   C82       1.0  0.71587  0.71835  0.10997999999999997  1.0000
  C   C83       1.0  0.7791999999999999  0.71258  0.08743  1.0000
  C   C84       1.0  0.84577  0.73209  0.10259999999999998  1.0000
  C   C85       1.0  0.85171  0.75716  0.14066  1.0000
  C   C86       1.0  0.788  0.76255  0.16306  1.0000
  C   C87       1.0  0.72078  0.7436  0.14791  1.0000
  C   C88       1.0  0.9922299999999998  0.96969  0.34153999999999995  1.0000
  C   C89       1.0  0.9920299999999999  0.93426  0.30585  1.0000
  C   C90       1.0  0.92997  0.91022  0.29612  1.0000
  C   C91       1.0  0.9306899999999999  0.87662  0.26330999999999993  1.0000
  C   C92       1.0  0.99205  0.86639  0.23854999999999998  1.0000
  C   C93       1.0  0.05307  0.89124  0.24821  1.0000
  C   C94       1.0  0.05378  0.92434  0.28158  1.0000
  C   C95       1.0  0.28332  0.43731000000000003  0.04743  1.0000
  C   C96       1.0  0.30953  0.39714  0.03334  1.0000
  C   C97       1.0  0.31793  0.40658000000000005  0.98386  1.0000
  C   C98       1.0  0.20659  0.44518  0.06766  1.0000
  C   C99       1.0  0.17838  0.48472000000000004  0.08228  1.0000
  C   C100      1.0  0.21297  0.43727000000000005  0.09969  1.0000
  C   C101      1.0  0.14018  0.53535  0.5627  1.0000
  C   C102      1.0  0.20009  0.51969  0.53322  1.0000
  C   C103      1.0  0.26413  0.5396299999999999  0.5324699999999998  1.0000
  C   C104      1.0  0.31406  0.5233699999999999  0.5025899999999999  1.0000
  C   C105      1.0  0.30269  0.48731999999999986  0.4735899999999999  1.0000
  C   C106      1.0  0.24019  0.4672399999999999  0.4746699999999999  1.0000
  C   C107      1.0  0.18978  0.48342  0.50406  1.0000
  C   C108      1.0  0.35799999999999993  0.46979  0.44229  1.0000
  C   C109      1.0  0.49199  0.50879  0.35892999999999997  1.0000
  C   C110      1.0  0.49127  0.54163  0.35404  1.0000
  C   C111      1.0  0.51973  0.57559  0.3816  1.0000
  C   C112      1.0  0.52047  0.60589  0.37639  1.0000
  C   C113      1.0  0.49094000000000004  0.6035  0.34403  1.0000
  C   C114      1.0  0.4611700000000001  0.56941  0.31689  1.0000
  C   C115      1.0  0.46227999999999997  0.53878  0.32150999999999996  1.0000
  C   C116      1.0  0.49111000000000005  0.63577  0.33856  1.0000
  C   C117      1.0  0.4911  0.67177  0.36882  1.0000
  C   C118      1.0  0.33784  0.39248  0.30354  1.0000
  C   C119      1.0  0.26901  0.38596  0.28048  1.0000
  C   C120      1.0  0.26757  0.39663  0.25361  1.0000
  C   C121      1.0  0.20107  0.3936200000000001  0.23441  1.0000
  C   C122      1.0  0.13444  0.37931  0.24096999999999996  1.0000
  C   C123      1.0  0.13771  0.36716000000000004  0.26683  1.0000
  C   C124      1.0  0.20354  0.37079  0.28661  1.0000
  C   C125      1.0  0.06228000000000001  0.37783  0.22221  1.0000
  C   C126      1.0  0.06096  0.37437000000000004  0.18709  1.0000
  C   C127      1.0  0.9924399999999999  0.37389  0.16973999999999995  1.0000
  C   C128      1.0  0.9241800000000001  0.37594  0.18792999999999999  1.0000
  C   C129      1.0  0.92352  0.37996  0.22322999999999998  1.0000
  C   C130      1.0  0.9929999999999999  0.38123  0.24012999999999998  1.0000
  C   C131      1.0  0.64507  0.39661  0.3028699999999999  1.0000
  C   C132      1.0  0.7157299999999999  0.39160000000000006  0.28154  1.0000
  C   C133      1.0  0.77906  0.37483999999999995  0.2873299999999999  1.0000
  C   C134      1.0  0.8455899999999998  0.3705  0.26781  1.0000
  C   C135      1.0  0.8514599999999999  0.38348000000000004  0.24272999999999995  1.0000
  C   C136      1.0  0.78771  0.40048  0.23734  1.0000
  C   C137      1.0  0.7205  0.40427  0.2563  1.0000
  C   C138      1.0  0.99225  0.37192  0.03031  1.0000
  C   C139      1.0  0.9920599999999999  0.37165000000000004  0.06572999999999997  1.0000
  C   C140      1.0  0.92997  0.38596  0.08975999999999999  1.0000
  C   C141      1.0  0.93061  0.38671  0.12331999999999999  1.0000
  C   C142      1.0  0.9918800000000001  0.37214  0.13354  1.0000
  C   C143      1.0  0.05297  0.35697999999999996  0.10872  1.0000
  C   C144      1.0  0.05377  0.35728  0.07564  1.0000
  C   C145      1.0  0.28346  0.6101200000000001  0.5626099999999999  1.0000
  C   C146      1.0  0.31006  0.6361100000000001  0.60277  1.0000
  C   C147      1.0  0.31642  0.57719  0.59339  1.0000
  C   C148      1.0  0.20678  0.62261  0.55482  1.0000
  C   C149      1.0  0.17838  0.59767  0.5153  1.0000
  C   C150      1.0  0.21311  0.6625700000000001  0.56279  1.0000
  C   C151      1.0  0.64119  0.97255  0.53549  1.0000
  C   C152      1.0  0.70075  0.98638  0.51973  1.0000
  C   C153      1.0  0.76489  0.007020000000000012  0.53961  1.0000
  C   C154      1.0  0.81466  0.02065  0.52332  1.0000
  C   C155      1.0  0.80307  0.013640000000000011  0.48731  1.0000
  C   C156      1.0  0.74044  0.99253  0.4672899999999999  1.0000
  C   C157      1.0  0.69015  0.97933  0.48351  1.0000
  C   C158      1.0  0.85815  0.02751000000000001  0.46979999999999994  1.0000
  C   C159      1.0  0.9919699999999999  0.14992  0.50877  1.0000
  C   C160      1.0  0.99124  0.18767  0.54162  1.0000
  C   C161      1.0  0.01971  0.19406000000000004  0.57558  1.0000
  C   C162      1.0  0.02044  0.2295799999999999  0.6058899999999998  1.0000
  C   C163      1.0  0.99085  0.25955999999999996  0.6035399999999997  1.0000
  C   C164      1.0  0.96112  0.2526  0.56945  1.0000
  C   C165      1.0  0.96222  0.21735000000000002  0.53879  1.0000
  C   C166      1.0  0.99105  0.29731  0.63585  1.0000
  C   C167      1.0  0.9911299999999998  0.30307  0.67186  1.0000
  C   C168      1.0  0.83776  0.08876000000000002  0.39243  1.0000
  C   C169      1.0  0.76892  0.10536000000000001  0.38593  1.0000
  C   C170      1.0  0.76754  0.14291999999999994  0.3966099999999999  1.0000
  C   C171      1.0  0.7011  0.15917000000000006  0.39363  1.0000
  C   C172      1.0  0.6344  0.13834000000000005  0.3793  1.0000
  C   C173      1.0  0.63754  0.10031999999999996  0.3671699999999999  1.0000
  C   C174      1.0  0.70334  0.08413000000000001  0.37078  1.0000
  C   C175      1.0  0.56228  0.15567  0.37784  1.0000
  C   C176      1.0  0.5609999999999999  0.18735  0.37443  1.0000
  C   C177      1.0  0.4925  0.20423000000000002  0.37397  1.0000
  C   C178      1.0  0.42423  0.18809  0.376  1.0000
  C   C179      1.0  0.42353  0.15680999999999998  0.37999999999999995  1.0000
  C   C180      1.0  0.49299  0.14115  0.38123  1.0000
  C   C181      1.0  0.14509  0.09379999999999997  0.3966099999999999  1.0000
  C   C182      1.0  0.21573  0.11012000000000004  0.39161  1.0000
  C   C183      1.0  0.27906  0.08759  0.37486  1.0000
  C   C184      1.0  0.3456  0.10277  0.37053  1.0000
  C   C185      1.0  0.35146  0.14082999999999998  0.3834999999999999  1.0000
  C   C186      1.0  0.28768  0.16320999999999994  0.40048999999999996  1.0000
  C   C187      1.0  0.22048  0.14805  0.40426999999999996  1.0000
  C   C188      1.0  0.49215  0.34151  0.37167  1.0000
  C   C189      1.0  0.49189  0.30591  0.37157  1.0000
  C   C190      1.0  0.4298  0.2962  0.38587999999999995  1.0000
  C   C191      1.0  0.43052  0.26343  0.38671  1.0000
  C   C192      1.0  0.49189  0.2386699999999999  0.37219999999999986  1.0000
  C   C193      1.0  0.55293  0.2483  0.35700999999999994  1.0000
  C   C194      1.0  0.55364  0.28164  0.35725  1.0000
  C   C195      1.0  0.7834299999999998  0.047449999999999964  0.61014  1.0000
  C   C196      1.0  0.80961  0.03336999999999998  0.63624  1.0000
  C   C197      1.0  0.81794  0.9838900000000002  0.57729  1.0000
  C   C198      1.0  0.70664  0.06762  0.62246  1.0000
  C   C199      1.0  0.67839  0.08225000000000002  0.59756  1.0000
  C   C200      1.0  0.71295  0.09965000000000002  0.66243  1.0000
  C   C201      1.0  0.64116  0.56295  0.02746  1.0000
  C   C202      1.0  0.70073  0.53338  0.01367  1.0000
  C   C203      1.0  0.76486  0.53261  0.99301  1.0000
  C   C204      1.0  0.8146099999999998  0.50267  0.97934  1.0000
  C   C205      1.0  0.80297  0.47368000000000005  0.98633  1.0000
  C   C206      1.0  0.74035  0.47476000000000007  0.00744  1.0000
  C   C207      1.0  0.69008  0.5042  0.02068  1.0000
  C   C208      1.0  0.85806  0.4423099999999999  0.9724599999999999  1.0000
  C   C209      1.0  0.99191  0.35894  0.8501099999999998  1.0000
  C   C210      1.0  0.9912199999999999  0.3541199999999999  0.8124099999999997  1.0000
  C   C211      1.0  0.01968  0.38171999999999995  0.8060699999999997  1.0000
  C   C212      1.0  0.02042  0.37652999999999986  0.7705599999999998  1.0000
  C   C213      1.0  0.99085  0.34418  0.7405499999999998  1.0000
  C   C214      1.0  0.9610899999999999  0.31704  0.74748  1.0000
  C   C215      1.0  0.9621800000000001  0.32163000000000014  0.78272  1.0000
  C   C216      1.0  0.99104  0.33869  0.70279  1.0000
  C   C217      1.0  0.9911299999999998  0.36894  0.69705  1.0000
  C   C218      1.0  0.83777  0.30376  0.91139  1.0000
  C   C219      1.0  0.76895  0.28066  0.89476  1.0000
  C   C220      1.0  0.76759  0.2538  0.85719  1.0000
  C   C221      1.0  0.7011299999999999  0.23458999999999983  0.8409199999999998  1.0000
  C   C222      1.0  0.63447  0.2411  0.86177  1.0000
  C   C223      1.0  0.63757  0.26698  0.89979  1.0000
  C   C224      1.0  0.70337  0.28678  0.91598  1.0000
  C   C225      1.0  0.56241  0.2222899999999999  0.84445  1.0000
  C   C226      1.0  0.5611699999999998  0.18718999999999988  0.8127599999999998  1.0000
  C   C227      1.0  0.49265999999999993  0.1698300000000001  0.79591  1.0000
  C   C228      1.0  0.42442  0.18802000000000002  0.81206  1.0000
  C   C229      1.0  0.42374  0.22332999999999995  0.84335  1.0000
  C   C230      1.0  0.49317999999999995  0.24022  0.859  1.0000
  C   C231      1.0  0.14511  0.30295000000000005  0.90631  1.0000
  C   C232      1.0  0.21587  0.2816400000000001  0.89002  1.0000
  C   C233      1.0  0.2792  0.28740999999999994  0.9125699999999999  1.0000
  C   C234      1.0  0.34577  0.2678999999999999  0.8973999999999999  1.0000
  C   C235      1.0  0.35171  0.24283000000000002  0.85934  1.0000
  C   C236      1.0  0.288  0.23744000000000004  0.83694  1.0000
  C   C237      1.0  0.22076999999999997  0.2564000000000001  0.8520899999999999  1.0000
  C   C238      1.0  0.49223  0.03029999999999999  0.65845  1.0000
  C   C239      1.0  0.49203  0.06574000000000002  0.69415  1.0000
  C   C240      1.0  0.42997  0.08978000000000003  0.70388  1.0000
  C   C241      1.0  0.43069  0.12337999999999995  0.7366899999999998  1.0000
  C   C242      1.0  0.49205  0.13361  0.76145  1.0000
  C   C243      1.0  0.55307  0.10876  0.75178  1.0000
  C   C244      1.0  0.55378  0.07564999999999998  0.71842  1.0000
  C   C245      1.0  0.78332  0.56268  0.95257  1.0000
  C   C246      1.0  0.80953  0.6028600000000002  0.96666  1.0000
  C   C247      1.0  0.8179299999999999  0.5934100000000001  0.01613  1.0000
  C   C248      1.0  0.7065999999999999  0.55482  0.9323399999999998  1.0000
  C   C249      1.0  0.67838  0.51528  0.9177199999999999  1.0000
  C   C250      1.0  0.71297  0.56273  0.9002999999999999  1.0000
  C   C251      1.0  0.6401799999999999  0.46464  0.4373  1.0000
  C   C252      1.0  0.7000899999999999  0.48031000000000007  0.46678  1.0000
  C   C253      1.0  0.7641299999999999  0.46037000000000006  0.46753  1.0000
  C   C254      1.0  0.81406  0.47663  0.49741  1.0000
  C   C255      1.0  0.8027  0.51268  0.52641  1.0000
  C   C256      1.0  0.74019  0.53276  0.52533  1.0000
  C   C257      1.0  0.68979  0.51658  0.49594  1.0000
  C   C258      1.0  0.858  0.53021  0.55771  1.0000
  C   C259      1.0  0.9919899999999999  0.49121000000000004  0.64107  1.0000
  C   C260      1.0  0.9912699999999999  0.45836000000000005  0.64596  1.0000
  C   C261      1.0  0.01973  0.4244  0.6184  1.0000
  C   C262      1.0  0.02047  0.39411  0.62361  1.0000
  C   C263      1.0  0.9909400000000002  0.3965000000000001  0.65597  1.0000
  C   C264      1.0  0.96117  0.43059  0.68311  1.0000
  C   C265      1.0  0.96228  0.46122  0.67849  1.0000
  C   C266      1.0  0.99111  0.36423000000000005  0.66144  1.0000
  C   C267      1.0  0.9911  0.32823  0.63118  1.0000
  C   C268      1.0  0.83784  0.60752  0.69646  1.0000
  C   C269      1.0  0.76901  0.61404  0.7195199999999998  1.0000
  C   C270      1.0  0.76757  0.60337  0.7463899999999998  1.0000
  C   C271      1.0  0.70107  0.60637  0.76558  1.0000
  C   C272      1.0  0.63444  0.62069  0.75902  1.0000
  C   C273      1.0  0.63771  0.63283  0.73317  1.0000
  C   C274      1.0  0.70354  0.62921  0.7133899999999997  1.0000
  C   C275      1.0  0.56228  0.62217  0.77779  1.0000
  C   C276      1.0  0.56096  0.62563  0.81291  1.0000
  C   C277      1.0  0.49244  0.62611  0.83025  1.0000
  C   C278      1.0  0.42418  0.6240599999999998  0.81207  1.0000
  C   C279      1.0  0.42352  0.62003  0.7767599999999998  1.0000
  C   C280      1.0  0.49299999999999994  0.61876  0.75987  1.0000
  C   C281      1.0  0.14507  0.60339  0.6971299999999998  1.0000
  C   C282      1.0  0.21573  0.6084  0.71846  1.0000
  C   C283      1.0  0.27906  0.62516  0.7126699999999998  1.0000
  C   C284      1.0  0.34559  0.62949  0.73219  1.0000
  C   C285      1.0  0.35146  0.61652  0.75727  1.0000
  C   C286      1.0  0.28771  0.59952  0.76266  1.0000
  C   C287      1.0  0.2205  0.59572  0.7437  1.0000
  C   C288      1.0  0.4922500000000001  0.6280800000000001  0.96969  1.0000
  C   C289      1.0  0.49206  0.6283399999999999  0.9342699999999999  1.0000
  C   C290      1.0  0.42997  0.61403  0.91024  1.0000
  C   C291      1.0  0.43061  0.61328  0.87667  1.0000
  C   C292      1.0  0.49188  0.6278600000000001  0.86646  1.0000
  C   C293      1.0  0.55297  0.6430199999999999  0.89128  1.0000
  C   C294      1.0  0.55378  0.64272  0.9243499999999999  1.0000
  C   C295      1.0  0.7834599999999999  0.38988  0.4373899999999999  1.0000
  C   C296      1.0  0.81006  0.36389  0.39723  1.0000
  C   C297      1.0  0.8164199999999999  0.42281  0.40661  1.0000
  C   C298      1.0  0.70679  0.37739000000000006  0.44518  1.0000
  C   C299      1.0  0.67838  0.40231999999999996  0.48469999999999996  1.0000
  C   C300      1.0  0.7131099999999999  0.33742999999999995  0.4372099999999999  1.0000
  N   N1        1.0  0.28361  0.9876400000000001  0.4249799999999999  1.0000
  N   N2        1.0  0.28349  0.43732  0.01233  1.0000
  N   N3        1.0  0.28268  0.57504  0.5626  1.0000
  N   N4        1.0  0.78361  0.012359999999999928  0.5750199999999999  1.0000
  N   N5        1.0  0.78349  0.56268  0.98767  1.0000
  N   N6        1.0  0.7826899999999999  0.42496  0.4374  1.0000
  O   O1        1.0  0.49228999999999995  0.9412399999999997  0.5731599999999999  1.0000
  O   O2        1.0  0.09126  0.049019999999999994  0.48711999999999994  1.0000
  O   O3        1.0  0.14324  0.015949999999999936  0.42997999999999986  1.0000
  O   O4        1.0  0.34853  0.9837  0.56444  1.0000
  O   O5        1.0  0.40992  0.95069  0.50934  1.0000
  O   O6        1.0  0.48029  0.85238  0.52242  1.0000
  O   O7        1.0  0.50405  0.87707  0.48567999999999995  1.0000
  O   O8        1.0  0.39845  0.8919200000000002  0.5985  1.0000
  O   O9        1.0  0.33018  0.9432800000000001  0.6110999999999998  1.0000
  O   O10       1.0  0.64772  0.9403600000000001  0.61298  1.0000
  O   O11       1.0  0.5873  0.8849900000000002  0.59005  1.0000
  O   O12       1.0  0.05666  0.64658  0.63187  1.0000
  O   O13       1.0  0.92811  0.64265  0.62461  1.0000
  O   O14       1.0  0.34065  0.0031199999999999934  0.38666  1.0000
  O   O15       1.0  0.32933  0.04744000000000005  0.44736  1.0000
  O   O16       1.0  0.49234  0.63188  0.05869  1.0000
  O   O17       1.0  0.09121999999999998  0.4380899999999999  0.9509599999999998  1.0000
  O   O18       1.0  0.14322  0.41403000000000006  0.98403  1.0000
  O   O19       1.0  0.34845  0.58068  0.0163  1.0000
  O   O20       1.0  0.40986  0.55866  0.04933  1.0000
  O   O21       1.0  0.48033999999999993  0.66998  0.14763  1.0000
  O   O22       1.0  0.50396  0.60851  0.12287  1.0000
  O   O23       1.0  0.39839  0.7065  0.10799  1.0000
  O   O24       1.0  0.33026  0.66772  0.056549999999999996  1.0000
  O   O25       1.0  0.6477299999999999  0.67249  0.05952  1.0000
  O   O26       1.0  0.58736  0.7049  0.11491999999999998  1.0000
  O   O27       1.0  0.05670000000000001  0.98522  0.35347  1.0000
  O   O28       1.0  0.92819  0.9816400000000001  0.35746  1.0000
  O   O29       1.0  0.34067  0.38354999999999995  0.99687  1.0000
  O   O30       1.0  0.32931  0.3999  0.95254  1.0000
  O   O31       1.0  0.49224  0.42683999999999994  0.36803  1.0000
  O   O32       1.0  0.09113  0.5124999999999998  0.5618299999999998  1.0000
  O   O33       1.0  0.14049  0.5699599999999999  0.5854199999999999  1.0000
  O   O34       1.0  0.34858  0.43552  0.4192799999999999  1.0000
  O   O35       1.0  0.40978  0.49065  0.4414  1.0000
  O   O36       1.0  0.48040000000000005  0.47761  0.33  1.0000
  O   O37       1.0  0.50399  0.51432  0.39147  1.0000
  O   O38       1.0  0.39848  0.40159  0.29331  1.0000
  O   O39       1.0  0.33023  0.3889099999999999  0.3320299999999999  1.0000
  O   O40       1.0  0.64774  0.38704  0.32745  1.0000
  O   O41       1.0  0.58729  0.40993000000000007  0.29501  1.0000
  O   O42       1.0  0.056679999999999994  0.36822  0.014729999999999998  1.0000
  O   O43       1.0  0.9282  0.37597  0.01842  1.0000
  O   O44       1.0  0.34042  0.61305  0.61633  1.0000
  O   O45       1.0  0.32614  0.55247  0.60014  1.0000
  O   O46       1.0  0.99229  0.05876000000000003  0.42683  1.0000
  O   O47       1.0  0.59126  0.95097  0.51288  1.0000
  O   O48       1.0  0.64325  0.9840400000000001  0.57002  1.0000
  O   O49       1.0  0.84853  0.016300000000000012  0.43556  1.0000
  O   O50       1.0  0.9099200000000001  0.049300000000000004  0.49066  1.0000
  O   O51       1.0  0.98029  0.14761999999999997  0.47757999999999995  1.0000
  O   O52       1.0  0.00405  0.12293  0.51431  1.0000
  O   O53       1.0  0.89846  0.10806999999999996  0.4015  1.0000
  O   O54       1.0  0.8301799999999999  0.056719999999999965  0.38889  1.0000
  O   O55       1.0  0.14772  0.05964000000000004  0.38701  1.0000
  O   O56       1.0  0.0873  0.11501000000000004  0.40995  1.0000
  O   O57       1.0  0.55667  0.35341  0.36812  1.0000
  O   O58       1.0  0.42811  0.35734  0.37539  1.0000
  O   O59       1.0  0.84065  0.9968800000000001  0.61334  1.0000
  O   O60       1.0  0.82934  0.9525499999999999  0.5526399999999998  1.0000
  O   O61       1.0  0.99234  0.36812  0.94131  1.0000
  O   O62       1.0  0.59122  0.56191  0.04904  1.0000
  O   O63       1.0  0.64322  0.58596  0.01597  1.0000
  O   O64       1.0  0.84845  0.4193200000000001  0.9837  1.0000
  O   O65       1.0  0.90986  0.44133000000000006  0.95067  1.0000
  O   O66       1.0  0.98034  0.33001999999999987  0.85237  1.0000
  O   O67       1.0  0.00396  0.39149000000000006  0.8771299999999997  1.0000
  O   O68       1.0  0.89839  0.2935  0.892  1.0000
  O   O69       1.0  0.83026  0.3322800000000001  0.94345  1.0000
  O   O70       1.0  0.14773  0.32751  0.94048  1.0000
  O   O71       1.0  0.08736  0.29508999999999996  0.8850799999999999  1.0000
  O   O72       1.0  0.5567  0.014769999999999985  0.64653  1.0000
  O   O73       1.0  0.42819  0.018360000000000036  0.64254  1.0000
  O   O74       1.0  0.84067  0.61644  0.003129999999999999  1.0000
  O   O75       1.0  0.8293099999999999  0.60009  0.04745999999999999  1.0000
  O   O76       1.0  0.9922399999999999  0.57315  0.6319699999999999  1.0000
  O   O77       1.0  0.59113  0.48748999999999987  0.4381699999999999  1.0000
  O   O78       1.0  0.64049  0.4300399999999999  0.4145799999999999  1.0000
  O   O79       1.0  0.84858  0.56448  0.5807199999999999  1.0000
  O   O80       1.0  0.90978  0.50935  0.5586  1.0000
  O   O81       1.0  0.9804000000000002  0.52239  0.67  1.0000
  O   O82       1.0  0.00399  0.4856799999999999  0.6085299999999998  1.0000
  O   O83       1.0  0.89848  0.59841  0.7066899999999998  1.0000
  O   O84       1.0  0.83023  0.6110899999999999  0.6679699999999998  1.0000
  O   O85       1.0  0.14774  0.61296  0.67255  1.0000
  O   O86       1.0  0.08728  0.59007  0.70499  1.0000
  O   O87       1.0  0.55668  0.63178  0.9852699999999999  1.0000
  O   O88       1.0  0.4282  0.62403  0.9815799999999999  1.0000
  O   O89       1.0  0.8404199999999998  0.38694999999999996  0.38366999999999996  1.0000
  O   O90       1.0  0.82614  0.44751999999999986  0.3998499999999999  1.0000
