data_image0
_chemical_formula_structural       K4Zn38H384C648O160
_chemical_formula_sum              "K4 Zn38 H384 C648 O160"
_cell_length_a       32.39225
_cell_length_b       32.389359999999996
_cell_length_c       33.42149
_cell_angle_alpha    118.93669
_cell_angle_beta     118.94392
_cell_angle_gamma    90.17704

_symmetry_space_group_name_H-M    'P 1'
_symmetry_Int_Tables_number       1

loop_
  _symmetry_equiv_pos_as_xyz
  'x,y,z'

loop_
  _atom_site_type_symbol
  _atom_site_label
  _atom_site_symmetry_multiplicity
  _atom_site_fract_x
  _atom_site_fract_y
  _atom_site_fract_z
  _atom_site_occupancy
  K   K1        1.0  0.87452  0.60966  0.24978  1.0000
  K   K2        1.0  0.37589999999999996  0.6409099999999998  0.24996  1.0000
  K   K3        1.0  0.39037  0.12548999999999996  0.75022  1.0000
  K   K4        1.0  0.35906  0.62411  0.75002  1.0000
  Zn  Zn1       1.0  0.03532000000000002  0.66324  0.29567  1.0000
  Zn  Zn2       1.0  0.03489999999999995  0.62091  0.3716999999999999  1.0000
  Zn  Zn3       1.0  0.04150999999999994  0.73806  0.41343999999999986  1.0000
  Zn  Zn4       1.0  0.78774  0.39627  0.60484  1.0000
  Zn  Zn5       1.0  0.26079  0.63324  0.29557  1.0000
  Zn  Zn6       1.0  0.33748  0.75169  0.37151999999999996  1.0000
  Zn  Zn7       1.0  0.3726  0.6751999999999998  0.41251  1.0000
  Zn  Zn8       1.0  0.8170199999999999  0.20819000000000004  0.60628  1.0000
  Zn  Zn9       1.0  0.38310000000000005  0.2857499999999999  0.7963699999999999  1.0000
  Zn  Zn10      1.0  0.4996300000000001  0.2812799999999999  0.8700499999999999  1.0000
  Zn  Zn11      1.0  0.42576  0.29322000000000004  0.91431  1.0000
  Zn  Zn12      1.0  0.95838  0.03761  0.10571  1.0000
  Zn  Zn13      1.0  0.41342000000000007  0.51036  0.79504  1.0000
  Zn  Zn14      1.0  0.37012000000000006  0.5879699999999999  0.8682899999999999  1.0000
  Zn  Zn15      1.0  0.48801  0.6209299999999998  0.91373  1.0000
  Zn  Zn16      1.0  0.14793999999999996  0.06719999999999998  0.10568999999999999  1.0000
  Zn  Zn17      1.0  0.48962999999999995  0.58662  0.20494999999999994  1.0000
  Zn  Zn18      1.0  0.4121  0.63021  0.13183  1.0000
  Zn  Zn19      1.0  0.37908  0.5120699999999998  0.08632  1.0000
  Zn  Zn20      1.0  0.9328199999999999  0.8520699999999999  0.8942999999999999  1.0000
  Zn  Zn21      1.0  0.71426  0.61689  0.20363999999999996  1.0000
  Zn  Zn22      1.0  0.71869  0.50037  0.12994  1.0000
  Zn  Zn23      1.0  0.70678  0.57424  0.08568999999999999  1.0000
  Zn  Zn24      1.0  0.96238  0.04161999999999998  0.89428  1.0000
  Zn  Zn25      1.0  0.3367299999999999  0.96468  0.7043099999999999  1.0000
  Zn  Zn26      1.0  0.37910999999999995  0.96531  0.62841  1.0000
  Zn  Zn27      1.0  0.2619  0.95848  0.58653  1.0000
  Zn  Zn28      1.0  0.60375  0.21228  0.39519  1.0000
  Zn  Zn29      1.0  0.36675  0.73921  0.70441  1.0000
  Zn  Zn30      1.0  0.24833000000000002  0.6625299999999998  0.6285  1.0000
  Zn  Zn31      1.0  0.3248  0.62742  0.58748  1.0000
  Zn  Zn32      1.0  0.79176  0.183  0.3939  1.0000
  Zn  Zn33      1.0  0.81913  0.3195899999999999  0.63929  1.0000
  Zn  Zn34      1.0  0.06915  0.06910999999999998  0.13928  1.0000
  Zn  Zn35      1.0  0.93086  0.93084  0.86058  1.0000
  Zn  Zn36      1.0  0.68067  0.18095999999999995  0.36098  1.0000
  Zn  Zn37      1.0  0.75007  0.24977999999999997  0.50051  1.0000
  Zn  Zn38      1.0  9.999999999991984e-05  0.9998899999999998  0.9999899999999999  1.0000
  H   H1        1.0  0.74689  0.33770000000000006  0.50436  1.0000
  H   H2        1.0  0.98162  0.66517  0.33007  1.0000
  H   H3        1.0  0.72812  0.31499  0.55525  1.0000
  H   H4        1.0  0.96018  0.6154  0.12261  1.0000
  H   H5        1.0  0.89431  0.5810699999999998  0.02467  1.0000
  H   H6        1.0  0.79272  0.51095  0.03819  1.0000
  H   H7        1.0  0.85841  0.54397  0.13462  1.0000
  H   H8        1.0  0.83948  0.5024499999999997  0.93117  1.0000
  H   H9        1.0  0.68617  0.4825499999999999  0.8213899999999998  1.0000
  H   H10       1.0  0.74713  0.54787  0.9928599999999999  1.0000
  H   H11       1.0  0.82149  0.43185  0.85314  1.0000
  H   H12       1.0  0.83371  0.39843  0.77649  1.0000
  H   H13       1.0  0.72851  0.46222999999999986  0.70551  1.0000
  H   H14       1.0  0.71741  0.4973  0.78288  1.0000
  H   H15       1.0  0.6184499999999999  0.45566999999999996  0.8142499999999999  1.0000
  H   H16       1.0  0.53774  0.46496  0.80111  1.0000
  H   H17       1.0  0.61282  0.59483  0.96468  1.0000
  H   H18       1.0  0.69437  0.5874099999999998  0.9788699999999998  1.0000
  H   H19       1.0  0.95455  0.49073999999999995  0.34681999999999996  1.0000
  H   H20       1.0  0.88518  0.42519  0.31574  1.0000
  H   H21       1.0  0.78525  0.50754  0.27736  1.0000
  H   H22       1.0  0.8542599999999999  0.57273  0.3092  1.0000
  H   H23       1.0  0.82028  0.40744  0.33378  1.0000
  H   H24       1.0  0.6717  0.31187  0.19584  1.0000
  H   H25       1.0  0.74492  0.42674  0.20048  1.0000
  H   H26       1.0  0.82442  0.3375199999999999  0.33050999999999997  1.0000
  H   H27       1.0  0.8259800000000003  0.29226999999999986  0.37303  1.0000
  H   H28       1.0  0.6703700000000001  0.27114  0.30715  1.0000
  H   H29       1.0  0.6684  0.31574999999999986  0.26377  1.0000
  H   H30       1.0  0.60457  0.33076  0.14866  1.0000
  H   H31       1.0  0.53278  0.31427  0.06138999999999999  1.0000
  H   H32       1.0  0.63034  0.35906  0.027699999999999995  1.0000
  H   H33       1.0  0.70282  0.37690999999999986  0.11497999999999997  1.0000
  H   H34       1.0  0.79511  0.64858  0.0619  1.0000
  H   H35       1.0  0.86225  0.69357  0.06777  1.0000
  H   H36       1.0  0.96154  0.74053  0.23667  1.0000
  H   H37       1.0  0.89558  0.69358  0.22934999999999994  1.0000
  H   H38       1.0  0.91842  0.76735  0.10229  1.0000
  H   H39       1.0  0.07361000000000001  0.7920099999999999  0.16169  1.0000
  H   H40       1.0  0.009130000000000001  0.72057  0.20723  1.0000
  H   H41       1.0  0.91854  0.74984  0.02624  1.0000
  H   H42       1.0  0.90949  0.7822599999999998  0.9696299999999998  1.0000
  H   H43       1.0  0.04999999999999999  0.89676  0.10372999999999998  1.0000
  H   H44       1.0  0.05995000000000001  0.863  0.15907  1.0000
  H   H45       1.0  0.14301  0.81597  0.24959999999999996  1.0000
  H   H46       1.0  0.21983  0.8012499999999998  0.30356  1.0000
  H   H47       1.0  0.13377  0.66361  0.25129  1.0000
  H   H48       1.0  0.056399999999999985  0.67737  0.19754  1.0000
  H   H49       1.0  0.76249  0.16882000000000005  0.50587  1.0000
  H   H50       1.0  0.34861  0.66591  0.32928  1.0000
  H   H51       1.0  0.82547  0.23655999999999988  0.55374  1.0000
  H   H52       1.0  0.16296  0.50778  0.12282  1.0000
  H   H53       1.0  0.13105  0.44373  0.02505  1.0000
  H   H54       1.0  0.24588000000000002  0.52754  0.03835  1.0000
  H   H55       1.0  0.27651  0.59136  0.13461  1.0000
  H   H56       1.0  0.09214999999999991  0.42872999999999994  0.9315799999999999  1.0000
  H   H57       1.0  0.13547  0.33888  0.8217  1.0000
  H   H58       1.0  0.24626999999999996  0.4452599999999999  0.99313  1.0000
  H   H59       1.0  0.03215999999999998  0.42155  0.85355  1.0000
  H   H60       1.0  0.9432099999999999  0.37853999999999977  0.7767299999999998  1.0000
  H   H61       1.0  0.9769499999999999  0.24345  0.70555  1.0000
  H   H62       1.0  0.06546999999999999  0.28556  0.78302  1.0000
  H   H63       1.0  0.19605  0.35885999999999996  0.8144699999999999  1.0000
  H   H64       1.0  0.26367000000000007  0.33644  0.80135  1.0000
  H   H65       1.0  0.35244  0.37049  0.96494  1.0000
  H   H66       1.0  0.28512  0.39218  0.97919  1.0000
  H   H67       1.0  0.39276  0.85686  0.34657  1.0000
  H   H68       1.0  0.43098999999999993  0.89096  0.3152499999999999  1.0000
  H   H69       1.0  0.49288  0.77037  0.27783  1.0000
  H   H70       1.0  0.45573  0.73739  0.30987999999999993  1.0000
  H   H71       1.0  0.51398  0.92669  0.3334  1.0000
  H   H72       1.0  0.52445  0.88386  0.19540999999999997  1.0000
  H   H73       1.0  0.45587  0.77384  0.20031  1.0000
  H   H74       1.0  0.50687  0.9933599999999999  0.33067999999999986  1.0000
  H   H75       1.0  0.54815  0.08130999999999994  0.3738  1.0000
  H   H76       1.0  0.6376  0.03695999999999997  0.30779999999999996  1.0000
  H   H77       1.0  0.5961699999999999  0.9488599999999998  0.26388999999999996  1.0000
  H   H78       1.0  0.54427  0.81739  0.14814  1.0000
  H   H79       1.0  0.5282  0.7465  0.06063  1.0000
  H   H80       1.0  0.39677  0.66851  0.027129999999999994  1.0000
  H   H81       1.0  0.4122  0.7378799999999998  0.11474999999999998  1.0000
  H   H82       1.0  0.26641  0.41384  0.06203  1.0000
  H   H83       1.0  0.20518  0.37464  0.06782  1.0000
  H   H84       1.0  0.27492  0.49699  0.23674999999999993  1.0000
  H   H85       1.0  0.33381  0.53635  0.22953  1.0000
  H   H86       1.0  0.18394  0.33538  0.10303999999999999  1.0000
  H   H87       1.0  0.08757999999999999  0.37005  0.16155999999999998  1.0000
  H   H88       1.0  0.19774  0.48717  0.20740999999999998  1.0000
  H   H89       1.0  0.10808  0.27677  0.027049999999999998  1.0000
  H   H90       1.0  0.06093999999999997  0.18747999999999987  0.9702799999999999  1.0000
  H   H91       1.0  0.05375  0.20679999999999998  0.10369  1.0000
  H   H92       1.0  0.09872000000000002  0.2960799999999999  0.15917  1.0000
  H   H93       1.0  0.10616  0.4343599999999999  0.24974  1.0000
  H   H94       1.0  0.08406999999999998  0.5036599999999998  0.30409  1.0000
  H   H95       1.0  0.11761  0.58814  0.25098  1.0000
  H   H96       1.0  0.14069  0.52015  0.19708  1.0000
  H   H97       1.0  0.9187700000000001  0.9937299999999999  0.005519999999999999  1.0000
  H   H98       1.0  0.41155  0.23128000000000007  0.83037  1.0000
  H   H99       1.0  0.98869  0.97787  0.05444999999999999  1.0000
  H   H100      1.0  0.25772999999999996  0.21046999999999988  0.6232699999999999  1.0000
  H   H101      1.0  0.19396  0.14447000000000004  0.52539  1.0000
  H   H102      1.0  0.2775  0.043339999999999976  0.53917  1.0000
  H   H103      1.0  0.34111  0.10915000000000002  0.63543  1.0000
  H   H104      1.0  0.17914999999999998  0.08976999999999993  0.43193999999999994  1.0000
  H   H105      1.0  0.08889  0.93633  0.32222  1.0000
  H   H106      1.0  0.19540999999999992  0.99734  0.4936199999999999  1.0000
  H   H107      1.0  0.17166999999999993  0.07203999999999998  0.3540099999999999  1.0000
  H   H108      1.0  0.1285  0.08407000000000003  0.27721  1.0000
  H   H109      1.0  0.99352  0.97838  0.20618  1.0000
  H   H110      1.0  0.03574999999999997  0.96728  0.28351  1.0000
  H   H111      1.0  0.10927000000000002  0.86882  0.31503  1.0000
  H   H112      1.0  0.08628000000000002  0.78787  0.30159  1.0000
  H   H113      1.0  0.11989  0.8622999999999997  0.46488  1.0000
  H   H114      1.0  0.14213  0.94416  0.47959  1.0000
  H   H115      1.0  0.60736  0.20411000000000007  0.8468  1.0000
  H   H116      1.0  0.64182  0.13486999999999996  0.81632  1.0000
  H   H117      1.0  0.52069  0.034909999999999976  0.77809  1.0000
  H   H118      1.0  0.48718  0.10379999999999999  0.80911  1.0000
  H   H119      1.0  0.67734  0.07014999999999999  0.83427  1.0000
  H   H120      1.0  0.63412  0.9215699999999998  0.6962  1.0000
  H   H121      1.0  0.52443  0.9947  0.7012099999999999  1.0000
  H   H122      1.0  0.74415  0.07443999999999995  0.8313699999999999  1.0000
  H   H123      1.0  0.83182  0.07608000000000001  0.87361  1.0000
  H   H124      1.0  0.78646  0.9202999999999999  0.8070699999999998  1.0000
  H   H125      1.0  0.6985699999999999  0.9182099999999999  0.7639999999999999  1.0000
  H   H126      1.0  0.56799  0.85449  0.64887  1.0000
  H   H127      1.0  0.49723999999999996  0.7827399999999998  0.56116  1.0000
  H   H128      1.0  0.41897  0.88033  0.52809  1.0000
  H   H129      1.0  0.4886  0.95282  0.61565  1.0000
  H   H130      1.0  0.16274  0.04537000000000005  0.56143  1.0000
  H   H131      1.0  0.12388000000000005  0.11244000000000005  0.56745  1.0000
  H   H132      1.0  0.24590999999999996  0.21152  0.73648  1.0000
  H   H133      1.0  0.28526  0.14561999999999994  0.72902  1.0000
  H   H134      1.0  0.08471  0.16863999999999996  0.60246  1.0000
  H   H135      1.0  0.12002  0.3237699999999999  0.66162  1.0000
  H   H136      1.0  0.23670999999999995  0.25960999999999995  0.7073499999999999  1.0000
  H   H137      1.0  0.02619999999999996  0.16882  0.52629  1.0000
  H   H138      1.0  0.93718  0.15960999999999997  0.4695599999999999  1.0000
  H   H139      1.0  0.95715  0.29978  0.60384  1.0000
  H   H140      1.0  0.04619999999999998  0.30987  0.65925  1.0000
  H   H141      1.0  0.18417999999999993  0.3934799999999999  0.7496599999999998  1.0000
  H   H142      1.0  0.25318  0.47027999999999986  0.80318  1.0000
  H   H143      1.0  0.33805  0.3839299999999999  0.75117  1.0000
  H   H144      1.0  0.27016  0.30666  0.69771  1.0000
  H   H145      1.0  0.08692  0.012319999999999998  0.005849999999999999  1.0000
  H   H146      1.0  0.41946  0.59922  0.82983  1.0000
  H   H147      1.0  0.06666  0.07597  0.05424  1.0000
  H   H148      1.0  0.36516  0.4123799999999999  0.62173  1.0000
  H   H149      1.0  0.33102  0.38084000000000007  0.52397  1.0000
  H   H150      1.0  0.26116  0.49575  0.53825  1.0000
  H   H151      1.0  0.29375  0.5256899999999998  0.6344  1.0000
  H   H152      1.0  0.25289999999999996  0.3422799999999998  0.43094999999999994  1.0000
  H   H153      1.0  0.23320000000000005  0.38602  0.32134  1.0000
  H   H154      1.0  0.29771999999999993  0.49654  0.49266999999999994  1.0000
  H   H155      1.0  0.18249999999999994  0.2823399999999999  0.3535699999999999  1.0000
  H   H156      1.0  0.14852  0.19336  0.277  1.0000
  H   H157      1.0  0.21211  0.22713  0.20531  1.0000
  H   H158      1.0  0.24739999999999998  0.31578  0.28241  1.0000
  H   H159      1.0  0.20559  0.4465099999999999  0.31414  1.0000
  H   H160      1.0  0.21508000000000002  0.51424  0.30108  1.0000
  H   H161      1.0  0.34492  0.60311  0.46447  1.0000
  H   H162      1.0  0.33723  0.53586  0.47896999999999995  1.0000
  H   H163      1.0  0.2389599999999999  0.6423699999999998  0.8461599999999998  1.0000
  H   H164      1.0  0.17412999999999995  0.6811399999999997  0.8155699999999999  1.0000
  H   H165      1.0  0.25755  0.74279  0.77782  1.0000
  H   H166      1.0  0.3219099999999999  0.70497  0.8089299999999999  1.0000
  H   H167      1.0  0.15675  0.76394  0.83367  1.0000
  H   H168      1.0  0.06194999999999998  0.77453  0.69572  1.0000
  H   H169      1.0  0.17665999999999996  0.70635  0.70076  1.0000
  H   H170      1.0  0.08713000000000001  0.75677  0.83065  1.0000
  H   H171      1.0  0.04200999999999998  0.7977  0.8732  1.0000
  H   H172      1.0  0.02073999999999998  0.88683  0.80668  1.0000
  H   H173      1.0  0.06537  0.84573  0.76347  1.0000
  H   H174      1.0  0.08058  0.7941799999999999  0.6485299999999999  1.0000
  H   H175      1.0  0.06395999999999996  0.7785  0.56113  1.0000
  H   H176      1.0  0.10927000000000002  0.64793  0.52795  1.0000
  H   H177      1.0  0.12679999999999994  0.66262  0.6151799999999998  1.0000
  H   H178      1.0  0.39878  0.516  0.56223  1.0000
  H   H179      1.0  0.44354999999999994  0.4548  0.5679  1.0000
  H   H180      1.0  0.4905799999999999  0.52429  0.7368199999999998  1.0000
  H   H181      1.0  0.44405999999999995  0.5830899999999999  0.7297099999999999  1.0000
  H   H182      1.0  0.51742  0.43364999999999976  0.6025  1.0000
  H   H183      1.0  0.54147  0.33728  0.6611  1.0000
  H   H184      1.0  0.47067999999999993  0.44721  0.7073799999999999  1.0000
  H   H185      1.0  0.50042  0.3576  0.52637  1.0000
  H   H186      1.0  0.5329  0.30989  0.46998  1.0000
  H   H187      1.0  0.64622  0.30328  0.60427  1.0000
  H   H188      1.0  0.61255  0.3491  0.65936  1.0000
  H   H189      1.0  0.56557  0.35528  0.74909  1.0000
  H   H190      1.0  0.55093  0.33294  0.80354  1.0000
  H   H191      1.0  0.41414  0.36757  0.7523  1.0000
  H   H192      1.0  0.42773  0.39042  0.69788  1.0000
  H   H193      1.0  0.9876199999999999  0.91307  0.9940999999999998  1.0000
  H   H194      1.0  0.4008399999999999  0.5806999999999998  0.17015999999999995  1.0000
  H   H195      1.0  0.92404  0.93331  0.94572  1.0000
  H   H196      1.0  0.58761  0.63485  0.37826999999999994  1.0000
  H   H197      1.0  0.61915  0.66898  0.47603  1.0000
  H   H198      1.0  0.50423  0.73882  0.46172  1.0000
  H   H199      1.0  0.4742799999999999  0.7062299999999998  0.36557999999999996  1.0000
  H   H200      1.0  0.65771  0.7471  0.56904  1.0000
  H   H201      1.0  0.6139799999999999  0.7668099999999997  0.6786599999999999  1.0000
  H   H202      1.0  0.50345  0.70226  0.50731  1.0000
  H   H203      1.0  0.71763  0.81751  0.64642  1.0000
  H   H204      1.0  0.80662  0.85149  0.72298  1.0000
  H   H205      1.0  0.77288  0.7878999999999998  0.7946999999999999  1.0000
  H   H206      1.0  0.68422  0.7526099999999998  0.7176  1.0000
  H   H207      1.0  0.55349  0.7944  0.68584  1.0000
  H   H208      1.0  0.48578  0.78492  0.69892  1.0000
  H   H209      1.0  0.39687  0.65509  0.53552  1.0000
  H   H210      1.0  0.46412  0.66277  0.52101  1.0000
  H   H211      1.0  0.35758  0.76109  0.15384999999999996  1.0000
  H   H212      1.0  0.31881  0.8259099999999998  0.18444  1.0000
  H   H213      1.0  0.25718  0.74248  0.2222  1.0000
  H   H214      1.0  0.29502  0.67811  0.19108999999999995  1.0000
  H   H215      1.0  0.23605  0.8432699999999997  0.16635  1.0000
  H   H216      1.0  0.22546  0.93806  0.30428  1.0000
  H   H217      1.0  0.29364  0.82335  0.29925  1.0000
  H   H218      1.0  0.24321  0.91287  0.16934  1.0000
  H   H219      1.0  0.20227999999999996  0.95799  0.12678  1.0000
  H   H220      1.0  0.11315  0.9792599999999998  0.19328  1.0000
  H   H221      1.0  0.15426  0.93464  0.23652  1.0000
  H   H222      1.0  0.20581  0.9194199999999998  0.35144  1.0000
  H   H223      1.0  0.22147999999999995  0.9360399999999997  0.4388399999999999  1.0000
  H   H224      1.0  0.35207  0.89075  0.47208  1.0000
  H   H225      1.0  0.33736999999999995  0.87321  0.3848399999999999  1.0000
  H   H226      1.0  0.48401  0.6012  0.43776  1.0000
  H   H227      1.0  0.54523  0.5564599999999998  0.4320899999999999  1.0000
  H   H228      1.0  0.47571  0.50945  0.26317  1.0000
  H   H229      1.0  0.41689  0.5559299999999998  0.27028  1.0000
  H   H230      1.0  0.56636  0.4825899999999999  0.3974999999999999  1.0000
  H   H231      1.0  0.66271  0.45853  0.33888999999999997  1.0000
  H   H232      1.0  0.5528  0.52935  0.29262  1.0000
  H   H233      1.0  0.6424  0.49955999999999995  0.47360999999999986  1.0000
  H   H234      1.0  0.69011  0.4670699999999998  0.53  1.0000
  H   H235      1.0  0.69671  0.35376  0.39572  1.0000
  H   H236      1.0  0.6509  0.38745  0.34064  1.0000
  H   H237      1.0  0.64471  0.4344399999999998  0.25092  1.0000
  H   H238      1.0  0.66706  0.44907  0.19647  1.0000
  H   H239      1.0  0.63242  0.58587  0.24767  1.0000
  H   H240      1.0  0.60957  0.57227  0.30209  1.0000
  H   H241      1.0  0.006190000000000105  0.08124000000000002  0.99446  1.0000
  H   H242      1.0  0.7687200000000001  0.5884299999999998  0.16965  1.0000
  H   H243      1.0  0.022130000000000014  0.011300000000000018  0.94553  1.0000
  H   H244      1.0  0.78954  0.74226  0.37671999999999994  1.0000
  H   H245      1.0  0.85553  0.80603  0.4746099999999999  1.0000
  H   H246      1.0  0.95668  0.72251  0.46085  1.0000
  H   H247      1.0  0.89087  0.65891  0.36459  1.0000
  H   H248      1.0  0.9102300000000001  0.82085  0.56806  1.0000
  H   H249      1.0  0.06368000000000001  0.9111099999999998  0.6778  1.0000
  H   H250      1.0  0.0026600000000000495  0.8046  0.5064  1.0000
  H   H251      1.0  0.92797  0.8283399999999997  0.64601  1.0000
  H   H252      1.0  0.91592  0.87153  0.72279  1.0000
  H   H253      1.0  0.02160999999999999  0.006500000000000017  0.7938  1.0000
  H   H254      1.0  0.03271999999999995  0.9642599999999999  0.7164899999999998  1.0000
  H   H255      1.0  0.13118999999999995  0.89074  0.68498  1.0000
  H   H256      1.0  0.21213  0.91373  0.69843  1.0000
  H   H257      1.0  0.13768  0.8801399999999998  0.53514  1.0000
  H   H258      1.0  0.05583000000000005  0.8578999999999999  0.52042  1.0000
  H   H259      1.0  0.79588  0.39264  0.15319  1.0000
  H   H260      1.0  0.86512  0.35817  0.18368  1.0000
  H   H261      1.0  0.96508  0.47932  0.2219  1.0000
  H   H262      1.0  0.8961900000000002  0.51284  0.19088  1.0000
  H   H263      1.0  0.9298499999999998  0.32267  0.16570999999999994  1.0000
  H   H264      1.0  0.07843  0.36588  0.3038  1.0000
  H   H265      1.0  0.005299999999999978  0.47557  0.29878999999999994  1.0000
  H   H266      1.0  0.92557  0.25585  0.16864  1.0000
  H   H267      1.0  0.9239200000000002  0.16818  0.12638  1.0000
  H   H268      1.0  0.07969999999999998  0.21353999999999992  0.19291999999999998  1.0000
  H   H269      1.0  0.0818  0.30143  0.236  1.0000
  H   H270      1.0  0.14551000000000003  0.43201999999999996  0.35113  1.0000
  H   H271      1.0  0.21727  0.50278  0.43883  1.0000
  H   H272      1.0  0.11966  0.58101  0.47191  1.0000
  H   H273      1.0  0.04717999999999998  0.51138  0.3843599999999999  1.0000
  H   H274      1.0  0.9546600000000001  0.8372699999999997  0.43858  1.0000
  H   H275      1.0  0.88759  0.87613  0.43256  1.0000
  H   H276      1.0  0.7885000000000001  0.75412  0.26353  1.0000
  H   H277      1.0  0.85439  0.71477  0.27098  1.0000
  H   H278      1.0  0.83139  0.9153099999999996  0.39753999999999995  1.0000
  H   H279      1.0  0.67627  0.87999  0.33839  1.0000
  H   H280      1.0  0.7404200000000001  0.7633  0.29266  1.0000
  H   H281      1.0  0.8312199999999998  0.97378  0.47369999999999995  1.0000
  H   H282      1.0  0.84042  0.06278999999999998  0.53048  1.0000
  H   H283      1.0  0.70025  0.04287000000000001  0.3962  1.0000
  H   H284      1.0  0.69016  0.9538299999999998  0.34076999999999996  1.0000
  H   H285      1.0  0.60658  0.8158699999999995  0.25036  1.0000
  H   H286      1.0  0.52977  0.74691  0.19688  1.0000
  H   H287      1.0  0.61607  0.66198  0.24885  1.0000
  H   H288      1.0  0.69337  0.7298399999999996  0.30229  1.0000
  H   H289      1.0  0.6623099999999998  0.25327999999999995  0.4956099999999999  1.0000
  H   H290      1.0  0.33463  0.018420000000000023  0.66992  1.0000
  H   H291      1.0  0.68538  0.2719  0.44543  1.0000
  H   H292      1.0  0.3846  0.03981000000000001  0.87739  1.0000
  H   H293      1.0  0.41892  0.10569000000000003  0.97532  1.0000
  H   H294      1.0  0.4890499999999999  0.2072799999999998  0.9618099999999998  1.0000
  H   H295      1.0  0.45603000000000005  0.14158999999999994  0.8653799999999999  1.0000
  H   H296      1.0  0.49754000000000004  0.16052  0.06884  1.0000
  H   H297      1.0  0.51746  0.31382  0.17859999999999998  1.0000
  H   H298      1.0  0.45214  0.2528799999999999  0.007139999999999998  1.0000
  H   H299      1.0  0.56814  0.17848  0.14688  1.0000
  H   H300      1.0  0.60158  0.16628999999999997  0.22355999999999998  1.0000
  H   H301      1.0  0.53777  0.27149  0.29449  1.0000
  H   H302      1.0  0.50269  0.28257  0.2171  1.0000
  H   H303      1.0  0.54434  0.38155  0.18573  1.0000
  H   H304      1.0  0.53504  0.4622599999999999  0.19889  1.0000
  H   H305      1.0  0.40516  0.38721000000000005  0.03532  1.0000
  H   H306      1.0  0.4126  0.30564  0.021119999999999996  1.0000
  H   H307      1.0  0.50927  0.045489999999999975  0.65318  1.0000
  H   H308      1.0  0.57484  0.11487000000000001  0.68428  1.0000
  H   H309      1.0  0.49249999999999994  0.21480999999999992  0.7226599999999999  1.0000
  H   H310      1.0  0.4273  0.14579  0.6908  1.0000
  H   H311      1.0  0.59258  0.17976  0.66625  1.0000
  H   H312      1.0  0.6881599999999999  0.3283199999999999  0.8041899999999998  1.0000
  H   H313      1.0  0.57328  0.25510999999999995  0.7995199999999999  1.0000
  H   H314      1.0  0.66247  0.17558999999999994  0.66955  1.0000
  H   H315      1.0  0.7077  0.17403999999999994  0.62702  1.0000
  H   H316      1.0  0.72886  0.32964  0.69286  1.0000
  H   H317      1.0  0.68425  0.33162999999999987  0.73626  1.0000
  H   H318      1.0  0.66927  0.3954599999999999  0.85136  1.0000
  H   H319      1.0  0.68574  0.46725  0.93862  1.0000
  H   H320      1.0  0.64095  0.36964999999999987  0.9723  1.0000
  H   H321      1.0  0.6231200000000002  0.29718  0.88502  1.0000
  H   H322      1.0  0.35143  0.20488  0.93809  1.0000
  H   H323      1.0  0.3064299999999999  0.13772999999999996  0.93222  1.0000
  H   H324      1.0  0.2594799999999999  0.03843999999999992  0.7633199999999998  1.0000
  H   H325      1.0  0.3064299999999999  0.10440999999999993  0.7706399999999999  1.0000
  H   H326      1.0  0.23264999999999994  0.08155999999999995  0.89769  1.0000
  H   H327      1.0  0.20799999999999993  0.92638  0.8383099999999999  1.0000
  H   H328      1.0  0.27942  0.9908599999999999  0.79276  1.0000
  H   H329      1.0  0.2501699999999999  0.08143999999999992  0.9737399999999998  1.0000
  H   H330      1.0  0.21774  0.09049999999999997  0.03035  1.0000
  H   H331      1.0  0.10324999999999987  0.9499699999999996  0.8962499999999998  1.0000
  H   H332      1.0  0.13701  0.94002  0.84093  1.0000
  H   H333      1.0  0.18404000000000006  0.85697  0.75038  1.0000
  H   H334      1.0  0.19874999999999995  0.7801599999999997  0.6964099999999999  1.0000
  H   H335      1.0  0.3363999999999999  0.8662299999999999  0.7487199999999999  1.0000
  H   H336      1.0  0.32264  0.9435999999999998  0.8024899999999998  1.0000
  H   H337      1.0  0.8311199999999999  0.23757999999999999  0.49432999999999994  1.0000
  H   H338      1.0  0.33411999999999986  0.6513899999999999  0.6707099999999998  1.0000
  H   H339      1.0  0.7633  0.17466  0.44646  1.0000
  H   H340      1.0  0.49221  0.83705  0.87716  1.0000
  H   H341      1.0  0.55626  0.86897  0.97493  1.0000
  H   H342      1.0  0.47246  0.75415  0.96166  1.0000
  H   H343      1.0  0.4086399999999999  0.72351  0.8653899999999998  1.0000
  H   H344      1.0  0.57126  0.90788  0.06843  1.0000
  H   H345      1.0  0.66113  0.86454  0.17831  1.0000
  H   H346      1.0  0.55475  0.7537599999999998  0.00689  1.0000
  H   H347      1.0  0.57845  0.96787  0.14647  1.0000
  H   H348      1.0  0.62147  0.05682  0.22329999999999997  1.0000
  H   H349      1.0  0.75657  0.023080000000000003  0.29447  1.0000
  H   H350      1.0  0.71446  0.93455  0.217  1.0000
  H   H351      1.0  0.64115  0.8039399999999999  0.18553  1.0000
  H   H352      1.0  0.66358  0.7363199999999999  0.19863999999999996  1.0000
  H   H353      1.0  0.6295  0.64758  0.03505  1.0000
  H   H354      1.0  0.60781  0.71491  0.02081  1.0000
  H   H355      1.0  0.14314  0.6072599999999998  0.65343  1.0000
  H   H356      1.0  0.10902999999999995  0.569  0.68472  1.0000
  H   H357      1.0  0.2296  0.50709  0.72213  1.0000
  H   H358      1.0  0.2626  0.54427  0.69012  1.0000
  H   H359      1.0  0.07327999999999993  0.4859999999999998  0.6665599999999999  1.0000
  H   H360      1.0  0.11615  0.4755399999999999  0.80459  1.0000
  H   H361      1.0  0.22614999999999993  0.54412  0.7996599999999999  1.0000
  H   H362      1.0  0.00663000000000003  0.49312  0.6693  1.0000
  H   H363      1.0  0.91868  0.45185  0.62619  1.0000
  H   H364      1.0  0.9630500000000001  0.36239  0.6922  1.0000
  H   H365      1.0  0.05114000000000007  0.4038099999999999  0.7361  1.0000
  H   H366      1.0  0.18263  0.45573999999999987  0.85187  1.0000
  H   H367      1.0  0.25353  0.47183999999999987  0.9393999999999998  1.0000
  H   H368      1.0  0.33148  0.60327  0.97286  1.0000
  H   H369      1.0  0.26212  0.58779  0.88521  1.0000
  H   H370      1.0  0.58615  0.73358  0.93796  1.0000
  H   H371      1.0  0.6253599999999999  0.7948199999999999  0.9321799999999999  1.0000
  H   H372      1.0  0.503  0.72508  0.76323  1.0000
  H   H373      1.0  0.46365  0.66618  0.77046  1.0000
  H   H374      1.0  0.6646000000000001  0.81605  0.8969599999999999  1.0000
  H   H375      1.0  0.62994  0.9124199999999998  0.83841  1.0000
  H   H376      1.0  0.51281  0.80226  0.79258  1.0000
  H   H377      1.0  0.72322  0.8919199999999999  0.9729399999999999  1.0000
  H   H378      1.0  0.81251  0.93905  0.029709999999999997  1.0000
  H   H379      1.0  0.79319  0.94622  0.89629  1.0000
  H   H380      1.0  0.70391  0.9012699999999998  0.8408099999999998  1.0000
  H   H381      1.0  0.56562  0.89385  0.75022  1.0000
  H   H382      1.0  0.49632999999999994  0.91596  0.6958899999999999  1.0000
  H   H383      1.0  0.4118399999999999  0.8824099999999999  0.7489699999999998  1.0000
  H   H384      1.0  0.4798200000000001  0.8593099999999998  0.8028699999999999  1.0000
  C   C1        1.0  0.95187  0.60528  0.19503  1.0000
  C   C2        1.0  0.9137299999999999  0.5823299999999998  0.13522  1.0000
  C   C3        1.0  0.92362  0.59186  0.10346  1.0000
  C   C4        1.0  0.88672  0.5724399999999997  0.0486  1.0000
  C   C5        1.0  0.8388  0.54388  0.0246  1.0000
  C   C6        1.0  0.82938  0.53366  0.05633  1.0000
  C   C7        1.0  0.86647  0.5522499999999998  0.11076  1.0000
  C   C8        1.0  0.7978  0.52675  0.96813  1.0000
  C   C9        1.0  0.8034999999999999  0.5058999999999999  0.9239499999999999  1.0000
  C   C10       1.0  0.76338  0.48969  0.87078  1.0000
  C   C11       1.0  0.7173799999999999  0.4950199999999999  0.8623699999999999  1.0000
  C   C12       1.0  0.7109199999999999  0.51626  0.9059599999999998  1.0000
  C   C13       1.0  0.75147  0.53181  0.95851  1.0000
  C   C14       1.0  0.76921  0.46775999999999995  0.8241799999999999  1.0000
  C   C15       1.0  0.8018  0.43931  0.82142  1.0000
  C   C16       1.0  0.80845  0.42022  0.77845  1.0000
  C   C17       1.0  0.78222  0.42867  0.73653  1.0000
  C   C18       1.0  0.74866  0.45588  0.73806  1.0000
  C   C19       1.0  0.7423899999999999  0.47509999999999997  0.7812799999999999  1.0000
  C   C20       1.0  0.79059  0.40956000000000004  0.69207  1.0000
  C   C21       1.0  0.66249  0.5213999999999999  0.8972099999999998  1.0000
  C   C22       1.0  0.6177399999999998  0.48700999999999994  0.8471199999999999  1.0000
  C   C23       1.0  0.57228  0.49172  0.83947  1.0000
  C   C24       1.0  0.5705  0.53086  0.88189  1.0000
  C   C25       1.0  0.61485  0.5648199999999998  0.9321799999999999  1.0000
  C   C26       1.0  0.6603  0.5603  0.9398099999999998  1.0000
  C   C27       1.0  0.08451  0.7719800000000001  0.37304  1.0000
  C   C28       1.0  0.94903  0.57316  0.34373  1.0000
  C   C29       1.0  0.9089  0.53552  0.32938  1.0000
  C   C30       1.0  0.91749  0.49432  0.33229  1.0000
  C   C31       1.0  0.87868  0.45793  0.31524  1.0000
  C   C32       1.0  0.83042  0.46174  0.29422  1.0000
  C   C33       1.0  0.82231  0.50377  0.2927699999999999  1.0000
  C   C34       1.0  0.86116  0.5404199999999998  0.31055  1.0000
  C   C35       1.0  0.78757  0.42086999999999986  0.26947999999999994  1.0000
  C   C36       1.0  0.78782  0.39552  0.29368  1.0000
  C   C37       1.0  0.7457300000000002  0.3568199999999999  0.26806  1.0000
  C   C38       1.0  0.7035  0.3432299999999999  0.21711999999999998  1.0000
  C   C39       1.0  0.7027600000000002  0.36778  0.19184999999999997  1.0000
  C   C40       1.0  0.7449  0.4067799999999998  0.21895999999999996  1.0000
  C   C41       1.0  0.7463899999999999  0.33055  0.2942  1.0000
  C   C42       1.0  0.79075  0.3237699999999999  0.32597  1.0000
  C   C43       1.0  0.7918200000000002  0.29834  0.34988  1.0000
  C   C44       1.0  0.74853  0.2793599999999999  0.34373  1.0000
  C   C45       1.0  0.7041499999999999  0.28633999999999993  0.31277999999999995  1.0000
  C   C46       1.0  0.70316  0.31113  0.2881  1.0000
  C   C47       1.0  0.8821700000000001  0.38184999999999986  0.6325699999999999  1.0000
  C   C48       1.0  0.65931  0.35453  0.1383  1.0000
  C   C49       1.0  0.61076  0.33636  0.12216999999999999  1.0000
  C   C50       1.0  0.57024  0.32714  0.07334  1.0000
  C   C51       1.0  0.57696  0.33486  0.03881  1.0000
  C   C52       1.0  0.62516  0.35268  0.054279999999999995  1.0000
  C   C53       1.0  0.66578  0.3625499999999999  0.10351999999999999  1.0000
  C   C54       1.0  0.07384000000000002  0.70369  0.48629  1.0000
  C   C55       1.0  0.80198  0.637  0.13994  1.0000
  C   C56       1.0  0.8409  0.66774  0.14486  1.0000
  C   C57       1.0  0.83162  0.66913  0.1  1.0000
  C   C58       1.0  0.86919  0.69491  0.10372  1.0000
  C   C59       1.0  0.9168800000000001  0.72012  0.15247  1.0000
  C   C60       1.0  0.92526  0.72036  0.19806999999999997  1.0000
  C   C61       1.0  0.88794  0.69419  0.19418  1.0000
  C   C62       1.0  0.95885  0.74192  0.15487  1.0000
  C   C63       1.0  0.9541699999999999  0.76378  0.12603999999999999  1.0000
  C   C64       1.0  0.9955899999999999  0.78286  0.12921  1.0000
  C   C65       1.0  0.042079999999999985  0.77936  0.16118  1.0000
  C   C66       1.0  0.04715000000000001  0.7559699999999998  0.18868  1.0000
  C   C67       1.0  0.005499999999999995  0.73842  0.18573  1.0000
  C   C68       1.0  0.9898500000000001  0.8040399999999998  0.09699  1.0000
  C   C69       1.0  0.94711  0.78215  0.0433  1.0000
  C   C70       1.0  0.9418800000000003  0.7999899999999998  0.011379999999999996  1.0000
  C   C71       1.0  0.97872  0.84177  0.03293  1.0000
  C   C72       1.0  0.02119  0.86471  0.08682  1.0000
  C   C73       1.0  0.026779999999999995  0.84545  0.11775999999999999  1.0000
  C   C74       1.0  0.72426  0.39043  0.5012  1.0000
  C   C75       1.0  0.09395  0.7475799999999999  0.21914  1.0000
  C   C76       1.0  0.14056  0.78212  0.249  1.0000
  C   C77       1.0  0.18381  0.77423  0.27945  1.0000
  C   C78       1.0  0.18147  0.73133  0.28007  1.0000
  C   C79       1.0  0.13519  0.6967  0.25044  1.0000
  C   C80       1.0  0.09199  0.7047499999999998  0.22043  1.0000
  C   C81       1.0  0.08309999999999997  0.59003  0.31048  1.0000
  C   C82       1.0  0.24362  0.59036  0.19512  1.0000
  C   C83       1.0  0.22189  0.5535  0.1353  1.0000
  C   C84       1.0  0.18031  0.51206  0.10360999999999998  1.0000
  C   C85       1.0  0.16244000000000003  0.47642999999999996  0.04885  1.0000
  C   C86       1.0  0.18634  0.48094  0.024859999999999997  1.0000
  C   C87       1.0  0.22737  0.5230599999999997  0.05651  1.0000
  C   C88       1.0  0.24467  0.5591  0.11086  1.0000
  C   C89       1.0  0.17085  0.44145  0.96845  1.0000
  C   C90       1.0  0.12087999999999995  0.41808999999999996  0.9243099999999999  1.0000
  C   C91       1.0  0.10771999999999998  0.38109999999999994  0.8711199999999999  1.0000
  C   C92       1.0  0.14529  0.3674  0.86268  1.0000
  C   C93       1.0  0.19542999999999994  0.38989999999999986  0.9061999999999999  1.0000
  C   C94       1.0  0.20752999999999988  0.42686999999999986  0.9587899999999998  1.0000
  C   C95       1.0  0.05524999999999998  0.35652  0.82447  1.0000
  C   C96       1.0  0.020019999999999958  0.38234999999999986  0.8217399999999999  1.0000
  C   C97       1.0  0.9703399999999999  0.3586099999999999  0.77872  1.0000
  C   C98       1.0  0.9544200000000002  0.30821  0.73669  1.0000
  C   C99       1.0  0.9893999999999998  0.28236999999999995  0.7381599999999999  1.0000
  C   C100      1.0  0.03896999999999999  0.30626  0.78143  1.0000
  C   C101      1.0  0.9014299999999998  0.28290999999999983  0.6923499999999999  1.0000
  C   C102      1.0  0.23508999999999994  0.37612999999999996  0.8973999999999999  1.0000
  C   C103      1.0  0.22966000000000006  0.36036  0.8473  1.0000
  C   C104      1.0  0.26749999999999996  0.34806  0.83969  1.0000
  C   C105      1.0  0.31176  0.3514499999999998  0.8821499999999998  1.0000
  C   C106      1.0  0.31779  0.36787  0.93244  1.0000
  C   C107      1.0  0.27997999999999995  0.37999999999999995  0.9400499999999999  1.0000
  C   C108      1.0  0.28871  0.60173  0.37286  1.0000
  C   C109      1.0  0.3951  0.77163  0.3438  1.0000
  C   C110      1.0  0.42105  0.7947100000000001  0.3295  1.0000
  C   C111      1.0  0.41533  0.83871  0.33216  1.0000
  C   C112      1.0  0.43708  0.8578399999999998  0.315  1.0000
  C   C113      1.0  0.46435  0.8329099999999998  0.29411  1.0000
  C   C114      1.0  0.47115000000000007  0.7896  0.29306  1.0000
  C   C115      1.0  0.45007  0.77092  0.31093  1.0000
  C   C116      1.0  0.48237  0.84886  0.26924  1.0000
  C   C117      1.0  0.50635  0.8984399999999998  0.29335  1.0000
  C   C118      1.0  0.52282  0.91149  0.26775  1.0000
  C   C119      1.0  0.514  0.87396  0.21679999999999996  1.0000
  C   C120      1.0  0.48941000000000007  0.82409  0.19158999999999995  1.0000
  C   C121      1.0  0.47441999999999995  0.8122899999999997  0.21873999999999996  1.0000
  C   C122      1.0  0.5484  0.9640599999999998  0.2941  1.0000
  C   C123      1.0  0.53597  0.002620000000000019  0.3261  1.0000
  C   C124      1.0  0.55892  0.05211  0.35033  1.0000
  C   C125      1.0  0.596  0.06518  0.3442299999999999  1.0000
  C   C126      1.0  0.60932  0.027230000000000008  0.31316  1.0000
  C   C127      1.0  0.5856  0.9776299999999998  0.28821  1.0000
  C   C128      1.0  0.75022  0.25036  0.6334  1.0000
  C   C129      1.0  0.47909000000000007  0.78359  0.13797  1.0000
  C   C130      1.0  0.51139  0.7854099999999998  0.12166999999999997  1.0000
  C   C131      1.0  0.50277  0.7457199999999998  0.07269  1.0000
  C   C132      1.0  0.46131  0.70356  0.03809  1.0000
  C   C133      1.0  0.4287  0.7013899999999997  0.053739999999999996  1.0000
  C   C134      1.0  0.43768  0.7408  0.10318  1.0000
  C   C135      1.0  0.4128  0.78272  0.48596  1.0000
  C   C136      1.0  0.33805  0.50343  0.14039  1.0000
  C   C137      1.0  0.30379  0.47762  0.14503  1.0000
  C   C138      1.0  0.26803  0.43138  0.10012999999999997  1.0000
  C   C139      1.0  0.23416  0.40934  0.10384  1.0000
  C   C140      1.0  0.23525  0.43293  0.1526  1.0000
  C   C141      1.0  0.27255  0.4783999999999999  0.19815  1.0000
  C   C142      1.0  0.3061  0.50058  0.19433  1.0000
  C   C143      1.0  0.19575  0.4134599999999999  0.15508  1.0000
  C   C144      1.0  0.17176  0.3627  0.1265  1.0000
  C   C145      1.0  0.13346  0.34668  0.12956  1.0000
  C   C146      1.0  0.11872999999999999  0.38215  0.16123  1.0000
  C   C147      1.0  0.14118  0.43306999999999984  0.18872  1.0000
  C   C148      1.0  0.17992  0.4477699999999999  0.18588  1.0000
  C   C149      1.0  0.10716  0.29318  0.09745  1.0000
  C   C150      1.0  0.0965  0.26134  0.0439  1.0000
  C   C151      1.0  0.06998  0.21144999999999997  0.011889999999999998  1.0000
  C   C152      1.0  0.05449  0.1911  0.03319  1.0000
  C   C153      1.0  0.06568  0.22209  0.08695  1.0000
  C   C154      1.0  0.09089  0.27241  0.118  1.0000
  C   C155      1.0  0.77811  0.11129  0.50211  1.0000
  C   C156      1.0  0.12485000000000002  0.47197  0.21908  1.0000
  C   C157      1.0  0.10820999999999999  0.46756  0.24909999999999996  1.0000
  C   C158      1.0  0.09583999999999997  0.50623  0.27976  1.0000
  C   C159      1.0  0.09905  0.5497  0.28032  1.0000
  C   C160      1.0  0.11533  0.5542999999999998  0.2503  1.0000
  C   C161      1.0  0.12815  0.51596  0.22017  1.0000
  C   C162      1.0  0.22786  0.72123  0.30986  1.0000
  C   C163      1.0  0.34017  0.20267  0.69576  1.0000
  C   C164      1.0  0.30338  0.16432  0.63598  1.0000
  C   C165      1.0  0.26204  0.17397999999999994  0.60412  1.0000
  C   C166      1.0  0.2265499999999999  0.137  0.5492999999999999  1.0000
  C   C167      1.0  0.23108  0.08919000000000005  0.52539  1.0000
  C   C168      1.0  0.27304  0.07995999999999995  0.55722  1.0000
  C   C169      1.0  0.30898  0.11715999999999994  0.61162  1.0000
  C   C170      1.0  0.19174  0.048089999999999966  0.46892  1.0000
  C   C171      1.0  0.16840999999999995  0.05376999999999993  0.4247399999999999  1.0000
  C   C172      1.0  0.13135  0.013619999999999993  0.37156  1.0000
  C   C173      1.0  0.11754  0.96757  0.36315  1.0000
  C   C174      1.0  0.14008  0.96109  0.40671  1.0000
  C   C175      1.0  0.17709999999999998  0.0016999999999999604  0.4592899999999999  1.0000
  C   C176      1.0  0.10671000000000001  0.01941000000000002  0.32494  1.0000
  C   C177      1.0  0.13246000000000002  0.052160000000000026  0.32223  1.0000
  C   C178      1.0  0.10864  0.05873  0.2792  1.0000
  C   C179      1.0  0.058240000000000014  0.0323  0.23722  1.0000
  C   C180      1.0  0.03246999999999999  0.9986499999999999  0.23875  1.0000
  C   C181      1.0  0.05641  0.9923999999999998  0.28197  1.0000
  C   C182      1.0  0.03278999999999999  0.04052999999999998  0.19267999999999996  1.0000
  C   C183      1.0  0.12624999999999997  0.91255  0.39786999999999995  1.0000
  C   C184      1.0  0.11053  0.8679399999999999  0.34773  1.0000
  C   C185      1.0  0.09789999999999997  0.8223899999999997  0.33989  1.0000
  C   C186      1.0  0.10089000000000002  0.82042  0.38213  1.0000
  C   C187      1.0  0.11747999999999995  0.8646299999999999  0.4325299999999999  1.0000
  C   C188      1.0  0.12993  0.91018  0.44039999999999996  1.0000
  C   C189      1.0  0.35146999999999995  0.33570999999999995  0.8736199999999998  1.0000
  C   C190      1.0  0.5220099999999999  0.19852999999999996  0.8435499999999999  1.0000
  C   C191      1.0  0.54494  0.15835999999999992  0.82931  1.0000
  C   C192      1.0  0.5891699999999999  0.16703999999999997  0.8323899999999999  1.0000
  C   C193      1.0  0.6084800000000001  0.12833000000000003  0.81569  1.0000
  C   C194      1.0  0.5835  0.08009  0.79482  1.0000
  C   C195      1.0  0.5399  0.07194  0.79325  1.0000
  C   C196      1.0  0.52099  0.11067000000000005  0.81063  1.0000
  C   C197      1.0  0.59948  0.037309999999999954  0.7701399999999999  1.0000
  C   C198      1.0  0.64903  0.037630000000000004  0.79424  1.0000
  C   C199      1.0  0.66192  0.9955699999999998  0.76855  1.0000
  C   C200      1.0  0.6243  0.95337  0.71761  1.0000
  C   C201      1.0  0.5745  0.95261  0.69242  1.0000
  C   C202      1.0  0.56283  0.9946800000000001  0.7196199999999998  1.0000
  C   C203      1.0  0.7143799999999999  0.9962799999999999  0.7945899999999998  1.0000
  C   C204      1.0  0.7531599999999999  0.040679999999999945  0.8264899999999998  1.0000
  C   C205      1.0  0.80252  0.041790000000000015  0.85026  1.0000
  C   C206      1.0  0.81526  0.9985  0.84389  1.0000
  C   C207      1.0  0.77707  0.9541  0.81282  1.0000
  C   C208      1.0  0.72758  0.95305  0.78829  1.0000
  C   C209      1.0  0.0004399999999999904  0.13211999999999993  0.13311  1.0000
  C   C210      1.0  0.5340399999999998  0.9092399999999999  0.6387699999999998  1.0000
  C   C211      1.0  0.53596  0.8607000000000001  0.62239  1.0000
  C   C212      1.0  0.49632999999999994  0.8202  0.57336  1.0000
  C   C213      1.0  0.45407  0.8269300000000002  0.53897  1.0000
  C   C214      1.0  0.45186  0.87515  0.55467  1.0000
  C   C215      1.0  0.49133  0.91575  0.60404  1.0000
  C   C216      1.0  0.53272  0.3231  0.98593  1.0000
  C   C217      1.0  0.25247  0.05232000000000002  0.63969  1.0000
  C   C218      1.0  0.22662999999999997  0.09107000000000001  0.6445  1.0000
  C   C219      1.0  0.1804  0.08182999999999993  0.59962  1.0000
  C   C220      1.0  0.15848  0.11938999999999994  0.60341  1.0000
  C   C221      1.0  0.18207  0.16705999999999993  0.65222  1.0000
  C   C222      1.0  0.22738000000000005  0.17533000000000007  0.69779  1.0000
  C   C223      1.0  0.2495199999999999  0.13804999999999995  0.6938599999999999  1.0000
  C   C224      1.0  0.16286  0.20909000000000005  0.65483  1.0000
  C   C225      1.0  0.11214999999999994  0.20437999999999995  0.62611  1.0000
  C   C226      1.0  0.09636000000000004  0.24574000000000001  0.62924  1.0000
  C   C227      1.0  0.13196999999999995  0.29226999999999975  0.6611899999999998  1.0000
  C   C228      1.0  0.18286000000000005  0.29746  0.68879  1.0000
  C   C229      1.0  0.19735  0.25583999999999996  0.6858199999999999  1.0000
  C   C230      1.0  0.04293000000000002  0.23992  0.59706  1.0000
  C   C231      1.0  0.010979999999999924  0.19725999999999994  0.5433099999999998  1.0000
  C   C232      1.0  0.96122  0.19202000000000005  0.51133  1.0000
  C   C233      1.0  0.94112  0.22878999999999994  0.53286  1.0000
  C   C234      1.0  0.97222  0.27111  0.58687  1.0000
  C   C235      1.0  0.022419999999999943  0.27673999999999993  0.6178899999999999  1.0000
  C   C236      1.0  0.86143  0.9732099999999998  0.0016599999999999996  1.0000
  C   C237      1.0  0.22184999999999994  0.34430999999999995  0.7192599999999999  1.0000
  C   C238      1.0  0.21738999999999994  0.39095999999999986  0.7490299999999998  1.0000
  C   C239      1.0  0.25589000000000006  0.43419  0.77921  1.0000
  C   C240      1.0  0.29930999999999996  0.4317599999999998  0.7796599999999999  1.0000
  C   C241      1.0  0.30415999999999993  0.38543999999999995  0.7503699999999999  1.0000
  C   C242      1.0  0.26591999999999993  0.3422899999999999  0.7205499999999999  1.0000
  C   C243      1.0  0.47092  0.3318399999999999  0.81041  1.0000
  C   C244      1.0  0.35502999999999996  0.49260999999999994  0.6943799999999999  1.0000
  C   C245      1.0  0.33211  0.4711699999999998  0.63463  1.0000
  C   C246      1.0  0.34169  0.42979999999999996  0.60272  1.0000
  C   C247      1.0  0.32239  0.41219  0.548  1.0000
  C   C248      1.0  0.29399  0.43624  0.5243  1.0000
  C   C249      1.0  0.2837299999999999  0.47711999999999993  0.5561599999999999  1.0000
  C   C250      1.0  0.3020999999999999  0.4940299999999999  0.6104299999999999  1.0000
  C   C251      1.0  0.27698  0.42101  0.46793999999999997  1.0000
  C   C252      1.0  0.25626  0.3710999999999999  0.42374999999999996  1.0000
  C   C253      1.0  0.24012  0.35806  0.37061  1.0000
  C   C254      1.0  0.24547  0.39573  0.36224  1.0000
  C   C255      1.0  0.2664  0.4458499999999999  0.40583  1.0000
  C   C256      1.0  0.28188  0.45782  0.45835  1.0000
  C   C257      1.0  0.21808000000000002  0.30553  0.32409  1.0000
  C   C258      1.0  0.18969  0.27022  0.32163  1.0000
  C   C259      1.0  0.17034  0.22049999999999997  0.27874  1.0000
  C   C260      1.0  0.17857999999999993  0.20458  0.23663999999999993  1.0000
  C   C261      1.0  0.20584  0.23960999999999993  0.23793999999999998  1.0000
  C   C262      1.0  0.22521  0.28924  0.28102  1.0000
  C   C263      1.0  0.15939999999999996  0.15154  0.19237999999999994  1.0000
  C   C264      1.0  0.27138  0.48567  0.39714  1.0000
  C   C265      1.0  0.237  0.48018000000000005  0.34702  1.0000
  C   C266      1.0  0.24181  0.51803  0.33937  1.0000
  C   C267      1.0  0.28109  0.5622899999999997  0.38171  1.0000
  C   C268      1.0  0.31491  0.56843  0.43208  1.0000
  C   C269      1.0  0.31024  0.53067  0.4398  1.0000
  C   C270      1.0  0.52216  0.5380699999999999  0.8730899999999999  1.0000
  C   C271      1.0  0.3210399999999999  0.6444699999999999  0.8433599999999999  1.0000
  C   C272      1.0  0.28417  0.67065  0.82905  1.0000
  C   C273      1.0  0.24287999999999996  0.66507  0.8318899999999999  1.0000
  C   C274      1.0  0.2069299999999999  0.68711  0.8151099999999998  1.0000
  C   C275      1.0  0.21121999999999994  0.7144799999999998  0.79436  1.0000
  C   C276      1.0  0.2533599999999999  0.7209999999999998  0.7929699999999998  1.0000
  C   C277      1.0  0.2896099999999999  0.6996199999999999  0.8104399999999999  1.0000
  C   C278      1.0  0.17057999999999995  0.73265  0.76966  1.0000
  C   C279      1.0  0.14511  0.7564499999999997  0.7937  1.0000
  C   C280      1.0  0.10654  0.77284  0.76802  1.0000
  C   C281      1.0  0.09317999999999999  0.7641199999999998  0.71714  1.0000
  C   C282      1.0  0.11777  0.73964  0.69199  1.0000
  C   C283      1.0  0.15665999999999994  0.72476  0.71917  1.0000
  C   C284      1.0  0.08016999999999999  0.7982499999999998  0.7940399999999999  1.0000
  C   C285      1.0  0.07334999999999997  0.7857399999999998  0.8259  1.0000
  C   C286      1.0  0.047940000000000024  0.8085099999999997  0.8498  1.0000
  C   C287      1.0  0.028900000000000023  0.84546  0.84351  1.0000
  C   C288      1.0  0.03586999999999998  0.85876  0.8123899999999998  1.0000
  C   C289      1.0  0.060709999999999924  0.8352199999999997  0.7877799999999999  1.0000
  C   C290      1.0  0.13244  0.00040999999999999885  0.13319  1.0000
  C   C291      1.0  0.10451000000000006  0.72935  0.63838  1.0000
  C   C292      1.0  0.08621999999999999  0.76157  0.6221  1.0000
  C   C293      1.0  0.07700999999999998  0.7531899999999998  0.57324  1.0000
  C   C294      1.0  0.08509000000000004  0.71221  0.53897  1.0000
  C   C295      1.0  0.10284999999999993  0.67958  0.5544999999999999  1.0000
  C   C296      1.0  0.11254000000000002  0.68816  0.60367  1.0000
  C   C297      1.0  0.4525199999999999  0.66235  0.9850899999999999  1.0000
  C   C298      1.0  0.38738999999999996  0.5869699999999999  0.6404399999999999  1.0000
  C   C299      1.0  0.41816  0.55318  0.64525  1.0000
  C   C300      1.0  0.41939  0.51761  0.60031  1.0000
  C   C301      1.0  0.44503  0.4838  0.60393  1.0000
  C   C302      1.0  0.47019999999999995  0.48486000000000007  0.65264  1.0000
  C   C303      1.0  0.47054  0.52204  0.69829  1.0000
  C   C304      1.0  0.44460999999999995  0.5555099999999995  0.6945499999999998  1.0000
  C   C305      1.0  0.49189999999999995  0.44534999999999986  0.6549499999999999  1.0000
  C   C306      1.0  0.51375  0.42143  0.62609  1.0000
  C   C307      1.0  0.5327  0.3832  0.62911  1.0000
  C   C308      1.0  0.5291  0.3684299999999999  0.6609199999999998  1.0000
  C   C309      1.0  0.50592  0.39075  0.68864  1.0000
  C   C310      1.0  0.48845  0.42944999999999994  0.6858199999999999  1.0000
  C   C311      1.0  0.55401  0.35694  0.59708  1.0000
  C   C312      1.0  0.53252  0.34602  0.54346  1.0000
  C   C313      1.0  0.55041  0.31923  0.5117  1.0000
  C   C314      1.0  0.59185  0.30373  0.53334  1.0000
  C   C315      1.0  0.6143899999999999  0.31520999999999993  0.5872099999999999  1.0000
  C   C316      1.0  0.59518  0.34079  0.61802  1.0000
  C   C317      1.0  0.14066  0.02836  0.0019  1.0000
  C   C318      1.0  0.4976400000000001  0.37439  0.71922  1.0000
  C   C319      1.0  0.53196  0.3575299999999999  0.74892  1.0000
  C   C320      1.0  0.52409  0.3449999999999999  0.7796299999999999  1.0000
  C   C321      1.0  0.48147  0.34839  0.78074  1.0000
  C   C322      1.0  0.44705999999999996  0.36506999999999995  0.7511899999999999  1.0000
  C   C323      1.0  0.45503999999999994  0.37786999999999993  0.7208499999999999  1.0000
  C   C324      1.0  0.33916  0.47802  0.80856  1.0000
  C   C325      1.0  0.5074  0.64498  0.30561  1.0000
  C   C326      1.0  0.52882  0.6678899999999998  0.36536  1.0000
  C   C327      1.0  0.57019  0.6583099999999998  0.3972799999999999  1.0000
  C   C328      1.0  0.5878  0.67761  0.452  1.0000
  C   C329      1.0  0.56374  0.706  0.47568999999999995  1.0000
  C   C330      1.0  0.52286  0.7162599999999999  0.44381  1.0000
  C   C331      1.0  0.50596  0.69788  0.38955  1.0000
  C   C332      1.0  0.57898  0.72301  0.53205  1.0000
  C   C333      1.0  0.6288899999999998  0.7437199999999998  0.5762399999999999  1.0000
  C   C334      1.0  0.64193  0.75988  0.62938  1.0000
  C   C335      1.0  0.6042599999999999  0.75453  0.6377499999999999  1.0000
  C   C336      1.0  0.55414  0.73359  0.59416  1.0000
  C   C337      1.0  0.54217  0.7181099999999998  0.54164  1.0000
  C   C338      1.0  0.6944599999999999  0.7819199999999998  0.6758999999999997  1.0000
  C   C339      1.0  0.7297599999999999  0.8103099999999999  0.6783599999999999  1.0000
  C   C340      1.0  0.77948  0.82967  0.72125  1.0000
  C   C341      1.0  0.79542  0.82143  0.76335  1.0000
  C   C342      1.0  0.76039  0.79417  0.76207  1.0000
  C   C343      1.0  0.71076  0.7747999999999996  0.7189899999999998  1.0000
  C   C344      1.0  0.8484599999999999  0.8405999999999999  0.8076099999999999  1.0000
  C   C345      1.0  0.51433  0.72862  0.60285  1.0000
  C   C346      1.0  0.51982  0.76299  0.65297  1.0000
  C   C347      1.0  0.48196999999999995  0.75819  0.66062  1.0000
  C   C348      1.0  0.43772000000000005  0.7188999999999998  0.61828  1.0000
  C   C349      1.0  0.43156  0.6850899999999998  0.56791  1.0000
  C   C350      1.0  0.46931999999999996  0.68976  0.56019  1.0000
  C   C351      1.0  0.46192  0.47786  0.12691  1.0000
  C   C352      1.0  0.35553  0.67908  0.1567  1.0000
  C   C353      1.0  0.3293  0.71589  0.17097  1.0000
  C   C354      1.0  0.33487  0.7571799999999995  0.16812999999999997  1.0000
  C   C355      1.0  0.31284  0.79311  0.1849  1.0000
  C   C356      1.0  0.28547  0.78881  0.20565  1.0000
  C   C357      1.0  0.27897  0.74666  0.20705  1.0000
  C   C358      1.0  0.30035  0.71042  0.18959  1.0000
  C   C359      1.0  0.26733  0.8294399999999997  0.23036  1.0000
  C   C360      1.0  0.24353  0.85491  0.20631999999999998  1.0000
  C   C361      1.0  0.22714  0.89348  0.23198  1.0000
  C   C362      1.0  0.23587  0.90684  0.28286  1.0000
  C   C363      1.0  0.26035  0.88225  0.30802  1.0000
  C   C364      1.0  0.27524  0.84335  0.28085  1.0000
  C   C365      1.0  0.20174  0.9198399999999998  0.20596  1.0000
  C   C366      1.0  0.21424999999999997  0.92666  0.17408999999999994  1.0000
  C   C367      1.0  0.19147  0.95206  0.15018  1.0000
  C   C368      1.0  0.15452  0.9711  0.15646  1.0000
  C   C369      1.0  0.14122  0.96414  0.18759  1.0000
  C   C370      1.0  0.16477  0.9392999999999998  0.2122  1.0000
  C   C371      1.0  0.9995799999999999  0.86754  0.86675  1.0000
  C   C372      1.0  0.27064  0.8955  0.36161999999999994  1.0000
  C   C373      1.0  0.23842999999999998  0.91378  0.37789  1.0000
  C   C374      1.0  0.24679999999999996  0.9229999999999998  0.42673999999999995  1.0000
  C   C375      1.0  0.28779  0.91493  0.46104  1.0000
  C   C376      1.0  0.32042  0.8971699999999999  0.44552  1.0000
  C   C377      1.0  0.31184  0.8874699999999999  0.39634999999999987  1.0000
  C   C378      1.0  0.33767  0.54756  0.01495  1.0000
  C   C379      1.0  0.41302  0.61258  0.3595499999999999  1.0000
  C   C380      1.0  0.44681  0.58181  0.3547199999999999  1.0000
  C   C381      1.0  0.48239  0.58059  0.3996799999999999  1.0000
  C   C382      1.0  0.51622  0.55497  0.3960599999999999  1.0000
  C   C383      1.0  0.51515  0.52981  0.34735  1.0000
  C   C384      1.0  0.47795999999999994  0.52946  0.30168999999999996  1.0000
  C   C385      1.0  0.44447999999999993  0.55538  0.30544  1.0000
  C   C386      1.0  0.55466  0.50811  0.34504  1.0000
  C   C387      1.0  0.57857  0.48625  0.37391  1.0000
  C   C388      1.0  0.61681  0.46729999999999994  0.37088999999999994  1.0000
  C   C389      1.0  0.63157  0.4709  0.3390699999999999  1.0000
  C   C390      1.0  0.60925  0.49409  0.31136  1.0000
  C   C391      1.0  0.57056  0.51156  0.31418  1.0000
  C   C392      1.0  0.64306  0.4459799999999999  0.40292  1.0000
  C   C393      1.0  0.65398  0.4674499999999999  0.45652999999999994  1.0000
  C   C394      1.0  0.68076  0.44955  0.48829  1.0000
  C   C395      1.0  0.69626  0.4081099999999999  0.46663999999999994  1.0000
  C   C396      1.0  0.6847799999999999  0.3855799999999999  0.4127799999999999  1.0000
  C   C397      1.0  0.6592  0.40481  0.38197  1.0000
  C   C398      1.0  0.9716100000000001  0.8593300000000001  0.99806  1.0000
  C   C399      1.0  0.6256  0.50237  0.28078  1.0000
  C   C400      1.0  0.64246  0.46805  0.25109  1.0000
  C   C401      1.0  0.655  0.47591  0.22037  1.0000
  C   C402      1.0  0.6516  0.51853  0.21925  1.0000
  C   C403      1.0  0.63493  0.55294  0.24878999999999998  1.0000
  C   C404      1.0  0.62212  0.54497  0.27914  1.0000
  C   C405      1.0  0.52202  0.66088  0.19147  1.0000
  C   C406      1.0  0.79735  0.65983  0.30423  1.0000
  C   C407      1.0  0.8356899999999999  0.69663  0.36402999999999996  1.0000
  C   C408      1.0  0.82603  0.73795  0.39587999999999995  1.0000
  C   C409      1.0  0.863  0.77344  0.4507  1.0000
  C   C410      1.0  0.91082  0.76892  0.47462  1.0000
  C   C411      1.0  0.92005  0.72697  0.44279  1.0000
  C   C412      1.0  0.88286  0.6910299999999998  0.38838999999999996  1.0000
  C   C413      1.0  0.9518999999999999  0.80826  0.53109  1.0000
  C   C414      1.0  0.94623  0.83159  0.57527  1.0000
  C   C415      1.0  0.9863900000000001  0.86865  0.62845  1.0000
  C   C416      1.0  0.03243  0.88246  0.63687  1.0000
  C   C417      1.0  0.038920000000000045  0.85992  0.59331  1.0000
  C   C418      1.0  0.9983100000000001  0.8229100000000001  0.54073  1.0000
  C   C419      1.0  0.9806000000000001  0.8933  0.67506  1.0000
  C   C420      1.0  0.94785  0.86755  0.6777799999999999  1.0000
  C   C421      1.0  0.9412700000000003  0.8913799999999998  0.7207999999999998  1.0000
  C   C422      1.0  0.96769  0.94179  0.76276  1.0000
  C   C423      1.0  0.0013499999999999881  0.9675499999999999  0.76124  1.0000
  C   C424      1.0  0.007599999999999949  0.9436  0.7180299999999998  1.0000
  C   C425      1.0  0.95947  0.96723  0.8072899999999998  1.0000
  C   C426      1.0  0.08744  0.87376  0.60214  1.0000
  C   C427      1.0  0.13206999999999994  0.88948  0.6522799999999999  1.0000
  C   C428      1.0  0.17761  0.9021099999999997  0.66011  1.0000
  C   C429      1.0  0.17956999999999998  0.8991299999999999  0.6178899999999999  1.0000
  C   C430      1.0  0.13536  0.8825499999999997  0.56748  1.0000
  C   C431      1.0  0.08981  0.8700899999999998  0.55961  1.0000
  C   C432      1.0  0.66429  0.64853  0.12637  1.0000
  C   C433      1.0  0.80147  0.478  0.15644  1.0000
  C   C434      1.0  0.8416399999999999  0.45506  0.17069  1.0000
  C   C435      1.0  0.83295  0.41082999999999986  0.1676  1.0000
  C   C436      1.0  0.87166  0.39152  0.18431  1.0000
  C   C437      1.0  0.9199  0.41650999999999994  0.20518  1.0000
  C   C438      1.0  0.92805  0.4600999999999999  0.20674  1.0000
  C   C439      1.0  0.88932  0.47902  0.18936  1.0000
  C   C440      1.0  0.9626900000000003  0.4005199999999999  0.22986  1.0000
  C   C441      1.0  0.96237  0.35097  0.20575  1.0000
  C   C442      1.0  0.004430000000000007  0.33808  0.23145  1.0000
  C   C443      1.0  0.046629999999999984  0.37569999999999987  0.28239  1.0000
  C   C444      1.0  0.04740000000000002  0.4254999999999999  0.30758  1.0000
  C   C445      1.0  0.005319999999999965  0.43717000000000006  0.28037  1.0000
  C   C446      1.0  0.0037300000000000124  0.28563  0.20541  1.0000
  C   C447      1.0  0.95933  0.24685  0.17351999999999995  1.0000
  C   C448      1.0  0.95821  0.19748  0.14974  1.0000
  C   C449      1.0  0.0014999999999999924  0.18474  0.1561  1.0000
  C   C450      1.0  0.04589999999999999  0.22293  0.18717  1.0000
  C   C451      1.0  0.046949999999999985  0.27242  0.21170999999999998  1.0000
  C   C452      1.0  0.8678799999999999  0.9995599999999999  0.8668699999999998  1.0000
  C   C453      1.0  0.09076  0.46596  0.36123  1.0000
  C   C454      1.0  0.13929999999999995  0.4640499999999999  0.3775999999999999  1.0000
  C   C455      1.0  0.17981  0.50368  0.42664  1.0000
  C   C456      1.0  0.17306  0.54593  0.46102  1.0000
  C   C457      1.0  0.12483999999999996  0.54813  0.44533  1.0000
  C   C458      1.0  0.08425999999999997  0.50866  0.39596  1.0000
  C   C459      1.0  0.67689  0.46729  0.014069999999999996  1.0000
  C   C460      1.0  0.94769  0.74753  0.36031  1.0000
  C   C461      1.0  0.90895  0.7734  0.35551  1.0000
  C   C462      1.0  0.9181899999999998  0.8196099999999997  0.40038999999999997  1.0000
  C   C463      1.0  0.88064  0.8415399999999998  0.39661  1.0000
  C   C464      1.0  0.83297  0.81795  0.3477799999999999  1.0000
  C   C465      1.0  0.82469  0.7726499999999998  0.30222  1.0000
  C   C466      1.0  0.8619599999999998  0.7504999999999997  0.30613999999999997  1.0000
  C   C467      1.0  0.7909400000000001  0.83716  0.34518  1.0000
  C   C468      1.0  0.7956499999999999  0.8878599999999995  0.37389  1.0000
  C   C469      1.0  0.75429  0.90366  0.37076  1.0000
  C   C470      1.0  0.70776  0.8680399999999998  0.33882  1.0000
  C   C471      1.0  0.70258  0.8171599999999999  0.31120999999999993  1.0000
  C   C472      1.0  0.74419  0.80266  0.31419  1.0000
  C   C473      1.0  0.76011  0.95708  0.40295  1.0000
  C   C474      1.0  0.80278  0.9890199999999999  0.4567  1.0000
  C   C475      1.0  0.8080099999999999  0.03875999999999994  0.48870999999999987  1.0000
  C   C476      1.0  0.77124  0.05887  0.46721  1.0000
  C   C477      1.0  0.72892  0.027790000000000002  0.41318  1.0000
  C   C478      1.0  0.7233  0.9776  0.38213  1.0000
  C   C479      1.0  0.026760000000000072  0.13857000000000003  0.99833  1.0000
  C   C480      1.0  0.6557299999999999  0.7781699999999998  0.28075999999999995  1.0000
  C   C481      1.0  0.6090900000000001  0.78265  0.251  1.0000
  C   C482      1.0  0.56585  0.74417  0.22083  1.0000
  C   C483      1.0  0.56827  0.7007399999999999  0.22037999999999994  1.0000
  C   C484      1.0  0.6145800000000001  0.6958699999999998  0.24966  1.0000
  C   C485      1.0  0.6577300000000001  0.7340999999999999  0.27946  1.0000
  C   C486      1.0  0.66814  0.52907  0.18955999999999998  1.0000
  C   C487      1.0  0.39471999999999996  0.04812999999999992  0.8049799999999999  1.0000
  C   C488      1.0  0.4176799999999999  0.08625999999999986  0.8647899999999997  1.0000
  C   C489      1.0  0.40814  0.07637999999999999  0.89654  1.0000
  C   C490      1.0  0.4275599999999999  0.1132699999999998  0.9513899999999997  1.0000
  C   C491      1.0  0.45613000000000004  0.16118999999999997  0.9754  1.0000
  C   C492      1.0  0.46634999999999993  0.17061999999999994  0.9436699999999999  1.0000
  C   C493      1.0  0.44775  0.13353  0.88924  1.0000
  C   C494      1.0  0.47324  0.2022  0.03187  1.0000
  C   C495      1.0  0.4941  0.19649999999999995  0.07605  1.0000
  C   C496      1.0  0.5103  0.23660999999999993  0.12922  1.0000
  C   C497      1.0  0.50498  0.28261  0.13763  1.0000
  C   C498      1.0  0.48375  0.28908  0.09403  1.0000
  C   C499      1.0  0.4682  0.24852999999999997  0.041479999999999996  1.0000
  C   C500      1.0  0.53224  0.23078000000000004  0.17583  1.0000
  C   C501      1.0  0.56069  0.19819  0.17860999999999994  1.0000
  C   C502      1.0  0.57978  0.19155  0.22159  1.0000
  C   C503      1.0  0.57135  0.21779000000000004  0.26351  1.0000
  C   C504      1.0  0.54413  0.25134  0.26195  1.0000
  C   C505      1.0  0.5249  0.2576  0.21871999999999997  1.0000
  C   C506      1.0  0.5905  0.20945  0.30802  1.0000
  C   C507      1.0  0.47861  0.33751  0.10277999999999998  1.0000
  C   C508      1.0  0.51299  0.38226  0.15288  1.0000
  C   C509      1.0  0.50828  0.42773  0.16052  1.0000
  C   C510      1.0  0.46913  0.4295199999999999  0.11811999999999999  1.0000
  C   C511      1.0  0.43518  0.38517  0.06782  1.0000
  C   C512      1.0  0.4397  0.33972  0.060189999999999994  1.0000
  C   C513      1.0  0.22801000000000002  0.91549  0.62695  1.0000
  C   C514      1.0  0.42689  0.051019999999999975  0.65626  1.0000
  C   C515      1.0  0.46451  0.09115000000000004  0.67061  1.0000
  C   C516      1.0  0.5057  0.08255999999999997  0.66771  1.0000
  C   C517      1.0  0.54209  0.12136999999999995  0.68477  1.0000
  C   C518      1.0  0.5382899999999999  0.16963  0.7057899999999999  1.0000
  C   C519      1.0  0.4962599999999999  0.17773999999999995  0.70724  1.0000
  C   C520      1.0  0.45961  0.13889  0.68945  1.0000
  C   C521      1.0  0.5791499999999998  0.21246999999999988  0.7305399999999997  1.0000
  C   C522      1.0  0.60451  0.21221  0.70635  1.0000
  C   C523      1.0  0.6432  0.2543  0.73198  1.0000
  C   C524      1.0  0.6568  0.2965299999999999  0.78292  1.0000
  C   C525      1.0  0.63225  0.29727000000000003  0.80818  1.0000
  C   C526      1.0  0.59325  0.25513  0.78106  1.0000
  C   C527      1.0  0.66946  0.25364  0.70583  1.0000
  C   C528      1.0  0.6762099999999999  0.20926999999999996  0.6740799999999999  1.0000
  C   C529      1.0  0.70162  0.20819  0.65016  1.0000
  C   C530      1.0  0.7206  0.25146999999999997  0.6563  1.0000
  C   C531      1.0  0.71364  0.2958699999999999  0.68724  1.0000
  C   C532      1.0  0.6888699999999999  0.29686999999999986  0.7119399999999998  1.0000
  C   C533      1.0  0.61814  0.11785  0.36744  1.0000
  C   C534      1.0  0.6455  0.34071000000000007  0.86172  1.0000
  C   C535      1.0  0.66366  0.38926999999999995  0.87786  1.0000
  C   C536      1.0  0.6728700000000001  0.42978  0.92668  1.0000
  C   C537      1.0  0.66515  0.4230499999999999  0.9611999999999999  1.0000
  C   C538      1.0  0.64733  0.37484  0.94572  1.0000
  C   C539      1.0  0.63748  0.3342399999999999  0.8964899999999999  1.0000
  C   C540      1.0  0.2963  0.92622  0.51372  1.0000
  C   C541      1.0  0.3629999999999999  0.19800999999999994  0.8600399999999998  1.0000
  C   C542      1.0  0.33226  0.15908999999999998  0.85512  1.0000
  C   C543      1.0  0.3308699999999999  0.16836999999999988  0.8999799999999998  1.0000
  C   C544      1.0  0.3050999999999999  0.1307899999999999  0.8962699999999999  1.0000
  C   C545      1.0  0.27988  0.08309999999999998  0.84752  1.0000
  C   C546      1.0  0.27965  0.07472  0.80193  1.0000
  C   C547      1.0  0.3058099999999999  0.1120499999999999  0.8058099999999998  1.0000
  C   C548      1.0  0.2580799999999999  0.04112999999999996  0.8451099999999999  1.0000
  C   C549      1.0  0.23621999999999985  0.045809999999999865  0.8739499999999998  1.0000
  C   C550      1.0  0.21715000000000007  0.004390000000000002  0.87078  1.0000
  C   C551      1.0  0.22064999999999996  0.9579099999999996  0.83882  1.0000
  C   C552      1.0  0.24402999999999989  0.9528299999999998  0.8113199999999998  1.0000
  C   C553      1.0  0.26157999999999976  0.9944799999999997  0.8142599999999998  1.0000
  C   C554      1.0  0.19597000000000003  0.010120000000000011  0.90299  1.0000
  C   C555      1.0  0.21784999999999996  0.0528699999999999  0.9566799999999999  1.0000
  C   C556      1.0  0.20001  0.058099999999999964  0.98859  1.0000
  C   C557      1.0  0.15822999999999995  0.02125999999999992  0.9670499999999999  1.0000
  C   C558      1.0  0.13530000000000003  0.9787899999999997  0.91316  1.0000
  C   C559      1.0  0.15456000000000003  0.9731899999999999  0.8822299999999998  1.0000
  C   C560      1.0  0.60954  0.27575  0.49878  1.0000
  C   C561      1.0  0.25243  0.9060400000000001  0.78086  1.0000
  C   C562      1.0  0.21787999999999993  0.8594199999999999  0.75098  1.0000
  C   C563      1.0  0.2257699999999999  0.81617  0.7205199999999999  1.0000
  C   C564      1.0  0.2686799999999999  0.81852  0.7199199999999999  1.0000
  C   C565      1.0  0.30331  0.86481  0.74957  1.0000
  C   C566      1.0  0.29524999999999996  0.9079999999999998  0.7795799999999999  1.0000
  C   C567      1.0  0.40996  0.9169700000000001  0.68952  1.0000
  C   C568      1.0  0.40964  0.75638  0.80486  1.0000
  C   C569      1.0  0.4465  0.77812  0.86469  1.0000
  C   C570      1.0  0.48793  0.8197  0.89638  1.0000
  C   C571      1.0  0.52356  0.8375799999999999  0.9511399999999998  1.0000
  C   C572      1.0  0.51906  0.81369  0.9751399999999998  1.0000
  C   C573      1.0  0.47694000000000003  0.7726499999999998  0.9435  1.0000
  C   C574      1.0  0.44089999999999996  0.7553499999999999  0.8891399999999999  1.0000
  C   C575      1.0  0.55854  0.8291799999999998  0.03155  1.0000
  C   C576      1.0  0.5819  0.8791399999999998  0.0757  1.0000
  C   C577      1.0  0.61891  0.8923  0.12889  1.0000
  C   C578      1.0  0.63261  0.8547299999999998  0.13734  1.0000
  C   C579      1.0  0.61011  0.8045899999999999  0.09380999999999998  1.0000
  C   C580      1.0  0.57313  0.79249  0.041219999999999986  1.0000
  C   C581      1.0  0.64349  0.94478  0.17554  1.0000
  C   C582      1.0  0.61766  0.98001  0.17827  1.0000
  C   C583      1.0  0.64141  0.029679999999999984  0.22129  1.0000
  C   C584      1.0  0.6918  0.0456  0.26333  1.0000
  C   C585      1.0  0.71764  0.010619999999999971  0.26184  1.0000
  C   C586      1.0  0.69376  0.9610599999999998  0.21858  1.0000
  C   C587      1.0  0.71707  0.09858  0.30771  1.0000
  C   C588      1.0  0.62388  0.7649199999999999  0.1026  1.0000
  C   C589      1.0  0.63965  0.77034  0.1527  1.0000
  C   C590      1.0  0.65195  0.73249  0.1603  1.0000
  C   C591      1.0  0.64856  0.6882399999999997  0.11784999999999998  1.0000
  C   C592      1.0  0.6321299999999999  0.68222  0.06754999999999999  1.0000
  C   C593      1.0  0.62  0.72004  0.05994999999999999  1.0000
  C   C594      1.0  0.3982800000000001  0.71131  0.62714  1.0000
  C   C595      1.0  0.22834999999999994  0.60493  0.6561999999999999  1.0000
  C   C596      1.0  0.2052899999999999  0.5789699999999999  0.6705099999999999  1.0000
  C   C597      1.0  0.16128999999999988  0.5846799999999999  0.6678299999999998  1.0000
  C   C598      1.0  0.14214999999999994  0.56292  0.68498  1.0000
  C   C599      1.0  0.16707  0.53564  0.70586  1.0000
  C   C600      1.0  0.21037999999999984  0.5288399999999998  0.7069199999999998  1.0000
  C   C601      1.0  0.22907  0.54993  0.6890599999999999  1.0000
  C   C602      1.0  0.15111999999999984  0.51761  0.7307299999999998  1.0000
  C   C603      1.0  0.10154999999999997  0.49363999999999997  0.70662  1.0000
  C   C604      1.0  0.08850999999999995  0.47717999999999994  0.7322299999999999  1.0000
  C   C605      1.0  0.12604  0.48599  0.78319  1.0000
  C   C606      1.0  0.17592  0.51058  0.8084  1.0000
  C   C607      1.0  0.18770000000000006  0.52556  0.78124  1.0000
  C   C608      1.0  0.03593999999999988  0.45158999999999977  0.7058799999999997  1.0000
  C   C609      1.0  0.99737  0.46403000000000005  0.67388  1.0000
  C   C610      1.0  0.9478900000000001  0.4410800000000001  0.64967  1.0000
  C   C611      1.0  0.93483  0.4040099999999999  0.65578  1.0000
  C   C612      1.0  0.97278  0.39068  0.68685  1.0000
  C   C613      1.0  0.022379999999999976  0.41439  0.71178  1.0000
  C   C614      1.0  0.74958  0.24975  0.36663  1.0000
  C   C615      1.0  0.21641999999999995  0.52092  0.86203  1.0000
  C   C616      1.0  0.21459999999999996  0.48862  0.87834  1.0000
  C   C617      1.0  0.2542999999999999  0.49726  0.9273299999999998  1.0000
  C   C618      1.0  0.29645  0.53874  0.96193  1.0000
  C   C619      1.0  0.2986099999999999  0.57132  0.9462599999999998  1.0000
  C   C620      1.0  0.2592  0.56233  0.8968  1.0000
  C   C621      1.0  0.21726  0.5872199999999997  0.51402  1.0000
  C   C622      1.0  0.4965699999999998  0.6619499999999996  0.8595999999999998  1.0000
  C   C623      1.0  0.52237  0.69621  0.8549599999999999  1.0000
  C   C624      1.0  0.56861  0.73196  0.89986  1.0000
  C   C625      1.0  0.59065  0.76585  0.89616  1.0000
  C   C626      1.0  0.56706  0.76475  0.8474  1.0000
  C   C627      1.0  0.5216  0.72746  0.80184  1.0000
  C   C628      1.0  0.49940999999999997  0.6939  0.80566  1.0000
  C   C629      1.0  0.58653  0.8042499999999998  0.84491  1.0000
  C   C630      1.0  0.63729  0.82824  0.87349  1.0000
  C   C631      1.0  0.6532999999999999  0.8665399999999999  0.8704299999999999  1.0000
  C   C632      1.0  0.6178299999999999  0.8812699999999999  0.8387499999999999  1.0000
  C   C633      1.0  0.56691  0.8588299999999998  0.81126  1.0000
  C   C634      1.0  0.55221  0.82009  0.8141  1.0000
  C   C635      1.0  0.70681  0.89283  0.90254  1.0000
  C   C636      1.0  0.73865  0.90349  0.95609  1.0000
  C   C637      1.0  0.78854  0.93001  0.9881  1.0000
  C   C638      1.0  0.8089000000000002  0.94549  0.96679  1.0000
  C   C639      1.0  0.7779  0.9342999999999998  0.9130299999999999  1.0000
  C   C640      1.0  0.7275799999999999  0.9090999999999999  0.8819799999999999  1.0000
  C   C641      1.0  0.88867  0.2219  0.49801  1.0000
  C   C642      1.0  0.52801  0.87515  0.78088  1.0000
  C   C643      1.0  0.53241  0.8917999999999999  0.7508599999999999  1.0000
  C   C644      1.0  0.49375  0.90418  0.72021  1.0000
  C   C645      1.0  0.45027999999999996  0.90097  0.71964  1.0000
  C   C646      1.0  0.44568999999999986  0.8846899999999998  0.7496599999999998  1.0000
  C   C647      1.0  0.48402  0.87185  0.77979  1.0000
  C   C648      1.0  0.27878  0.77214  0.69014  1.0000
  O   O1        1.0  0.9425199999999999  0.59591  0.22276  1.0000
  O   O2        1.0  0.99379  0.63559  0.21628  1.0000
  O   O3        1.0  0.82346  0.3875599999999998  0.6935099999999997  1.0000
  O   O4        1.0  0.7648999999999999  0.41689999999999977  0.6532899999999999  1.0000
  O   O5        1.0  0.06300999999999997  0.73356  0.32401  1.0000
  O   O6        1.0  0.09232999999999997  0.77281  0.4148899999999999  1.0000
  O   O7        1.0  0.94017  0.60947  0.33997  1.0000
  O   O8        1.0  0.9921000000000001  0.56606  0.35881  1.0000
  O   O9        1.0  0.8521900000000001  0.4053299999999999  0.61732  1.0000
  O   O10       1.0  0.86939  0.342  0.6287  1.0000
  O   O11       1.0  0.06020999999999999  0.73744  0.4778  1.0000
  O   O12       1.0  0.07800999999999997  0.66436  0.45383999999999997  1.0000
  O   O13       1.0  0.8129499999999998  0.63277  0.1793  1.0000
  O   O14       1.0  0.9910100000000001  0.7725099999999999  0.4063199999999999  1.0000
  O   O15       1.0  0.74301  0.41508  0.55211  1.0000
  O   O16       1.0  0.72916  0.34509  0.47582  1.0000
  O   O17       1.0  0.06843  0.58332  0.33679  1.0000
  O   O18       1.0  0.08485  0.62749  0.30699  1.0000
  O   O19       1.0  0.017319999999999985  0.66839  0.3477  1.0000
  O   O20       1.0  0.75814  0.31918  0.55538  1.0000
  O   O21       1.0  0.28071  0.62756  0.22301  1.0000
  O   O22       1.0  0.22297  0.58114  0.21626  1.0000
  O   O23       1.0  0.86999  0.30634  0.69376  1.0000
  O   O24       1.0  0.8883  0.23664  0.65378  1.0000
  O   O25       1.0  0.26067  0.5916  0.3241  1.0000
  O   O26       1.0  0.3235  0.64234  0.41461  1.0000
  O   O27       1.0  0.3997  0.73134  0.33974  1.0000
  O   O28       1.0  0.3674  0.79412  0.35912  1.0000
  O   O29       1.0  0.76565  0.2120399999999999  0.61941  1.0000
  O   O30       1.0  0.7586  0.28582  0.6286  1.0000
  O   O31       1.0  0.41801  0.74045  0.47718  1.0000
  O   O32       1.0  0.37620999999999993  0.7896999999999998  0.4535299999999999  1.0000
  O   O33       1.0  0.36687  0.54687  0.18010999999999996  1.0000
  O   O34       1.0  0.41604000000000013  0.63391  0.40569999999999995  1.0000
  O   O35       1.0  0.80909  0.13668  0.55341  1.0000
  O   O36       1.0  0.7499799999999999  0.13217999999999996  0.47689999999999994  1.0000
  O   O37       1.0  0.26882  0.7539799999999997  0.33533  1.0000
  O   O38       1.0  0.2228  0.6805  0.30683  1.0000
  O   O39       1.0  0.33097  0.68  0.34745  1.0000
  O   O40       1.0  0.79512  0.2317199999999999  0.55288  1.0000
  O   O41       1.0  0.37775  0.19394  0.72353  1.0000
  O   O42       1.0  0.33062  0.2441199999999999  0.71706  1.0000
  O   O43       1.0  0.05627  0.07325  0.19381  1.0000
  O   O44       1.0  0.98653  0.014869999999999996  0.15419  1.0000
  O   O45       1.0  0.34173  0.31526  0.8251  1.0000
  O   O46       1.0  0.3920799999999998  0.3431999999999998  0.9156999999999997  1.0000
  O   O47       1.0  0.48210000000000003  0.19020000000000006  0.84052  1.0000
  O   O48       1.0  0.54396  0.2413699999999999  0.8579199999999999  1.0000
  O   O49       1.0  0.96221  0.10232  0.11911  1.0000
  O   O50       1.0  0.035870000000000006  0.11918999999999999  0.12821  1.0000
  O   O51       1.0  0.49049  0.31106999999999996  0.97834  1.0000
  O   O52       1.0  0.5395  0.32525  0.95239  1.0000
  O   O53       1.0  0.29597999999999997  0.06312999999999996  0.6789099999999999  1.0000
  O   O54       1.0  0.38399  0.24129000000000006  0.90584  1.0000
  O   O55       1.0  0.8869800000000002  0.9925599999999999  0.05274  1.0000
  O   O56       1.0  0.88233  0.9770499999999998  0.97669  1.0000
  O   O57       1.0  0.50231  0.3146199999999999  0.8343  1.0000
  O   O58       1.0  0.43084  0.33548  0.80859  1.0000
  O   O59       1.0  0.4283699999999999  0.26651  0.8475299999999999  1.0000
  O   O60       1.0  0.98419  0.007660000000000001  0.05419  1.0000
  O   O61       1.0  0.34481999999999996  0.52877  0.7219799999999998  1.0000
  O   O62       1.0  0.38630999999999993  0.47279999999999983  0.7157799999999999  1.0000
  O   O63       1.0  0.13682  0.12024999999999998  0.19359999999999997  1.0000
  O   O64       1.0  0.16755  0.13835  0.15412  1.0000
  O   O65       1.0  0.48356  0.51028  0.82429  1.0000
  O   O66       1.0  0.5233500000000002  0.57238  0.91507  1.0000
  O   O67       1.0  0.35822  0.64965  0.84068  1.0000
  O   O68       1.0  0.31304999999999994  0.6157899999999998  0.8572099999999999  1.0000
  O   O69       1.0  0.15619  0.0154  0.11828  1.0000
  O   O70       1.0  0.09242000000000002  0.008840000000000011  0.12896  1.0000
  O   O71       1.0  0.48758000000000007  0.6665699999999998  0.9780199999999999  1.0000
  O   O72       1.0  0.41192  0.6269199999999998  0.95107  1.0000
  O   O73       1.0  0.38322  0.61547  0.67966  1.0000
  O   O74       1.0  0.52116  0.6646399999999999  0.9054599999999999  1.0000
  O   O75       1.0  0.16663  0.059809999999999995  0.05315  1.0000
  O   O76       1.0  0.0945499999999999  0.99999  0.9769499999999999  1.0000
  O   O77       1.0  0.33132999999999985  0.5190299999999998  0.8320599999999998  1.0000
  O   O78       1.0  0.37738999999999995  0.47274999999999995  0.8066299999999998  1.0000
  O   O79       1.0  0.4190599999999999  0.5807299999999997  0.8463799999999998  1.0000
  O   O80       1.0  0.07054  0.04563  0.053359999999999984  1.0000
  O   O81       1.0  0.47122  0.65519  0.278  1.0000
  O   O82       1.0  0.52721  0.61372  0.28421  1.0000
  O   O83       1.0  0.8797300000000001  0.86318  0.80637  1.0000
  O   O84       1.0  0.86166  0.83245  0.84587  1.0000
  O   O85       1.0  0.4897  0.51646  0.17571  1.0000
  O   O86       1.0  0.42762  0.47667999999999994  0.08493  1.0000
  O   O87       1.0  0.3504  0.64185  0.15931  1.0000
  O   O88       1.0  0.38424  0.6872  0.14293  1.0000
  O   O89       1.0  0.98461  0.84381  0.8817  1.0000
  O   O90       1.0  0.99113  0.90754  0.87094  1.0000
  O   O91       1.0  0.33346  0.51247  0.02201  1.0000
  O   O92       1.0  0.37308  0.58818  0.04898  1.0000
  O   O93       1.0  0.38453  0.61678  0.32034  1.0000
  O   O94       1.0  0.33534  0.47887  0.09452  1.0000
  O   O95       1.0  0.94019  0.83334  0.94682  1.0000
  O   O96       1.0  0.9999600000000001  0.90545  0.02302  1.0000
  O   O97       1.0  0.48102000000000006  0.66875  0.16799  1.0000
  O   O98       1.0  0.52727  0.62265  0.19337999999999997  1.0000
  O   O99       1.0  0.41928000000000004  0.5810699999999998  0.15357  1.0000
  O   O100      1.0  0.9544  0.92945  0.94665  1.0000
  O   O101      1.0  0.8060700000000001  0.62228  0.27648  1.0000
  O   O102      1.0  0.7558799999999999  0.6693799999999999  0.28293999999999997  1.0000
  O   O103      1.0  0.92671  0.94375  0.80612  1.0000
  O   O104      1.0  0.9851400000000001  0.013490000000000004  0.84581  1.0000
  O   O105      1.0  0.68474  0.6582699999999998  0.1749  1.0000
  O   O106      1.0  0.65681  0.60792  0.08429  1.0000
  O   O107      1.0  0.80981  0.5179099999999998  0.15947  1.0000
  O   O108      1.0  0.75863  0.45606  0.14208  1.0000
  O   O109      1.0  0.89768  0.037800000000000035  0.8809  1.0000
  O   O110      1.0  0.88082  0.96411  0.87174  1.0000
  O   O111      1.0  0.68893  0.50952  0.021659999999999995  1.0000
  O   O112      1.0  0.67473  0.4604999999999999  0.0476  1.0000
  O   O113      1.0  0.9369  0.7040600000000001  0.32111  1.0000
  O   O114      1.0  0.7587  0.616  0.09413  1.0000
  O   O115      1.0  0.007440000000000012  0.11301  0.94725  1.0000
  O   O116      1.0  0.02288  0.11766999999999998  0.02329  1.0000
  O   O117      1.0  0.68532  0.49767  0.16565  1.0000
  O   O118      1.0  0.66451  0.56916  0.19138999999999998  1.0000
  O   O119      1.0  0.73348  0.57163  0.15247  1.0000
  O   O120      1.0  0.99231  0.015750000000000042  0.94575  1.0000
  O   O121      1.0  0.4041  0.05750000000000004  0.77726  1.0000
  O   O122      1.0  0.36441  0.006200000000000027  0.78371  1.0000
  O   O123      1.0  0.61254  0.17662999999999998  0.30666999999999994  1.0000
  O   O124      1.0  0.58314  0.23516999999999996  0.3467799999999999  1.0000
  O   O125      1.0  0.26643  0.9370099999999999  0.6759999999999999  1.0000
  O   O126      1.0  0.22718000000000002  0.9076700000000001  0.58512  1.0000
  O   O127      1.0  0.3905799999999999  0.05985999999999989  0.6600399999999998  1.0000
  O   O128      1.0  0.43397  0.007940000000000001  0.64116  1.0000
  O   O129      1.0  0.59464  0.1478  0.38264  1.0000
  O   O130      1.0  0.65801  0.13064  0.37134  1.0000
  O   O131      1.0  0.2625199999999999  0.9397699999999999  0.5221599999999998  1.0000
  O   O132      1.0  0.33569  0.92215  0.54625  1.0000
  O   O133      1.0  0.3672199999999999  0.1870399999999999  0.8206799999999997  1.0000
  O   O134      1.0  0.22750000000000006  0.009009999999999999  0.5937  1.0000
  O   O135      1.0  0.58489  0.2570099999999999  0.44788  1.0000
  O   O136      1.0  0.65487  0.27085  0.52415  1.0000
  O   O137      1.0  0.4167  0.93174  0.66331  1.0000
  O   O138      1.0  0.37248  0.91515  0.69296  1.0000
  O   O139      1.0  0.33156  0.9827500000000001  0.65232  1.0000
  O   O140      1.0  0.68089  0.24187999999999998  0.44523999999999997  1.0000
  O   O141      1.0  0.37244  0.71929  0.77696  1.0000
  O   O142      1.0  0.41886  0.77704  0.78372  1.0000
  O   O143      1.0  0.69363  0.13001  0.30629  1.0000
  O   O144      1.0  0.76331  0.11170999999999995  0.3463399999999999  1.0000
  O   O145      1.0  0.40840999999999994  0.73935  0.6758899999999999  1.0000
  O   O146      1.0  0.35766  0.6765099999999997  0.58539  1.0000
  O   O147      1.0  0.26863  0.60031  0.66022  1.0000
  O   O148      1.0  0.20588  0.6326599999999998  0.64092  1.0000
  O   O149      1.0  0.7878599999999999  0.23427999999999993  0.3806299999999999  1.0000
  O   O150      1.0  0.71407  0.24142  0.37139  1.0000
  O   O151      1.0  0.25955  0.58204  0.52278  1.0000
  O   O152      1.0  0.21028000000000002  0.6237699999999998  0.54647  1.0000
  O   O153      1.0  0.45312  0.63316  0.8199  1.0000
  O   O154      1.0  0.36604  0.58395  0.59428  1.0000
  O   O155      1.0  0.86327  0.19089  0.44672  1.0000
  O   O156      1.0  0.8678000000000002  0.25003  0.52324  1.0000
  O   O157      1.0  0.24606  0.73118  0.66473  1.0000
  O   O158      1.0  0.3194900000000001  0.7772  0.69311  1.0000
  O   O159      1.0  0.32002  0.66903  0.65254  1.0000
  O   O160      1.0  0.7682  0.20514999999999994  0.44757  1.0000
