data_image0
_chemical_formula_structural       Zn40H256C416N144O64
_chemical_formula_sum              "Zn40 H256 C416 N144 O64"
_cell_length_a       28.4679
_cell_length_b       28.468210000000003
_cell_length_c       28.455019999999998
_cell_angle_alpha    64.42622
_cell_angle_beta     82.12299
_cell_angle_gamma    115.56818

_symmetry_space_group_name_H-M    'P 1'
_symmetry_Int_Tables_number       1

loop_
  _symmetry_equiv_pos_as_xyz
  'x,y,z'

loop_
  _atom_site_type_symbol
  _atom_site_label
  _atom_site_symmetry_multiplicity
  _atom_site_fract_x
  _atom_site_fract_y
  _atom_site_fract_z
  _atom_site_occupancy
  Zn  Zn1       1.0  0.4618700000000001  0.3904600000000001  0.8211499999999999  1.0000
  Zn  Zn2       1.0  0.39204  0.28465999999999997  0.97243  1.0000
  Zn  Zn3       1.0  0.6123300000000002  0.46928  0.77872  1.0000
  Zn  Zn4       1.0  0.42651999999999995  0.5029799999999998  0.77369  1.0000
  Zn  Zn5       1.0  0.4145  0.30197  0.7595  1.0000
  Zn  Zn6       1.0  0.21185000000000004  0.8904599999999999  0.5714399999999998  1.0000
  Zn  Zn7       1.0  0.25709999999999994  0.78439  0.60775  1.0000
  Zn  Zn8       1.0  0.24816999999999986  0.9693099999999996  0.64298  1.0000
  Zn  Zn9       1.0  0.27692000000000005  0.00315000000000003  0.42341999999999996  1.0000
  Zn  Zn10      1.0  0.06154  0.80194  0.61247  1.0000
  Zn  Zn11      1.0  0.78815  0.10954999999999998  0.42856  1.0000
  Zn  Zn12      1.0  0.7429100000000001  0.21561999999999998  0.39225  1.0000
  Zn  Zn13      1.0  0.75183  0.03069999999999999  0.35702  1.0000
  Zn  Zn14      1.0  0.7230900000000001  0.99685  0.57657  1.0000
  Zn  Zn15      1.0  0.93847  0.19806999999999997  0.38752  1.0000
  Zn  Zn16      1.0  0.53813  0.6095499999999999  0.17884  1.0000
  Zn  Zn17      1.0  0.60797  0.71535  0.02756  1.0000
  Zn  Zn18      1.0  0.38767999999999997  0.5307299999999999  0.22127  1.0000
  Zn  Zn19      1.0  0.57349  0.4970300000000001  0.22629999999999997  1.0000
  Zn  Zn20      1.0  0.5855100000000001  0.69803  0.24049999999999996  1.0000
  Zn  Zn21      1.0  0.67868  0.21664999999999993  0.71194  1.0000
  Zn  Zn22      1.0  0.5275199999999999  0.13526999999999997  0.75702  1.0000
  Zn  Zn23      1.0  0.72112  0.10861999999999997  0.74856  1.0000
  Zn  Zn24      1.0  0.72627  0.2996899999999999  0.77685  1.0000
  Zn  Zn25      1.0  0.7405699999999997  0.3261  0.5615  1.0000
  Zn  Zn26      1.0  0.9285  0.71678  0.96191  1.0000
  Zn  Zn27      1.0  0.89254  0.63553  0.8921099999999998  1.0000
  Zn  Zn28      1.0  0.85681  0.6089  0.1124  1.0000
  Zn  Zn29      1.0  0.0763999999999998  0.7996199999999997  0.92665  1.0000
  Zn  Zn30      1.0  0.8876200000000001  0.8261500000000002  0.9143599999999997  1.0000
  Zn  Zn31      1.0  0.07150999999999996  0.2832299999999999  0.03808999999999999  1.0000
  Zn  Zn32      1.0  0.10747000000000001  0.36447999999999997  0.10788999999999997  1.0000
  Zn  Zn33      1.0  0.14318999999999998  0.39110999999999985  0.8876  1.0000
  Zn  Zn34      1.0  0.9236000000000002  0.20038999999999996  0.07334  1.0000
  Zn  Zn35      1.0  0.11238999999999999  0.17386  0.08563  1.0000
  Zn  Zn36      1.0  0.32132999999999995  0.7833499999999998  0.28806  1.0000
  Zn  Zn37      1.0  0.4724899999999999  0.8647399999999997  0.24298  1.0000
  Zn  Zn38      1.0  0.27888999999999997  0.8913899999999999  0.25143  1.0000
  Zn  Zn39      1.0  0.27374  0.70032  0.22315  1.0000
  Zn  Zn40      1.0  0.25944  0.67391  0.4385  1.0000
  H   H1        1.0  0.34623  0.06565999999999998  0.24795  1.0000
  H   H2        1.0  0.36937  0.11915  0.14284  1.0000
  H   H3        1.0  0.32299  0.24193999999999993  0.14799  1.0000
  H   H4        1.0  0.30147  0.18956999999999996  0.253  1.0000
  H   H5        1.0  0.7935899999999999  0.5918599999999999  0.6306  1.0000
  H   H6        1.0  0.8990599999999999  0.6726499999999999  0.58788  1.0000
  H   H7        1.0  0.88364  0.67154  0.74032  1.0000
  H   H8        1.0  0.7791299999999999  0.5894299999999999  0.78383  1.0000
  H   H9        1.0  0.34441  0.3345099999999999  0.67184  1.0000
  H   H10       1.0  0.3048299999999999  0.39352999999999977  0.61878  1.0000
  H   H11       1.0  0.31375  0.48219  0.62215  1.0000
  H   H12       1.0  0.36324  0.51691  0.67767  1.0000
  H   H13       1.0  0.47619000000000006  0.26699  0.04971  1.0000
  H   H14       1.0  0.56812  0.29376999999999986  0.06036  1.0000
  H   H15       1.0  0.66005  0.37661  0.978  1.0000
  H   H16       1.0  0.66351  0.4362899999999998  0.88028  1.0000
  H   H17       1.0  0.69243  0.6276000000000002  0.72021  1.0000
  H   H18       1.0  0.70747  0.7320000000000001  0.6863799999999999  1.0000
  H   H19       1.0  0.6286199999999998  0.74667  0.6866  1.0000
  H   H20       1.0  0.52932  0.65721  0.7201299999999999  1.0000
  H   H21       1.0  0.31258  0.12596  0.03062  1.0000
  H   H22       1.0  0.25627  0.030550000000000004  0.029209999999999996  1.0000
  H   H23       1.0  0.25780000000000014  0.03869000000000009  0.9387299999999998  1.0000
  H   H24       1.0  0.31494  0.14129  0.84622  1.0000
  H   H25       1.0  0.5121400000000002  0.2943800000000001  0.6847199999999999  1.0000
  H   H26       1.0  0.60984  0.32380999999999993  0.63604  1.0000
  H   H27       1.0  0.6927899999999999  0.39413  0.64345  1.0000
  H   H28       1.0  0.6832199999999998  0.4392299999999999  0.69983  1.0000
  H   H29       1.0  0.32016  0.4816099999999999  0.87024  1.0000
  H   H30       1.0  0.25046000000000007  0.43195999999999996  0.96761  1.0000
  H   H31       1.0  0.2367  0.34073  0.05084  1.0000
  H   H32       1.0  0.2914  0.2936999999999999  0.04186  1.0000
  H   H33       1.0  0.31427  0.56573  0.7803  1.0000
  H   H34       1.0  0.26218999999999987  0.6186399999999997  0.7503  1.0000
  H   H35       1.0  0.39005999999999996  0.7422099999999998  0.58085  1.0000
  H   H36       1.0  0.44304000000000004  0.69029  0.61124  1.0000
  H   H37       1.0  0.22255  0.09162  0.70177  1.0000
  H   H38       1.0  0.26058000000000003  0.17251999999999995  0.7262399999999999  1.0000
  H   H39       1.0  0.41184  0.17144  0.7122  1.0000
  H   H40       1.0  0.3733300000000001  0.08935000000000004  0.68985  1.0000
  H   H41       1.0  0.006720000000000046  0.83456  0.51016  1.0000
  H   H42       1.0  0.012579999999999982  0.89354  0.41158  1.0000
  H   H43       1.0  0.1045499999999999  0.9821799999999998  0.33168  1.0000
  H   H44       1.0  0.19485000000000002  0.016919999999999998  0.34619  1.0000
  H   H45       1.0  0.31684  0.76692  0.70972  1.0000
  H   H46       1.0  0.35413000000000006  0.7938800000000001  0.77488  1.0000
  H   H47       1.0  0.3546700000000001  0.87683  0.7836899999999999  1.0000
  H   H48       1.0  0.3169599999999999  0.9365999999999997  0.7270799999999998  1.0000
  H   H49       1.0  0.34827  0.12835999999999997  0.56428  1.0000
  H   H50       1.0  0.41877000000000003  0.23275  0.47469  1.0000
  H   H51       1.0  0.43369  0.24717000000000003  0.38120999999999994  1.0000
  H   H52       1.0  0.37778  0.15749999999999995  0.37161  1.0000
  H   H53       1.0  0.15645999999999996  0.6258699999999999  0.68675  1.0000
  H   H54       1.0  0.05968000000000002  0.53058  0.7255699999999999  1.0000
  H   H55       1.0  0.97745  0.53882  0.71889  1.0000
  H   H56       1.0  0.98768  0.64146  0.67353  1.0000
  H   H57       1.0  0.9797500000000001  0.7946000000000001  0.7173399999999999  1.0000
  H   H58       1.0  0.96025  0.8239599999999999  0.78569  1.0000
  H   H59       1.0  0.03783999999999987  0.8944299999999996  0.79837  1.0000
  H   H60       1.0  0.13932000000000008  0.93955  0.74386  1.0000
  H   H61       1.0  0.3517600000000001  0.98151  0.33877  1.0000
  H   H62       1.0  0.39933  0.93184  0.31848  1.0000
  H   H63       1.0  0.39147000000000004  0.8407  0.39588  1.0000
  H   H64       1.0  0.3356999999999999  0.7936999999999997  0.49771  1.0000
  H   H65       1.0  0.6857400000000002  0.43428  0.2197  1.0000
  H   H66       1.0  0.73781  0.3813699999999999  0.24969  1.0000
  H   H67       1.0  0.60995  0.25780000000000003  0.41914999999999997  1.0000
  H   H68       1.0  0.5569700000000001  0.30972  0.3887499999999999  1.0000
  H   H69       1.0  0.7774600000000002  0.90838  0.29822  1.0000
  H   H70       1.0  0.7394300000000003  0.82749  0.27375  1.0000
  H   H71       1.0  0.58816  0.82856  0.2878  1.0000
  H   H72       1.0  0.62668  0.91066  0.31015  1.0000
  H   H73       1.0  0.99329  0.16545  0.48983  1.0000
  H   H74       1.0  0.98743  0.10646999999999994  0.58841  1.0000
  H   H75       1.0  0.89546  0.017830000000000023  0.66832  1.0000
  H   H76       1.0  0.8051600000000001  0.9830900000000001  0.65381  1.0000
  H   H77       1.0  0.6831700000000003  0.23309  0.29027  1.0000
  H   H78       1.0  0.64587  0.2061299999999999  0.22511999999999996  1.0000
  H   H79       1.0  0.64533  0.12317  0.2163  1.0000
  H   H80       1.0  0.68305  0.06341000000000001  0.27291  1.0000
  H   H81       1.0  0.65173  0.87165  0.43572  1.0000
  H   H82       1.0  0.58124  0.76726  0.5253  1.0000
  H   H83       1.0  0.5663200000000002  0.7528399999999997  0.61878  1.0000
  H   H84       1.0  0.6222300000000001  0.8425099999999999  0.62838  1.0000
  H   H85       1.0  0.84355  0.3741399999999999  0.31324  1.0000
  H   H86       1.0  0.94033  0.46942  0.27442  1.0000
  H   H87       1.0  0.02255999999999994  0.4611899999999998  0.2811  1.0000
  H   H88       1.0  0.01232999999999999  0.3585499999999999  0.32647  1.0000
  H   H89       1.0  0.02025  0.20541  0.28266  1.0000
  H   H90       1.0  0.03975999999999997  0.17604999999999998  0.21431  1.0000
  H   H91       1.0  0.96217  0.10558  0.20162999999999998  1.0000
  H   H92       1.0  0.86069  0.06046000000000001  0.25614  1.0000
  H   H93       1.0  0.6482499999999999  0.018499999999999975  0.66123  1.0000
  H   H94       1.0  0.6006700000000001  0.06817000000000006  0.6815199999999999  1.0000
  H   H95       1.0  0.60854  0.15931000000000003  0.60411  1.0000
  H   H96       1.0  0.6643  0.2063  0.50228  1.0000
  H   H97       1.0  0.6537800000000002  0.9343499999999999  0.75204  1.0000
  H   H98       1.0  0.6306300000000001  0.8808600000000001  0.8571599999999999  1.0000
  H   H99       1.0  0.6770199999999998  0.75807  0.852  1.0000
  H   H100      1.0  0.6985400000000002  0.8104400000000002  0.7469999999999999  1.0000
  H   H101      1.0  0.20640999999999993  0.4081499999999998  0.36939999999999995  1.0000
  H   H102      1.0  0.10094999999999998  0.32736  0.41212  1.0000
  H   H103      1.0  0.11637  0.32847  0.25968  1.0000
  H   H104      1.0  0.22086999999999998  0.4105799999999999  0.21617  1.0000
  H   H105      1.0  0.65559  0.6655  0.32815  1.0000
  H   H106      1.0  0.69518  0.60648  0.38122  1.0000
  H   H107      1.0  0.68626  0.51782  0.37785  1.0000
  H   H108      1.0  0.63677  0.4830999999999999  0.32232  1.0000
  H   H109      1.0  0.5238199999999998  0.7330199999999999  0.95029  1.0000
  H   H110      1.0  0.43188999999999994  0.7062399999999999  0.93964  1.0000
  H   H111      1.0  0.33996  0.6234  0.02199  1.0000
  H   H112      1.0  0.3365  0.5637199999999999  0.11971  1.0000
  H   H113      1.0  0.30757  0.3724100000000001  0.27978  1.0000
  H   H114      1.0  0.2925400000000001  0.26801  0.31362  1.0000
  H   H115      1.0  0.37139000000000016  0.25333  0.3134  1.0000
  H   H116      1.0  0.47068  0.3428  0.27986  1.0000
  H   H117      1.0  0.6874300000000001  0.8740499999999998  0.96937  1.0000
  H   H118      1.0  0.7437400000000002  0.9694600000000001  0.9707799999999999  1.0000
  H   H119      1.0  0.74221  0.96132  0.06127  1.0000
  H   H120      1.0  0.68507  0.8587099999999999  0.15378  1.0000
  H   H121      1.0  0.48787000000000014  0.70563  0.31527  1.0000
  H   H122      1.0  0.39017  0.6762  0.36394999999999994  1.0000
  H   H123      1.0  0.30722000000000005  0.6058800000000001  0.3565499999999999  1.0000
  H   H124      1.0  0.3167899999999999  0.5607799999999997  0.30017  1.0000
  H   H125      1.0  0.6798500000000001  0.5184  0.12975  1.0000
  H   H126      1.0  0.74955  0.56805  0.03238  1.0000
  H   H127      1.0  0.7633100000000002  0.65927  0.94916  1.0000
  H   H128      1.0  0.7086100000000001  0.7063099999999999  0.9581299999999999  1.0000
  H   H129      1.0  0.2517499999999998  0.9056299999999996  0.8139299999999999  1.0000
  H   H130      1.0  0.3567600000000001  0.9875199999999998  0.76214  1.0000
  H   H131      1.0  0.35193  0.029010000000000088  0.8899999999999999  1.0000
  H   H132      1.0  0.24703000000000006  0.9456  0.94279  1.0000
  H   H133      1.0  0.86924  0.07587999999999998  0.72265  1.0000
  H   H134      1.0  0.91204  0.013110000000000043  0.76032  1.0000
  H   H135      1.0  0.7597  0.8757  0.91183  1.0000
  H   H136      1.0  0.71614  0.9367599999999998  0.8735899999999999  1.0000
  H   H137      1.0  0.82827  0.48356999999999994  0.50649  1.0000
  H   H138      1.0  0.8812899999999998  0.5762199999999997  0.51242  1.0000
  H   H139      1.0  0.87773  0.56395  0.60453  1.0000
  H   H140      1.0  0.82228  0.45908  0.69483  1.0000
  H   H141      1.0  0.45022999999999974  0.9736599999999995  0.81676  1.0000
  H   H142      1.0  0.43967999999999996  0.8710699999999999  0.85421  1.0000
  H   H143      1.0  0.5220699999999999  0.8616199999999997  0.85454  1.0000
  H   H144      1.0  0.6195799999999998  0.9557899999999997  0.817  1.0000
  H   H145      1.0  0.7802399999999999  0.08750000000000001  0.84839  1.0000
  H   H146      1.0  0.8138599999999999  0.10648999999999999  0.91899  1.0000
  H   H147      1.0  0.8137099999999999  0.18533999999999998  0.93352  1.0000
  H   H148      1.0  0.78012  0.25092  0.8774  1.0000
  H   H149      1.0  0.4696  0.15651999999999996  0.65657  1.0000
  H   H150      1.0  0.4708300000000001  0.21438999999999997  0.5598  1.0000
  H   H151      1.0  0.5611600000000001  0.3036499999999999  0.47743  1.0000
  H   H152      1.0  0.6536299999999999  0.3390799999999999  0.48737  1.0000
  H   H153      1.0  0.8148  0.30306  0.47996  1.0000
  H   H154      1.0  0.8636400000000002  0.25432999999999995  0.46024999999999994  1.0000
  H   H155      1.0  0.8562600000000001  0.16377  0.53775  1.0000
  H   H156      1.0  0.8000900000000001  0.11676  0.63936  1.0000
  H   H157      1.0  0.6295899999999999  0.30942999999999987  0.85163  1.0000
  H   H158      1.0  0.53231  0.2821900000000001  0.8990399999999998  1.0000
  H   H159      1.0  0.44903999999999994  0.21223999999999993  0.8915  1.0000
  H   H160      1.0  0.45797  0.16626999999999992  0.83568  1.0000
  H   H161      1.0  0.7196400000000001  0.40584  0.84599  1.0000
  H   H162      1.0  0.74983  0.4877300000000001  0.8691399999999999  1.0000
  H   H163      1.0  0.9190700000000002  0.5290399999999998  0.82299  1.0000
  H   H164      1.0  0.88851  0.44577  0.80144  1.0000
  H   H165      1.0  0.79827  0.57583  0.29338  1.0000
  H   H166      1.0  0.7734  0.51312  0.39898999999999996  1.0000
  H   H167      1.0  0.7877600000000001  0.37604  0.38386  1.0000
  H   H168      1.0  0.8103500000000001  0.43704  0.27924  1.0000
  H   H169      1.0  0.9901700000000001  0.9836300000000001  0.84457  1.0000
  H   H170      1.0  0.08884  0.07627999999999997  0.80497  1.0000
  H   H171      1.0  0.16852000000000006  0.06386  0.81383  1.0000
  H   H172      1.0  0.1537699999999999  0.9589399999999998  0.86337  1.0000
  H   H173      1.0  0.79065  0.47384  0.97651  1.0000
  H   H174      1.0  0.72565  0.37127999999999983  0.06862  1.0000
  H   H175      1.0  0.7164199999999998  0.36181999999999986  0.16053  1.0000
  H   H176      1.0  0.77267  0.45620999999999995  0.16376  1.0000
  H   H177      1.0  0.93523  0.58736  0.19282  1.0000
  H   H178      1.0  0.024690000000000007  0.6061  0.2075  1.0000
  H   H179      1.0  0.11815999999999995  0.6848599999999999  0.12846  1.0000
  H   H180      1.0  0.12766000000000005  0.75052  0.02915  1.0000
  H   H181      1.0  0.8131200000000003  0.65665  0.81283  1.0000
  H   H182      1.0  0.7741700000000001  0.71441  0.7563099999999998  1.0000
  H   H183      1.0  0.781  0.80354  0.75752  1.0000
  H   H184      1.0  0.82633  0.8389  0.81469  1.0000
  H   H185      1.0  0.78269  0.80336  0.01186  1.0000
  H   H186      1.0  0.7144599999999999  0.7546099999999998  0.10955999999999999  1.0000
  H   H187      1.0  0.70135  0.66399  0.19272  1.0000
  H   H188      1.0  0.75582  0.61697  0.18335  1.0000
  H   H189      1.0  0.16129999999999997  0.8096899999999998  0.82017  1.0000
  H   H190      1.0  0.18153  0.78233  0.7502699999999999  1.0000
  H   H191      1.0  0.10415000000000006  0.71243  0.7368499999999999  1.0000
  H   H192      1.0  0.0023799999999999932  0.6666  0.79149  1.0000
  H   H193      1.0  0.28037  0.59416  0.154  1.0000
  H   H194      1.0  0.25017999999999996  0.5122799999999998  0.13085  1.0000
  H   H195      1.0  0.08094000000000004  0.47096000000000005  0.17699999999999994  1.0000
  H   H196      1.0  0.1115  0.55424  0.19854999999999998  1.0000
  H   H197      1.0  0.20174  0.42417999999999995  0.70662  1.0000
  H   H198      1.0  0.22661  0.48689  0.601  1.0000
  H   H199      1.0  0.21225  0.62397  0.61614  1.0000
  H   H200      1.0  0.18966  0.56297  0.72076  1.0000
  H   H201      1.0  0.009840000000000003  0.016380000000000006  0.15543  1.0000
  H   H202      1.0  0.91117  0.92373  0.19503  1.0000
  H   H203      1.0  0.83149  0.93615  0.18617  1.0000
  H   H204      1.0  0.8462400000000001  0.041069999999999995  0.13663  1.0000
  H   H205      1.0  0.20936000000000002  0.52617  0.02349  1.0000
  H   H206      1.0  0.27436  0.6287299999999999  0.93137  1.0000
  H   H207      1.0  0.28358999999999973  0.6381899999999996  0.83947  1.0000
  H   H208      1.0  0.22733000000000003  0.5438  0.83624  1.0000
  H   H209      1.0  0.06478000000000003  0.4126500000000001  0.8071699999999999  1.0000
  H   H210      1.0  0.97532  0.39391  0.7925  1.0000
  H   H211      1.0  0.8818500000000001  0.31515  0.8715399999999998  1.0000
  H   H212      1.0  0.87235  0.24949  0.97084  1.0000
  H   H213      1.0  0.18689  0.34335999999999994  0.18717  1.0000
  H   H214      1.0  0.22584  0.2856  0.24369  1.0000
  H   H215      1.0  0.2190000000000001  0.19647  0.24248  1.0000
  H   H216      1.0  0.17368000000000003  0.16111000000000003  0.18529999999999996  1.0000
  H   H217      1.0  0.21732000000000004  0.19665000000000002  0.98813  1.0000
  H   H218      1.0  0.28555000000000014  0.24540000000000006  0.89044  1.0000
  H   H219      1.0  0.29865  0.33602  0.80728  1.0000
  H   H220      1.0  0.24418  0.38304  0.81664  1.0000
  H   H221      1.0  0.8387100000000001  0.19032  0.17982  1.0000
  H   H222      1.0  0.8184800000000002  0.21768000000000004  0.24971999999999997  1.0000
  H   H223      1.0  0.8958500000000001  0.28758  0.26315  1.0000
  H   H224      1.0  0.9976200000000001  0.33341  0.20850999999999997  1.0000
  H   H225      1.0  0.74826  0.09437999999999999  0.18607  1.0000
  H   H226      1.0  0.64325  0.012489999999999989  0.23785  1.0000
  H   H227      1.0  0.64808  0.971  0.11  1.0000
  H   H228      1.0  0.7529800000000002  0.05441  0.05721  1.0000
  H   H229      1.0  0.13077  0.9241299999999999  0.27735  1.0000
  H   H230      1.0  0.08796999999999995  0.9868999999999999  0.23966999999999997  1.0000
  H   H231      1.0  0.24030000000000007  0.12431000000000002  0.08816999999999998  1.0000
  H   H232      1.0  0.28387  0.06325  0.12641  1.0000
  H   H233      1.0  0.17173  0.51644  0.4935  1.0000
  H   H234      1.0  0.11872  0.42378999999999994  0.48757999999999996  1.0000
  H   H235      1.0  0.12228  0.43606  0.39547  1.0000
  H   H236      1.0  0.17772999999999992  0.5409299999999998  0.30517  1.0000
  H   H237      1.0  0.54978  0.026349999999999978  0.18323  1.0000
  H   H238      1.0  0.56033  0.12894  0.14578  1.0000
  H   H239      1.0  0.4779300000000001  0.13838999999999996  0.14546  1.0000
  H   H240      1.0  0.38043  0.044219999999999975  0.18299  1.0000
  H   H241      1.0  0.21975999999999996  0.9125099999999999  0.15161  1.0000
  H   H242      1.0  0.18614999999999998  0.8935199999999999  0.081  1.0000
  H   H243      1.0  0.1862999999999999  0.8146699999999998  0.06647  1.0000
  H   H244      1.0  0.21987999999999996  0.74909  0.12258999999999999  1.0000
  H   H245      1.0  0.5304099999999999  0.8434899999999996  0.34342  1.0000
  H   H246      1.0  0.52917  0.78562  0.44019  1.0000
  H   H247      1.0  0.43884999999999996  0.6963499999999999  0.52257  1.0000
  H   H248      1.0  0.3463699999999999  0.66093  0.51263  1.0000
  H   H249      1.0  0.18519999999999984  0.6969499999999995  0.52003  1.0000
  H   H250      1.0  0.13637  0.74568  0.53974  1.0000
  H   H251      1.0  0.14373999999999992  0.8362399999999999  0.46224  1.0000
  H   H252      1.0  0.19991999999999993  0.88325  0.36064  1.0000
  H   H253      1.0  0.37042000000000014  0.69058  0.14837  1.0000
  H   H254      1.0  0.46769999999999995  0.7178099999999998  0.10094999999999998  1.0000
  H   H255      1.0  0.5509600000000002  0.78776  0.1085  1.0000
  H   H256      1.0  0.5420399999999999  0.8337399999999998  0.16431  1.0000
  C   C1        1.0  0.32262  0.12489  0.25617  1.0000
  C   C2        1.0  0.34183  0.10456000000000001  0.2256  1.0000
  C   C3        1.0  0.35440999999999995  0.13377999999999995  0.16774  1.0000
  C   C4        1.0  0.34719999999999995  0.1829599999999999  0.13988  1.0000
  C   C5        1.0  0.32805000000000006  0.20350999999999997  0.1703  1.0000
  C   C6        1.0  0.31611  0.17466999999999996  0.22816999999999996  1.0000
  C   C7        1.0  0.3074000000000001  0.09271999999999996  0.31874  1.0000
  C   C8        1.0  0.36079000000000006  0.21279  0.078  1.0000
  C   C9        1.0  0.78056  0.58633  0.70943  1.0000
  C   C10       1.0  0.8140699999999998  0.6094699999999998  0.65409  1.0000
  C   C11       1.0  0.8719699999999999  0.65405  0.6304999999999998  1.0000
  C   C12       1.0  0.8968600000000001  0.67676  0.66157  1.0000
  C   C13       1.0  0.86343  0.65365  0.71685  1.0000
  C   C14       1.0  0.8055799999999999  0.6083199999999997  0.74083  1.0000
  C   C15       1.0  0.7184000000000005  0.53999  0.73313  1.0000
  C   C16       1.0  0.95887  0.72499  0.63516  1.0000
  C   C17       1.0  0.38277  0.44559000000000004  0.7045699999999999  1.0000
  C   C18       1.0  0.37794000000000005  0.39496000000000003  0.70238  1.0000
  C   C19       1.0  0.34958  0.37477999999999995  0.6715  1.0000
  C   C20       1.0  0.32729  0.40745  0.6431  1.0000
  C   C21       1.0  0.3323099999999999  0.45840999999999976  0.64509  1.0000
  C   C22       1.0  0.35972000000000004  0.47828999999999994  0.67575  1.0000
  C   C23       1.0  0.5718600000000001  0.38389000000000006  0.9114599999999999  1.0000
  C   C24       1.0  0.51908  0.33751  0.95861  1.0000
  C   C25       1.0  0.51651  0.30368999999999996  0.0136  1.0000
  C   C26       1.0  0.56801  0.31883  0.01876  1.0000
  C   C27       1.0  0.62092  0.36618000000000006  0.97142  1.0000
  C   C28       1.0  0.62386  0.39938999999999997  0.9172  1.0000
  C   C29       1.0  0.55605  0.5923899999999999  0.74033  1.0000
  C   C30       1.0  0.6016599999999998  0.5839999999999999  0.74002  1.0000
  C   C31       1.0  0.6575  0.63409  0.7204899999999999  1.0000
  C   C32       1.0  0.6652099999999999  0.6916299999999999  0.70197  1.0000
  C   C33       1.0  0.6194800000000003  0.7001100000000001  0.70212  1.0000
  C   C34       1.0  0.5644800000000002  0.65121  0.7208499999999999  1.0000
  C   C35       1.0  0.3447200000000002  0.19125000000000003  0.88731  1.0000
  C   C36       1.0  0.34284  0.18656000000000003  0.93928  1.0000
  C   C37       1.0  0.31145  0.12857999999999997  0.9916  1.0000
  C   C38       1.0  0.28133  0.07644  0.98979  1.0000
  C   C39       1.0  0.28245  0.08109000000000002  0.9377699999999999  1.0000
  C   C40       1.0  0.31410999999999994  0.13791  0.88587  1.0000
  C   C41       1.0  0.59202  0.39212999999999976  0.72305  1.0000
  C   C42       1.0  0.54425  0.35203999999999996  0.71838  1.0000
  C   C43       1.0  0.54917  0.3255899999999999  0.68751  1.0000
  C   C44       1.0  0.6033400000000001  0.3418800000000001  0.6613  1.0000
  C   C45       1.0  0.65126  0.3822999999999999  0.66575  1.0000
  C   C46       1.0  0.6467499999999998  0.40772  0.69674  1.0000
  C   C47       1.0  0.33691999999999994  0.3626799999999998  0.95071  1.0000
  C   C48       1.0  0.3448899999999999  0.4152899999999998  0.9028399999999999  1.0000
  C   C49       1.0  0.31362000000000007  0.44137  0.90745  1.0000
  C   C50       1.0  0.2751299999999999  0.4131499999999998  0.96146  1.0000
  C   C51       1.0  0.2671299999999999  0.36040999999999995  0.00948  1.0000
  C   C52       1.0  0.29718  0.33393  0.00534  1.0000
  C   C53       1.0  0.3816  0.62519  0.69728  1.0000
  C   C54       1.0  0.33067  0.60464  0.73698  1.0000
  C   C55       1.0  0.30183000000000004  0.6336200000000001  0.72054  1.0000
  C   C56       1.0  0.32306999999999997  0.6829499999999998  0.66419  1.0000
  C   C57       1.0  0.37406999999999985  0.7037399999999996  0.62432  1.0000
  C   C58       1.0  0.40326999999999996  0.6750699999999997  0.641  1.0000
  C   C59       1.0  0.41199  0.593  0.71403  1.0000
  C   C60       1.0  0.2909499999999999  0.7127299999999998  0.64816  1.0000
  C   C61       1.0  0.29583999999999994  0.08617000000000004  0.6943  1.0000
  C   C62       1.0  0.26364000000000004  0.10927  0.70463  1.0000
  C   C63       1.0  0.28461999999999993  0.15393999999999997  0.71783  1.0000
  C   C64       1.0  0.33838000000000007  0.17674000000000006  0.7199899999999999  1.0000
  C   C65       1.0  0.37051000000000006  0.15357  0.70984  1.0000
  C   C66       1.0  0.34919  0.10819  0.69737  1.0000
  C   C67       1.0  0.27325  0.03992  0.67839  1.0000
  C   C68       1.0  0.36020000000000013  0.22513000000000008  0.7335999999999998  1.0000
  C   C69       1.0  0.15055000000000002  0.9456699999999999  0.43717  1.0000
  C   C70       1.0  0.09774000000000001  0.89504  0.48305  1.0000
  C   C71       1.0  0.04664999999999995  0.8748299999999999  0.47499  1.0000
  C   C72       1.0  0.0508499999999999  0.9074899999999998  0.42003999999999997  1.0000
  C   C73       1.0  0.10377999999999997  0.9584399999999998  0.374  1.0000
  C   C74       1.0  0.15435999999999994  0.9783299999999999  0.38142  1.0000
  C   C75       1.0  0.2957099999999999  0.8840199999999999  0.68801  1.0000
  C   C76       1.0  0.29637  0.8375099999999999  0.68179  1.0000
  C   C77       1.0  0.31743999999999983  0.8036799999999996  0.71321  1.0000
  C   C78       1.0  0.33768000000000004  0.81893  0.7495699999999997  1.0000
  C   C79       1.0  0.33774999999999994  0.8663599999999999  0.7549599999999999  1.0000
  C   C80       1.0  0.31691  0.89962  0.72448  1.0000
  C   C81       1.0  0.3332500000000001  0.09280999999999999  0.46326999999999996  1.0000
  C   C82       1.0  0.32456  0.08450000000000002  0.51727  1.0000
  C   C83       1.0  0.35508  0.13473999999999997  0.52286  1.0000
  C   C84       1.0  0.39406  0.19227999999999998  0.47291  1.0000
  C   C85       1.0  0.4026799999999999  0.2006199999999999  0.41872  1.0000
  C   C86       1.0  0.37253  0.15159999999999998  0.41276  1.0000
  C   C87       1.0  0.07864  0.69132  0.6536  1.0000
  C   C88       1.0  0.12584  0.68654  0.65646  1.0000
  C   C89       1.0  0.12010999999999998  0.62854  0.683  1.0000
  C   C90       1.0  0.06614999999999994  0.57646  0.70488  1.0000
  C   C91       1.0  0.018869999999999974  0.5811999999999999  0.7012899999999999  1.0000
  C   C92       1.0  0.02387999999999998  0.63803  0.67621  1.0000
  C   C93       1.0  0.11559999999999976  0.8923399999999996  0.69976  1.0000
  C   C94       1.0  0.07094000000000006  0.8522400000000001  0.69199  1.0000
  C   C95       1.0  0.013619999999999815  0.8257799999999995  0.72329  1.0000
  C   C96       1.0  0.0035899999999999864  0.84206  0.76116  1.0000
  C   C97       1.0  0.048359999999999924  0.8825399999999999  0.76871  1.0000
  C   C98       1.0  0.10479999999999999  0.90797  0.7388699999999999  1.0000
  C   C99       1.0  0.3135699999999999  0.8626799999999998  0.4744  1.0000
  C   C100      1.0  0.31831000000000004  0.9153  0.4297799999999999  1.0000
  C   C101      1.0  0.3488599999999999  0.9413399999999995  0.37239  1.0000
  C   C102      1.0  0.37454  0.9131199999999998  0.36201  1.0000
  C   C103      1.0  0.3698899999999999  0.8604099999999998  0.40669  1.0000
  C   C104      1.0  0.3393799999999999  0.8339399999999998  0.4633  1.0000
  C   C105      1.0  0.61841  0.37482  0.30272  1.0000
  C   C106      1.0  0.66934  0.39537  0.26301  1.0000
  C   C107      1.0  0.69817  0.36638  0.27945  1.0000
  C   C108      1.0  0.67694  0.31706000000000006  0.3358  1.0000
  C   C109      1.0  0.62594  0.29627000000000003  0.37567999999999996  1.0000
  C   C110      1.0  0.5967400000000002  0.32494  0.35899  1.0000
  C   C111      1.0  0.58802  0.407  0.28596  1.0000
  C   C112      1.0  0.7090600000000002  0.2872699999999999  0.35183  1.0000
  C   C113      1.0  0.7041699999999999  0.9138399999999999  0.3057  1.0000
  C   C114      1.0  0.7363699999999999  0.8907299999999998  0.29536  1.0000
  C   C115      1.0  0.7153800000000002  0.8460699999999998  0.28216  1.0000
  C   C116      1.0  0.66163  0.8232599999999999  0.28  1.0000
  C   C117      1.0  0.6294899999999999  0.8464399999999999  0.29016  1.0000
  C   C118      1.0  0.6508199999999998  0.8918199999999998  0.30263  1.0000
  C   C119      1.0  0.72675  0.96009  0.3216  1.0000
  C   C120      1.0  0.63981  0.7748799999999998  0.2664  1.0000
  C   C121      1.0  0.8494600000000002  0.054340000000000034  0.56282  1.0000
  C   C122      1.0  0.9022700000000002  0.10497000000000001  0.51694  1.0000
  C   C123      1.0  0.9533599999999999  0.12517999999999996  0.525  1.0000
  C   C124      1.0  0.9491600000000002  0.09251999999999999  0.57996  1.0000
  C   C125      1.0  0.8962300000000001  0.04157000000000003  0.62599  1.0000
  C   C126      1.0  0.84565  0.021679999999999984  0.61858  1.0000
  C   C127      1.0  0.7043000000000003  0.11599000000000001  0.31199  1.0000
  C   C128      1.0  0.70364  0.1625  0.3182  1.0000
  C   C129      1.0  0.6825700000000001  0.19633  0.28678  1.0000
  C   C130      1.0  0.66233  0.18107999999999996  0.25043  1.0000
  C   C131      1.0  0.66226  0.13365000000000002  0.24503999999999995  1.0000
  C   C132      1.0  0.6831  0.10038999999999997  0.27551  1.0000
  C   C133      1.0  0.66676  0.9071999999999998  0.53673  1.0000
  C   C134      1.0  0.67545  0.91551  0.4827199999999999  1.0000
  C   C135      1.0  0.6449299999999999  0.8652699999999999  0.47713  1.0000
  C   C136      1.0  0.60595  0.80773  0.52709  1.0000
  C   C137      1.0  0.59733  0.79939  0.58128  1.0000
  C   C138      1.0  0.6274699999999999  0.8484099999999998  0.58724  1.0000
  C   C139      1.0  0.92137  0.3086900000000001  0.34639999999999993  1.0000
  C   C140      1.0  0.87417  0.31346999999999997  0.34353  1.0000
  C   C141      1.0  0.8799  0.37146999999999997  0.317  1.0000
  C   C142      1.0  0.9338500000000002  0.42355  0.29511  1.0000
  C   C143      1.0  0.98114  0.41881  0.2987  1.0000
  C   C144      1.0  0.97613  0.3619799999999999  0.32379  1.0000
  C   C145      1.0  0.88441  0.10767  0.30024  1.0000
  C   C146      1.0  0.9290700000000001  0.14777  0.308  1.0000
  C   C147      1.0  0.98639  0.17423  0.27671  1.0000
  C   C148      1.0  0.9964199999999999  0.15795  0.23883999999999997  1.0000
  C   C149      1.0  0.95165  0.11746999999999999  0.23129  1.0000
  C   C150      1.0  0.89521  0.09203999999999998  0.26112  1.0000
  C   C151      1.0  0.68643  0.13732999999999998  0.5256  1.0000
  C   C152      1.0  0.6817  0.08470999999999994  0.57021  1.0000
  C   C153      1.0  0.65115  0.05867000000000001  0.62761  1.0000
  C   C154      1.0  0.62547  0.08688999999999995  0.63799  1.0000
  C   C155      1.0  0.6301100000000002  0.13958999999999988  0.5933  1.0000
  C   C156      1.0  0.6606300000000003  0.16607  0.53669  1.0000
  C   C157      1.0  0.6773800000000001  0.8751099999999997  0.74382  1.0000
  C   C158      1.0  0.65817  0.8954499999999999  0.7743999999999999  1.0000
  C   C159      1.0  0.6456000000000001  0.86623  0.8322599999999999  1.0000
  C   C160      1.0  0.6528000000000002  0.8170499999999999  0.86011  1.0000
  C   C161      1.0  0.6719599999999999  0.7964999999999998  0.8297  1.0000
  C   C162      1.0  0.6839  0.82534  0.7718299999999999  1.0000
  C   C163      1.0  0.69261  0.90729  0.68126  1.0000
  C   C164      1.0  0.6392199999999999  0.78722  0.922  1.0000
  C   C165      1.0  0.21944  0.41367  0.29057  1.0000
  C   C166      1.0  0.18593000000000004  0.39054000000000005  0.3459  1.0000
  C   C167      1.0  0.12804  0.34595999999999993  0.36949  1.0000
  C   C168      1.0  0.10315  0.32325  0.33843  1.0000
  C   C169      1.0  0.13657000000000002  0.34636  0.28315  1.0000
  C   C170      1.0  0.19443  0.39168999999999987  0.25916  1.0000
  C   C171      1.0  0.28160999999999997  0.4600199999999999  0.26686  1.0000
  C   C172      1.0  0.041140000000000024  0.27502  0.36483999999999994  1.0000
  C   C173      1.0  0.61723  0.55442  0.29542  1.0000
  C   C174      1.0  0.62207  0.60505  0.29762  1.0000
  C   C175      1.0  0.65043  0.62523  0.32849  1.0000
  C   C176      1.0  0.6727200000000002  0.59256  0.35689999999999994  1.0000
  C   C177      1.0  0.6677  0.54159  0.35491  1.0000
  C   C178      1.0  0.64029  0.52172  0.32424  1.0000
  C   C179      1.0  0.42815  0.61612  0.08853  1.0000
  C   C180      1.0  0.48093  0.6625  0.04138  1.0000
  C   C181      1.0  0.48350000000000004  0.6963200000000002  0.9863899999999999  1.0000
  C   C182      1.0  0.43200000000000005  0.68118  0.9812399999999998  1.0000
  C   C183      1.0  0.37909  0.63383  0.028579999999999998  1.0000
  C   C184      1.0  0.3761500000000001  0.60061  0.08279  1.0000
  C   C185      1.0  0.44396  0.4076199999999999  0.25967  1.0000
  C   C186      1.0  0.39833999999999997  0.4159999999999998  0.25997  1.0000
  C   C187      1.0  0.34251  0.36592  0.2795  1.0000
  C   C188      1.0  0.3348  0.3083799999999999  0.29802  1.0000
  C   C189      1.0  0.38053  0.2999  0.29788  1.0000
  C   C190      1.0  0.43553  0.34880000000000005  0.27914  1.0000
  C   C191      1.0  0.6552899999999999  0.8087599999999997  0.11268  1.0000
  C   C192      1.0  0.65717  0.81345  0.06072  1.0000
  C   C193      1.0  0.68856  0.87143  0.00839  1.0000
  C   C194      1.0  0.7186799999999999  0.9235599999999999  0.01021  1.0000
  C   C195      1.0  0.7175500000000001  0.9189199999999998  0.062229999999999994  1.0000
  C   C196      1.0  0.6859  0.86209  0.11412  1.0000
  C   C197      1.0  0.40797999999999995  0.6078799999999998  0.27695  1.0000
  C   C198      1.0  0.45575999999999994  0.6479699999999998  0.28162  1.0000
  C   C199      1.0  0.45084  0.67442  0.31248  1.0000
  C   C200      1.0  0.39666  0.65813  0.3387  1.0000
  C   C201      1.0  0.3487499999999999  0.6177099999999998  0.33424999999999994  1.0000
  C   C202      1.0  0.35325000000000006  0.5922900000000001  0.30326  1.0000
  C   C203      1.0  0.66309  0.6373299999999997  0.04928  1.0000
  C   C204      1.0  0.65511  0.58472  0.09716  1.0000
  C   C205      1.0  0.68639  0.55864  0.09255  1.0000
  C   C206      1.0  0.72488  0.58686  0.03854  1.0000
  C   C207      1.0  0.7328800000000001  0.6396  0.99051  1.0000
  C   C208      1.0  0.7028200000000001  0.6660800000000001  0.99466  1.0000
  C   C209      1.0  0.24359  0.92113  0.88135  1.0000
  C   C210      1.0  0.27412  0.9324199999999999  0.8304299999999999  1.0000
  C   C211      1.0  0.33197  0.9776499999999999  0.8017099999999999  1.0000
  C   C212      1.0  0.3599399999999999  0.012719999999999967  0.823  1.0000
  C   C213      1.0  0.32958  0.0015800000000000115  0.87394  1.0000
  C   C214      1.0  0.2717199999999999  0.9556999999999997  0.90304  1.0000
  C   C215      1.0  0.18103000000000008  0.8738600000000001  0.9117899999999999  1.0000
  C   C216      1.0  0.4218600000000002  0.06090000000000005  0.7909299999999999  1.0000
  C   C217      1.0  0.79049  0.009860000000000013  0.79597  1.0000
  C   C218      1.0  0.8458100000000002  0.03180000000000002  0.76369  1.0000
  C   C219      1.0  0.86944  0.9975  0.7845099999999999  1.0000
  C   C220      1.0  0.8383800000000001  0.9414699999999999  0.8382699999999998  1.0000
  C   C221      1.0  0.78312  0.91951  0.87054  1.0000
  C   C222      1.0  0.7591000000000002  0.95338  0.84935  1.0000
  C   C223      1.0  0.7668500000000001  0.04836000000000003  0.7733199999999999  1.0000
  C   C224      1.0  0.8647399999999998  0.9058499999999999  0.8602  1.0000
  C   C225      1.0  0.79523  0.41253  0.65045  1.0000
  C   C226      1.0  0.7974699999999999  0.41955  0.59759  1.0000
  C   C227      1.0  0.82845  0.47874999999999995  0.54648  1.0000
  C   C228      1.0  0.85686  0.52946  0.55072  1.0000
  C   C229      1.0  0.85479  0.5224499999999997  0.60371  1.0000
  C   C230      1.0  0.8241000000000002  0.4644099999999999  0.65431  1.0000
  C   C231      1.0  0.58837  0.01625000000000001  0.79576  1.0000
  C   C232      1.0  0.54124  0.02186999999999999  0.79638  1.0000
  C   C233      1.0  0.48632  0.96945  0.8174399999999998  1.0000
  C   C234      1.0  0.48122  0.9128199999999999  0.8377  1.0000
  C   C235      1.0  0.52856  0.90728  0.83773  1.0000
  C   C236      1.0  0.5826900000000002  0.9585399999999995  0.81693  1.0000
  C   C237      1.0  0.75971  0.20357999999999998  0.83315  1.0000
  C   C238      1.0  0.7600700000000001  0.1582100000000001  0.8245899999999999  1.0000
  C   C239      1.0  0.77977  0.12210000000000003  0.85515  1.0000
  C   C240      1.0  0.79827  0.13309  0.89414  1.0000
  C   C241      1.0  0.7981100000000002  0.1787700000000001  0.9025799999999999  1.0000
  C   C242      1.0  0.77932  0.21490999999999996  0.87232  1.0000
  C   C243      1.0  0.61278  0.268  0.57844  1.0000
  C   C244      1.0  0.56085  0.21785  0.62573  1.0000
  C   C245      1.0  0.5085199999999999  0.19682999999999998  0.62013  1.0000
  C   C246      1.0  0.5102600000000003  0.22884  0.56621  1.0000
  C   C247      1.0  0.5622099999999998  0.27988  0.51883  1.0000
  C   C248      1.0  0.6141  0.3001199999999999  0.52371  1.0000
  C   C249      1.0  0.7767500000000005  0.18467000000000003  0.61579  1.0000
  C   C250      1.0  0.78133  0.23712999999999992  0.57115  1.0000
  C   C251      1.0  0.81213  0.26322  0.51378  1.0000
  C   C252      1.0  0.8383800000000001  0.23539999999999997  0.50364  1.0000
  C   C253      1.0  0.83401  0.1829799999999999  0.54837  1.0000
  C   C254      1.0  0.8030799999999999  0.15633999999999995  0.60487  1.0000
  C   C255      1.0  0.5490900000000001  0.21192999999999995  0.81349  1.0000
  C   C256      1.0  0.5969200000000002  0.25184  0.81823  1.0000
  C   C257      1.0  0.59234  0.27869999999999995  0.84872  1.0000
  C   C258      1.0  0.5383999999999999  0.2633599999999999  0.87437  1.0000
  C   C259      1.0  0.49038000000000004  0.22317000000000004  0.8698  1.0000
  C   C260      1.0  0.4944900000000001  0.19708999999999993  0.83932  1.0000
  C   C261      1.0  0.8025  0.42123  0.82243  1.0000
  C   C262      1.0  0.7629300000000001  0.43258999999999986  0.8416199999999999  1.0000
  C   C263      1.0  0.77947  0.47784000000000004  0.8541999999999998  1.0000
  C   C264      1.0  0.8358299999999999  0.5129099999999998  0.84709  1.0000
  C   C265      1.0  0.87558  0.50169  0.8279799999999999  1.0000
  C   C266      1.0  0.8587800000000002  0.45578000000000013  0.8160199999999999  1.0000
  C   C267      1.0  0.78548  0.37387000000000004  0.8072399999999998  1.0000
  C   C268      1.0  0.8517500000000002  0.5611  0.8608  1.0000
  C   C269      1.0  0.8057799999999999  0.50998  0.28058  1.0000
  C   C270      1.0  0.79538  0.5318599999999999  0.314  1.0000
  C   C271      1.0  0.78201  0.4976  0.37194  1.0000
  C   C272      1.0  0.7799300000000002  0.4417000000000001  0.39685999999999994  1.0000
  C   C273      1.0  0.7901800000000001  0.41977  0.36352999999999996  1.0000
  C   C274      1.0  0.80276  0.45359  0.30565  1.0000
  C   C275      1.0  0.8214300000000002  0.54829  0.21844  1.0000
  C   C276      1.0  0.7663700000000001  0.40618  0.45884  1.0000
  C   C277      1.0  0.06290999999999997  0.9124799999999997  0.88274  1.0000
  C   C278      1.0  0.01715  0.91958  0.87786  1.0000
  C   C279      1.0  0.02530999999999994  0.9788099999999998  0.84959  1.0000
  C   C280      1.0  0.08028000000000006  0.029490000000000103  0.8273299999999999  1.0000
  C   C281      1.0  0.12617999999999996  0.022389999999999976  0.83236  1.0000
  C   C282      1.0  0.11864999999999984  0.9643299999999997  0.85977  1.0000
  C   C283      1.0  0.8119  0.51656  0.07204999999999999  1.0000
  C   C284      1.0  0.8182600000000001  0.5221299999999999  0.01929  1.0000
  C   C285      1.0  0.7870300000000001  0.46965999999999997  0.01683  1.0000
  C   C286      1.0  0.7507400000000002  0.41304  0.06843  1.0000
  C   C287      1.0  0.7451500000000001  0.40752999999999995  0.12133  1.0000
  C   C288      1.0  0.7754200000000002  0.45886  0.12414  1.0000
  C   C289      1.0  0.03612999999999989  0.7033999999999998  0.05618999999999999  1.0000
  C   C290      1.0  0.9821599999999999  0.6581199999999999  0.10188  1.0000
  C   C291      1.0  0.97658  0.62193  0.15772  1.0000
  C   C292      1.0  0.026499999999999996  0.63277  0.16526  1.0000
  C   C293      1.0  0.08066999999999996  0.67838  0.11941  1.0000
  C   C294      1.0  0.08658999999999999  0.71457  0.06446  1.0000
  C   C295      1.0  0.8464799999999998  0.7680199999999997  0.84464  1.0000
  C   C296      1.0  0.84364  0.71793  0.8428199999999999  1.0000
  C   C297      1.0  0.81699  0.6968999999999999  0.8115199999999998  1.0000
  C   C298      1.0  0.7950400000000001  0.72885  0.7813  1.0000
  C   C299      1.0  0.79866  0.7798099999999999  0.78229  1.0000
  C   C300      1.0  0.8237800000000001  0.8000500000000001  0.81396  1.0000
  C   C301      1.0  0.80008  0.6849  0.09203  1.0000
  C   C302      1.0  0.8079  0.73738  0.04415999999999999  1.0000
  C   C303      1.0  0.77667  0.7634699999999999  0.04899  1.0000
  C   C304      1.0  0.7388  0.73561  0.10317  1.0000
  C   C305      1.0  0.7311000000000001  0.68316  0.15118999999999996  1.0000
  C   C306      1.0  0.7608900000000002  0.6565399999999999  0.14678  1.0000
  C   C307      1.0  0.025690000000000063  0.7122200000000001  0.83703  1.0000
  C   C308      1.0  0.07027999999999994  0.7521399999999999  0.8449899999999999  1.0000
  C   C309      1.0  0.12766000000000002  0.77898  0.8136399999999999  1.0000
  C   C310      1.0  0.13802000000000014  0.7635800000000001  0.7750999999999999  1.0000
  C   C311      1.0  0.09333999999999996  0.72341  0.7672  1.0000
  C   C312      1.0  0.03675999999999997  0.69737  0.79729  1.0000
  C   C313      1.0  0.19751  0.5787699999999999  0.17755999999999997  1.0000
  C   C314      1.0  0.23708  0.56742  0.15838  1.0000
  C   C315      1.0  0.22052999999999995  0.5221699999999999  0.14579  1.0000
  C   C316      1.0  0.16417999999999996  0.4870999999999999  0.1529  1.0000
  C   C317      1.0  0.12441999999999993  0.49831999999999976  0.17202  1.0000
  C   C318      1.0  0.14123  0.54423  0.18398  1.0000
  C   C319      1.0  0.21451999999999993  0.6261399999999998  0.19276  1.0000
  C   C320      1.0  0.14826000000000003  0.43891  0.1392  1.0000
  C   C321      1.0  0.19422000000000006  0.49002999999999997  0.7194099999999999  1.0000
  C   C322      1.0  0.20462000000000008  0.46815000000000007  0.6859899999999999  1.0000
  C   C323      1.0  0.2179999999999999  0.5024099999999998  0.62806  1.0000
  C   C324      1.0  0.22008  0.55831  0.60313  1.0000
  C   C325      1.0  0.20982  0.58024  0.63646  1.0000
  C   C326      1.0  0.19725000000000004  0.54642  0.6943399999999998  1.0000
  C   C327      1.0  0.17856999999999998  0.4517199999999999  0.78156  1.0000
  C   C328      1.0  0.23364000000000001  0.59383  0.54115  1.0000
  C   C329      1.0  0.9371000000000002  0.08753000000000001  0.11726  1.0000
  C   C330      1.0  0.9828600000000002  0.08043  0.12214  1.0000
  C   C331      1.0  0.97469  0.021199999999999986  0.1504  1.0000
  C   C332      1.0  0.91973  0.97052  0.17266999999999996  1.0000
  C   C333      1.0  0.8738299999999999  0.9776199999999998  0.16763  1.0000
  C   C334      1.0  0.88136  0.03567999999999998  0.14023  1.0000
  C   C335      1.0  0.1881  0.48344999999999994  0.92794  1.0000
  C   C336      1.0  0.18174  0.47788  0.9807  1.0000
  C   C337      1.0  0.21297999999999995  0.5303499999999999  0.9831699999999999  1.0000
  C   C338      1.0  0.24926999999999988  0.5869699999999998  0.93156  1.0000
  C   C339      1.0  0.25486  0.59248  0.87867  1.0000
  C   C340      1.0  0.22458000000000009  0.5411500000000001  0.8758499999999999  1.0000
  C   C341      1.0  0.9638800000000001  0.29660000000000003  0.9438099999999998  1.0000
  C   C342      1.0  0.01784999999999995  0.34188999999999986  0.89811  1.0000
  C   C343      1.0  0.02342999999999999  0.37807999999999997  0.84228  1.0000
  C   C344      1.0  0.97351  0.36724  0.8347399999999999  1.0000
  C   C345      1.0  0.91934  0.32162999999999997  0.88058  1.0000
  C   C346      1.0  0.91342  0.28544  0.9355399999999999  1.0000
  C   C347      1.0  0.15351999999999993  0.23198999999999995  0.15535  1.0000
  C   C348      1.0  0.15636999999999998  0.2820799999999999  0.15717  1.0000
  C   C349      1.0  0.18301  0.30311  0.18848  1.0000
  C   C350      1.0  0.20496999999999996  0.2711599999999999  0.21869  1.0000
  C   C351      1.0  0.20135  0.22020000000000003  0.21769999999999998  1.0000
  C   C352      1.0  0.17623  0.19996000000000003  0.18604  1.0000
  C   C353      1.0  0.19992999999999997  0.31510999999999995  0.90796  1.0000
  C   C354      1.0  0.19210000000000005  0.2626300000000001  0.9558399999999999  1.0000
  C   C355      1.0  0.22333000000000006  0.2365400000000001  0.9509999999999998  1.0000
  C   C356      1.0  0.26121000000000005  0.2644000000000001  0.8968299999999999  1.0000
  C   C357      1.0  0.26890000000000003  0.31685000000000013  0.8488099999999998  1.0000
  C   C358      1.0  0.23911000000000004  0.34347  0.85322  1.0000
  C   C359      1.0  0.9743200000000002  0.28779  0.16297  1.0000
  C   C360      1.0  0.9297200000000002  0.24785999999999989  0.155  1.0000
  C   C361      1.0  0.8723500000000003  0.22103000000000003  0.18635999999999997  1.0000
  C   C362      1.0  0.86199  0.23642999999999992  0.2249  1.0000
  C   C363      1.0  0.90666  0.27659999999999996  0.2328  1.0000
  C   C364      1.0  0.9632400000000002  0.3026399999999999  0.20271  1.0000
  C   C365      1.0  0.75642  0.07888  0.11864999999999999  1.0000
  C   C366      1.0  0.72589  0.06759000000000001  0.16956  1.0000
  C   C367      1.0  0.66803  0.022359999999999994  0.19827999999999998  1.0000
  C   C368      1.0  0.6400600000000001  0.98729  0.17699999999999994  1.0000
  C   C369      1.0  0.6704199999999999  0.9984299999999998  0.12606  1.0000
  C   C370      1.0  0.72829  0.04431000000000001  0.09695999999999999  1.0000
  C   C371      1.0  0.81898  0.12615  0.08819999999999999  1.0000
  C   C372      1.0  0.57815  0.9391099999999999  0.20906  1.0000
  C   C373      1.0  0.20952000000000007  0.99014  0.20402  1.0000
  C   C374      1.0  0.15419999999999995  0.9682099999999999  0.23631  1.0000
  C   C375      1.0  0.13056000000000004  0.0025100000000000066  0.21549  1.0000
  C   C376      1.0  0.16162  0.05853999999999999  0.16172  1.0000
  C   C377      1.0  0.21689  0.0805  0.12946  1.0000
  C   C378      1.0  0.24091000000000007  0.04663  0.15065  1.0000
  C   C379      1.0  0.23315999999999995  0.9516399999999998  0.22668  1.0000
  C   C380      1.0  0.13527000000000003  0.09416000000000001  0.1398  1.0000
  C   C381      1.0  0.20478  0.58748  0.34953999999999996  1.0000
  C   C382      1.0  0.20253  0.58046  0.40241  1.0000
  C   C383      1.0  0.17156  0.52126  0.45352  1.0000
  C   C384      1.0  0.14315000000000005  0.47055000000000013  0.44927999999999996  1.0000
  C   C385      1.0  0.14521999999999993  0.47755999999999993  0.39628  1.0000
  C   C386      1.0  0.17591  0.5356  0.34568  1.0000
  C   C387      1.0  0.41164  0.9837599999999999  0.20423999999999998  1.0000
  C   C388      1.0  0.45877  0.97814  0.20361  1.0000
  C   C389      1.0  0.51369  0.03056  0.18256  1.0000
  C   C390      1.0  0.51878  0.08719  0.1623  1.0000
  C   C391      1.0  0.47145  0.09273000000000002  0.16227  1.0000
  C   C392      1.0  0.41731  0.04146999999999999  0.18306  1.0000
  C   C393      1.0  0.24029999999999993  0.7964299999999999  0.16685  1.0000
  C   C394      1.0  0.23993999999999993  0.8417999999999999  0.17541  1.0000
  C   C395      1.0  0.22023000000000006  0.87791  0.14484  1.0000
  C   C396      1.0  0.20173999999999995  0.8669199999999999  0.10585999999999997  1.0000
  C   C397      1.0  0.2018999999999999  0.8212399999999997  0.09741999999999999  1.0000
  C   C398      1.0  0.22068999999999997  0.7850999999999999  0.12767  1.0000
  C   C399      1.0  0.38722  0.7320099999999999  0.42156  1.0000
  C   C400      1.0  0.43914999999999993  0.7821599999999999  0.37426999999999994  1.0000
  C   C401      1.0  0.4914800000000001  0.80318  0.37986  1.0000
  C   C402      1.0  0.4897399999999999  0.7711699999999997  0.43379  1.0000
  C   C403      1.0  0.4378  0.7201299999999999  0.48116  1.0000
  C   C404      1.0  0.3859100000000001  0.6998900000000001  0.47629  1.0000
  C   C405      1.0  0.22326  0.81534  0.3842  1.0000
  C   C406      1.0  0.2186799999999999  0.7628799999999997  0.42885  1.0000
  C   C407      1.0  0.18787999999999996  0.7367899999999998  0.48621  1.0000
  C   C408      1.0  0.16161999999999993  0.7645999999999996  0.49634999999999996  1.0000
  C   C409      1.0  0.16599999999999993  0.8170299999999998  0.45162  1.0000
  C   C410      1.0  0.19693000000000005  0.8436700000000001  0.39513  1.0000
  C   C411      1.0  0.4509199999999999  0.7880799999999998  0.18650999999999998  1.0000
  C   C412      1.0  0.40308  0.74817  0.18176999999999996  1.0000
  C   C413      1.0  0.4076700000000001  0.7213099999999999  0.15127  1.0000
  C   C414      1.0  0.4616100000000002  0.7366499999999999  0.12563  1.0000
  C   C415      1.0  0.5096300000000002  0.77684  0.13019  1.0000
  C   C416      1.0  0.50552  0.8029199999999999  0.16067  1.0000
  N   N1        1.0  0.40362000000000003  0.3732700000000001  0.7354799999999999  1.0000
  N   N2        1.0  0.42258000000000007  0.40790000000000004  0.7570099999999998  1.0000
  N   N3        1.0  0.56026  0.40636  0.86455  1.0000
  N   N4        1.0  0.41090000000000004  0.45175999999999994  0.7389899999999999  1.0000
  N   N5        1.0  0.50403  0.3763799999999998  0.88151  1.0000
  N   N6        1.0  0.4779899999999999  0.33495999999999976  0.93781  1.0000
  N   N7        1.0  0.57913  0.52214  0.7615799999999999  1.0000
  N   N8        1.0  0.5233300000000002  0.49402  0.7748599999999999  1.0000
  N   N9        1.0  0.50823  0.53503  0.76243  1.0000
  N   N10       1.0  0.37615000000000015  0.24602000000000004  0.9261  1.0000
  N   N11       1.0  0.3977700000000001  0.2848800000000001  0.86971  1.0000
  N   N12       1.0  0.37964  0.25340000000000007  0.84533  1.0000
  N   N13       1.0  0.57273  0.40956  0.75517  1.0000
  N   N14       1.0  0.5167799999999999  0.38211999999999985  0.7691799999999999  1.0000
  N   N15       1.0  0.49847  0.3474899999999999  0.74764  1.0000
  N   N16       1.0  0.37388000000000005  0.35002000000000005  0.93153  1.0000
  N   N17       1.0  0.40254  0.39198  0.87567  1.0000
  N   N18       1.0  0.38626000000000016  0.4318100000000001  0.8572099999999999  1.0000
  N   N19       1.0  0.10916999999999992  0.8733399999999999  0.53039  1.0000
  N   N20       1.0  0.1653200000000001  0.90795  0.51468  1.0000
  N   N21       1.0  0.27136999999999994  0.9065099999999999  0.65381  1.0000
  N   N22       1.0  0.19114  0.95182  0.4591  1.0000
  N   N23       1.0  0.25826999999999994  0.8763999999999998  0.62769  1.0000
  N   N24       1.0  0.27300999999999986  0.8348799999999998  0.64325  1.0000
  N   N25       1.0  0.28429000000000015  0.02256999999999999  0.5567  1.0000
  N   N26       1.0  0.2695000000000001  0.9944100000000001  0.52904  1.0000
  N   N27       1.0  0.29805  0.035410000000000046  0.47287999999999997  1.0000
  N   N28       1.0  0.17215999999999992  0.7459799999999999  0.63035  1.0000
  N   N29       1.0  0.15472  0.78489  0.61307  1.0000
  N   N30       1.0  0.09886000000000005  0.75345  0.62639  1.0000
  N   N31       1.0  0.16515  0.9097599999999999  0.66306  1.0000
  N   N32       1.0  0.15182  0.88235  0.6345  1.0000
  N   N33       1.0  0.09568000000000006  0.84769  0.65078  1.0000
  N   N34       1.0  0.2817200000000001  0.8499800000000001  0.52407  1.0000
  N   N35       1.0  0.26784999999999987  0.8919399999999997  0.51077  1.0000
  N   N36       1.0  0.28924999999999995  0.9318299999999999  0.45462999999999987  1.0000
  N   N37       1.0  0.8908400000000001  0.12667  0.4696  1.0000
  N   N38       1.0  0.83469  0.09206  0.48532  1.0000
  N   N39       1.0  0.72864  0.09349999999999997  0.34618  1.0000
  N   N40       1.0  0.80887  0.048190000000000004  0.54089  1.0000
  N   N41       1.0  0.74174  0.12360999999999998  0.3723099999999999  1.0000
  N   N42       1.0  0.7269900000000002  0.16512999999999994  0.35675  1.0000
  N   N43       1.0  0.7157200000000001  0.97744  0.44328999999999996  1.0000
  N   N44       1.0  0.73051  0.005599999999999992  0.47095  1.0000
  N   N45       1.0  0.70196  0.9645999999999996  0.52712  1.0000
  N   N46       1.0  0.82785  0.2540299999999999  0.36963999999999997  1.0000
  N   N47       1.0  0.84529  0.21511999999999998  0.38693  1.0000
  N   N48       1.0  0.90115  0.24655999999999997  0.3736  1.0000
  N   N49       1.0  0.83486  0.09025000000000001  0.33694  1.0000
  N   N50       1.0  0.8481899999999998  0.11765000000000003  0.36549999999999994  1.0000
  N   N51       1.0  0.9043300000000001  0.15232000000000004  0.34922  1.0000
  N   N52       1.0  0.7182800000000001  0.15002999999999997  0.47592  1.0000
  N   N53       1.0  0.73216  0.10805999999999998  0.48923  1.0000
  N   N54       1.0  0.71076  0.06817999999999999  0.54537  1.0000
  N   N55       1.0  0.5963900000000001  0.62674  0.26451  1.0000
  N   N56       1.0  0.57743  0.59211  0.24298999999999998  1.0000
  N   N57       1.0  0.43975  0.59365  0.13545  1.0000
  N   N58       1.0  0.5891100000000001  0.5482499999999998  0.261  1.0000
  N   N59       1.0  0.49598  0.62363  0.11848999999999997  1.0000
  N   N60       1.0  0.5220199999999998  0.66505  0.062179999999999985  1.0000
  N   N61       1.0  0.42088  0.47787  0.23842  1.0000
  N   N62       1.0  0.47667  0.50599  0.22513  1.0000
  N   N63       1.0  0.4917700000000001  0.46497  0.23756  1.0000
  N   N64       1.0  0.62385  0.7539899999999999  0.0739  1.0000
  N   N65       1.0  0.60224  0.71513  0.13029  1.0000
  N   N66       1.0  0.6203700000000001  0.7466100000000001  0.15467  1.0000
  N   N67       1.0  0.42727  0.59045  0.24482999999999996  1.0000
  N   N68       1.0  0.48323  0.61789  0.23082  1.0000
  N   N69       1.0  0.50153  0.65252  0.25235  1.0000
  N   N70       1.0  0.62612  0.64999  0.06846  1.0000
  N   N71       1.0  0.59746  0.60803  0.12432999999999998  1.0000
  N   N72       1.0  0.6137400000000002  0.5681999999999998  0.14278  1.0000
  N   N73       1.0  0.76435  0.36079000000000006  0.609  1.0000
  N   N74       1.0  0.74277  0.32029  0.66518  1.0000
  N   N75       1.0  0.63523  0.07476  0.77145  1.0000
  N   N76       1.0  0.76077  0.34999  0.69103  1.0000
  N   N77       1.0  0.61826  0.11402000000000002  0.75832  1.0000
  N   N78       1.0  0.562  0.08377000000000004  0.7730299999999999  1.0000
  N   N79       1.0  0.73833  0.15893000000000015  0.7844099999999998  1.0000
  N   N80       1.0  0.72492  0.20134000000000002  0.76955  1.0000
  N   N81       1.0  0.73742  0.22906000000000004  0.79797  1.0000
  N   N82       1.0  0.5740500000000002  0.19764000000000004  0.672  1.0000
  N   N83       1.0  0.6304100000000002  0.23241000000000006  0.65447  1.0000
  N   N84       1.0  0.65477  0.27497999999999995  0.59858  1.0000
  N   N85       1.0  0.7446700000000002  0.17180000000000004  0.6654  1.0000
  N   N86       1.0  0.73064  0.21373  0.65206  1.0000
  N   N87       1.0  0.7521000000000002  0.2536199999999999  0.59589  1.0000
  N   N88       1.0  0.56832  0.19414999999999996  0.78167  1.0000
  N   N89       1.0  0.6241700000000001  0.2213800000000001  0.7678099999999999  1.0000
  N   N90       1.0  0.64258  0.2561  0.7891999999999999  1.0000
  N   N91       1.0  0.96977  0.86084  0.9034699999999999  1.0000
  N   N92       1.0  0.9853600000000001  0.8203000000000001  0.92246  1.0000
  N   N93       1.0  0.84597  0.5751  0.06036  1.0000
  N   N94       1.0  0.04088999999999994  0.8499299999999999  0.91085  1.0000
  N   N95       1.0  0.87217  0.6143299999999999  0.0041  1.0000
  N   N96       1.0  0.85676  0.5840399999999999  0.97811  1.0000
  N   N97       1.0  0.9428200000000001  0.6590899999999997  0.07934  1.0000
  N   N98       1.0  0.97048  0.70157  0.0235  1.0000
  N   N99       1.0  0.02658999999999992  0.7290899999999999  0.00836  1.0000
  N   N100      1.0  0.86978  0.69779  0.87616  1.0000
  N   N101      1.0  0.8870499999999999  0.7325699999999997  0.8977399999999999  1.0000
  N   N102      1.0  0.8737  0.7750800000000001  0.8795799999999999  1.0000
  N   N103      1.0  0.83678  0.6720299999999999  0.07279  1.0000
  N   N104      1.0  0.8654  0.71398  0.01681  1.0000
  N   N105      1.0  0.8491699999999996  0.7538799999999996  0.9984  1.0000
  N   N106      1.0  0.9760399999999996  0.69436  0.87403  1.0000
  N   N107      1.0  0.9893100000000001  0.72155  0.90269  1.0000
  N   N108      1.0  0.04541000000000003  0.75633  0.8863899999999999  1.0000
  N   N109      1.0  0.03024000000000001  0.13917  0.09651999999999998  1.0000
  N   N110      1.0  0.014650000000000015  0.17971  0.07754  1.0000
  N   N111      1.0  0.15404000000000004  0.42491000000000007  0.93963  1.0000
  N   N112      1.0  0.9591199999999999  0.15008  0.08914999999999998  1.0000
  N   N113      1.0  0.12784  0.38567  0.9959  1.0000
  N   N114      1.0  0.14324  0.4159699999999999  0.02189  1.0000
  N   N115      1.0  0.05719000000000004  0.34092000000000006  0.92066  1.0000
  N   N116      1.0  0.029530000000000042  0.29844000000000004  0.9765  1.0000
  N   N117      1.0  0.97342  0.27091999999999994  0.99163  1.0000
  N   N118      1.0  0.13023  0.30222  0.12384  1.0000
  N   N119      1.0  0.11296000000000003  0.26743  0.10226  1.0000
  N   N120      1.0  0.12631  0.22492999999999996  0.12042  1.0000
  N   N121      1.0  0.16322999999999993  0.3279799999999998  0.9272  1.0000
  N   N122      1.0  0.1346100000000001  0.28602000000000005  0.9831899999999998  1.0000
  N   N123      1.0  0.15084  0.24611999999999998  0.00159  1.0000
  N   N124      1.0  0.02396  0.30565  0.12596  1.0000
  N   N125      1.0  0.010699999999999954  0.2784599999999999  0.0973  1.0000
  N   N126      1.0  0.9546000000000002  0.24368  0.1136  1.0000
  N   N127      1.0  0.23565  0.63922  0.391  1.0000
  N   N128      1.0  0.25722999999999996  0.6797199999999999  0.33482  1.0000
  N   N129      1.0  0.3647799999999999  0.9252499999999998  0.22854  1.0000
  N   N130      1.0  0.23924  0.65002  0.30896  1.0000
  N   N131      1.0  0.38175  0.88598  0.24167  1.0000
  N   N132      1.0  0.43801  0.91624  0.22696  1.0000
  N   N133      1.0  0.26167999999999997  0.8410799999999998  0.21559  1.0000
  N   N134      1.0  0.27509000000000006  0.79867  0.23044999999999996  1.0000
  N   N135      1.0  0.26258999999999993  0.7709399999999997  0.20201999999999995  1.0000
  N   N136      1.0  0.42596000000000006  0.8023700000000001  0.328  1.0000
  N   N137      1.0  0.3695899999999999  0.7675999999999998  0.34553  1.0000
  N   N138      1.0  0.34524  0.72503  0.40141999999999994  1.0000
  N   N139      1.0  0.25534  0.82821  0.3346  1.0000
  N   N140      1.0  0.26937  0.7862799999999998  0.34794  1.0000
  N   N141      1.0  0.24791  0.74639  0.4040999999999999  1.0000
  N   N142      1.0  0.4316900000000001  0.8058499999999998  0.21832999999999994  1.0000
  N   N143      1.0  0.37584  0.77863  0.23219  1.0000
  N   N144      1.0  0.3574299999999999  0.7439099999999997  0.21078999999999998  1.0000
  O   O1        1.0  0.29051  0.11018999999999998  0.34685  1.0000
  O   O2        1.0  0.31147  0.04431000000000003  0.34176999999999996  1.0000
  O   O3        1.0  0.35456  0.25867  0.052289999999999996  1.0000
  O   O4        1.0  0.37961  0.19494  0.05082999999999999  1.0000
  O   O5        1.0  0.6880499999999999  0.5141800000000001  0.7857799999999998  1.0000
  O   O6        1.0  0.69513  0.52743  0.70157  1.0000
  O   O7        1.0  0.9795699999999998  0.7498899999999995  0.66252  1.0000
  O   O8        1.0  0.9901400000000001  0.7401499999999999  0.58855  1.0000
  O   O9        1.0  0.45747  0.6104799999999998  0.6794999999999999  1.0000
  O   O10       1.0  0.38655000000000017  0.5445700000000001  0.76658  1.0000
  O   O11       1.0  0.31135  0.75902  0.59616  1.0000
  O   O12       1.0  0.24570999999999998  0.6944300000000001  0.68487  1.0000
  O   O13       1.0  0.2999200000000001  0.013940000000000022  0.67403  1.0000
  O   O14       1.0  0.22928  0.027620000000000016  0.66743  1.0000
  O   O15       1.0  0.41226999999999997  0.24953000000000003  0.72994  1.0000
  O   O16       1.0  0.3289800000000002  0.2407700000000001  0.7491199999999999  1.0000
  O   O17       1.0  0.54254  0.38953  0.32049  1.0000
  O   O18       1.0  0.61346  0.45542999999999995  0.23341999999999996  1.0000
  O   O19       1.0  0.6886600000000003  0.24099000000000004  0.40384  1.0000
  O   O20       1.0  0.7543  0.3055799999999999  0.31513  1.0000
  O   O21       1.0  0.70009  0.98607  0.32596  1.0000
  O   O22       1.0  0.7707299999999999  0.9723899999999998  0.33256  1.0000
  O   O23       1.0  0.5877399999999999  0.7504799999999998  0.27005  1.0000
  O   O24       1.0  0.67103  0.75924  0.25087  1.0000
  O   O25       1.0  0.7094900000000002  0.88982  0.65315  1.0000
  O   O26       1.0  0.68854  0.9556999999999999  0.65822  1.0000
  O   O27       1.0  0.64544  0.74133  0.9477099999999999  1.0000
  O   O28       1.0  0.6204  0.80507  0.94916  1.0000
  O   O29       1.0  0.31196  0.48583  0.21421  1.0000
  O   O30       1.0  0.3048800000000001  0.47258  0.29843  1.0000
  O   O31       1.0  0.02044000000000003  0.25012000000000006  0.33747999999999995  1.0000
  O   O32       1.0  0.009870000000000026  0.25986000000000004  0.4114499999999999  1.0000
  O   O33       1.0  0.15304999999999994  0.8627199999999999  0.95741  1.0000
  O   O34       1.0  0.15796999999999997  0.8468099999999998  0.88637  1.0000
  O   O35       1.0  0.44768  0.09269000000000001  0.81118  1.0000
  O   O36       1.0  0.4489000000000001  0.06924000000000008  0.7458499999999999  1.0000
  O   O37       1.0  0.71413  0.025940000000000005  0.79996  1.0000
  O   O38       1.0  0.79853  0.10332999999999996  0.72938  1.0000
  O   O39       1.0  0.8373099999999999  0.8578299999999999  0.9124899999999999  1.0000
  O   O40       1.0  0.91138  0.92117  0.82885  1.0000
  O   O41       1.0  0.8197200000000001  0.36250999999999994  0.79041  1.0000
  O   O42       1.0  0.73298  0.34691000000000005  0.81131  1.0000
  O   O43       1.0  0.9037799999999999  0.593  0.85482  1.0000
  O   O44       1.0  0.8149300000000002  0.56936  0.87938  1.0000
  O   O45       1.0  0.8262099999999999  0.5261199999999999  0.18807  1.0000
  O   O46       1.0  0.8316899999999999  0.60294  0.19519  1.0000
  O   O47       1.0  0.7711400000000002  0.35851000000000005  0.47939999999999994  1.0000
  O   O48       1.0  0.74995  0.42124000000000006  0.49020999999999987  1.0000
  O   O49       1.0  0.18028  0.6375  0.20959  1.0000
  O   O50       1.0  0.2670299999999999  0.6530999999999998  0.18869  1.0000
  O   O51       1.0  0.09622999999999995  0.40700999999999987  0.14518  1.0000
  O   O52       1.0  0.18507  0.43065  0.12061999999999999  1.0000
  O   O53       1.0  0.17380000000000018  0.47389000000000014  0.8119299999999998  1.0000
  O   O54       1.0  0.16832  0.39707  0.8048099999999999  1.0000
  O   O55       1.0  0.22887  0.6415  0.5206  1.0000
  O   O56       1.0  0.2500599999999999  0.5787699999999998  0.50979  1.0000
  O   O57       1.0  0.84696  0.13728999999999997  0.04257999999999999  1.0000
  O   O58       1.0  0.84204  0.15319999999999995  0.11362  1.0000
  O   O59       1.0  0.55233  0.90732  0.18881  1.0000
  O   O60       1.0  0.55111  0.93077  0.25415  1.0000
  O   O61       1.0  0.2858800000000001  0.97407  0.20002999999999999  1.0000
  O   O62       1.0  0.20148  0.89668  0.27061  1.0000
  O   O63       1.0  0.1627  0.14218  0.0875  1.0000
  O   O64       1.0  0.08863  0.07882999999999998  0.17114999999999997  1.0000
