data_image0
_chemical_formula_structural       Cu36H144W6C192S24I24N144
_chemical_formula_sum              "Cu36 H144 W6 C192 S24 I24 N144"
_cell_length_a       26.40949
_cell_length_b       26.40969
_cell_length_c       26.40975
_cell_angle_alpha    109.47463
_cell_angle_beta     109.47295
_cell_angle_gamma    109.47298999999998

_symmetry_space_group_name_H-M    'P 1'
_symmetry_Int_Tables_number       1

loop_
  _symmetry_equiv_pos_as_xyz
  'x,y,z'

loop_
  _atom_site_type_symbol
  _atom_site_label
  _atom_site_symmetry_multiplicity
  _atom_site_fract_x
  _atom_site_fract_y
  _atom_site_fract_z
  _atom_site_occupancy
  Cu  Cu1       1.0  0.79913  0.12502  0.06647000000000002  1.0000
  Cu  Cu2       1.0  0.70082  0.7673300000000001  0.32589000000000007  1.0000
  Cu  Cu3       1.0  0.55856  0.73261  0.43351  1.0000
  Cu  Cu4       1.0  0.94147  0.37499  0.17406  1.0000
  Cu  Cu5       1.0  0.32589  0.20082  0.26732  1.0000
  Cu  Cu6       1.0  0.06647  0.29913  0.62502  1.0000
  Cu  Cu7       1.0  0.17406000000000008  0.44148  0.8749900000000003  1.0000
  Cu  Cu8       1.0  0.43351  0.058559999999999994  0.23261  1.0000
  Cu  Cu9       1.0  0.87499  0.6740699999999998  0.94147  1.0000
  Cu  Cu10      1.0  0.23260999999999998  0.9335099999999997  0.5585600000000001  1.0000
  Cu  Cu11      1.0  0.26733  0.82589  0.70082  1.0000
  Cu  Cu12      1.0  0.6250199999999999  0.56647  0.79913  1.0000
  Cu  Cu13      1.0  0.2008200000000001  0.32589000000000007  0.7673300000000001  1.0000
  Cu  Cu14      1.0  0.29913  0.06647000000000002  0.12502000000000002  1.0000
  Cu  Cu15      1.0  0.44147  0.17405999999999994  0.37499  1.0000
  Cu  Cu16      1.0  0.05856000000000005  0.43351  0.7326100000000001  1.0000
  Cu  Cu17      1.0  0.67406  0.8749899999999999  0.44147  1.0000
  Cu  Cu18      1.0  0.9335099999999998  0.23261  0.05856  1.0000
  Cu  Cu19      1.0  0.8258899999999999  0.26732  0.20082000000000003  1.0000
  Cu  Cu20      1.0  0.56647  0.62502  0.29913  1.0000
  Cu  Cu21      1.0  0.12501999999999994  0.7991299999999999  0.56647  1.0000
  Cu  Cu22      1.0  0.76733  0.70083  0.82588  1.0000
  Cu  Cu23      1.0  0.7326100000000001  0.55857  0.93351  1.0000
  Cu  Cu24      1.0  0.3749899999999999  0.9414799999999998  0.67406  1.0000
  Cu  Cu25      1.0  0.9629  0.24995  0.21284  1.0000
  Cu  Cu26      1.0  0.53708  0.75001  0.28712  1.0000
  Cu  Cu27      1.0  0.28711  0.03708000000000001  0.25001  1.0000
  Cu  Cu28      1.0  0.2128500000000001  0.46290000000000003  0.7499500000000002  1.0000
  Cu  Cu29      1.0  0.74995  0.71284  0.96289  1.0000
  Cu  Cu30      1.0  0.25001  0.78712  0.53708  1.0000
  Cu  Cu31      1.0  0.03708000000000002  0.28712  0.7500100000000001  1.0000
  Cu  Cu32      1.0  0.46290000000000003  0.21283999999999995  0.24995000000000003  1.0000
  Cu  Cu33      1.0  0.71284  0.7499499999999998  0.4628900000000001  1.0000
  Cu  Cu34      1.0  0.78711  0.25001  0.03707  1.0000
  Cu  Cu35      1.0  0.24995000000000014  0.9629000000000002  0.7128400000000003  1.0000
  Cu  Cu36      1.0  0.75001  0.53708  0.7871200000000003  1.0000
  H   H1        1.0  0.67573  0.10075  0.09071000000000001  1.0000
  H   H2        1.0  0.69144  0.05399000000000003  0.9293800000000001  1.0000
  H   H3        1.0  0.56617  0.0043100000000000725  0.8934200000000001  1.0000
  H   H4        1.0  0.049749999999999975  0.40037000000000006  0.32555000000000006  1.0000
  H   H5        1.0  0.003389999999999983  0.23264999999999994  0.32982  1.0000
  H   H6        1.0  0.08044000000000003  0.33094999999999997  0.45091000000000003  1.0000
  H   H7        1.0  0.82431  0.9149799999999999  0.42504000000000003  1.0000
  H   H8        1.0  0.80846  0.73787  0.36249000000000003  1.0000
  H   H9        1.0  0.93381  0.82721  0.43812  1.0000
  H   H10       1.0  0.4502100000000001  0.77581  0.35067000000000004  1.0000
  H   H11       1.0  0.49654999999999994  0.8264499999999998  0.22928000000000004  1.0000
  H   H12       1.0  0.41954  0.8704899999999999  0.25049  1.0000
  H   H13       1.0  0.51007  0.5849900000000001  0.40937  1.0000
  H   H14       1.0  0.62461  0.7620800000000001  0.5706100000000001  1.0000
  H   H15       1.0  0.61095  0.67287  0.60665  1.0000
  H   H16       1.0  0.57485  0.72421  0.17446  1.0000
  H   H17       1.0  0.40282  0.6735399999999998  0.17008  1.0000
  H   H18       1.0  0.38005  0.62953  0.04907000000000001  1.0000
  H   H19       1.0  0.98998  0.39927  0.07492000000000001  1.0000
  H   H20       1.0  0.8754099999999997  0.44601  0.13746  1.0000
  H   H21       1.0  0.88909  0.49571  0.06186  1.0000
  H   H22       1.0  0.92523  0.09957  0.14937000000000003  1.0000
  H   H23       1.0  0.09716999999999998  0.2673  0.27072  1.0000
  H   H24       1.0  0.12004000000000001  0.16913999999999998  0.24955  1.0000
  H   H25       1.0  0.42503999999999986  0.32430999999999993  0.41497  1.0000
  H   H26       1.0  0.3624899999999999  0.3084599999999999  0.23787  1.0000
  H   H27       1.0  0.43812  0.43381  0.32721  1.0000
  H   H28       1.0  0.35068  0.9502100000000001  0.27581000000000006  1.0000
  H   H29       1.0  0.22928000000000007  0.99655  0.32645  1.0000
  H   H30       1.0  0.2505  0.91954  0.37049  1.0000
  H   H31       1.0  0.09070999999999999  0.17573  0.60075  1.0000
  H   H32       1.0  0.9293899999999999  0.19143999999999994  0.55399  1.0000
  H   H33       1.0  0.8934199999999999  0.06617000000000008  0.5043100000000001  1.0000
  H   H34       1.0  0.32554999999999995  0.54975  0.9003800000000001  1.0000
  H   H35       1.0  0.32982  0.50339  0.7326400000000001  1.0000
  H   H36       1.0  0.45092  0.58045  0.83095  1.0000
  H   H37       1.0  0.07492000000000003  0.48997999999999997  0.8992700000000002  1.0000
  H   H38       1.0  0.13745999999999997  0.37541  0.94601  1.0000
  H   H39       1.0  0.06187000000000004  0.38909  0.99571  1.0000
  H   H40       1.0  0.1493700000000001  0.42523000000000005  0.5995700000000002  1.0000
  H   H41       1.0  0.27073  0.59718  0.7673  1.0000
  H   H42       1.0  0.2495499999999999  0.6200399999999998  0.66914  1.0000
  H   H43       1.0  0.40938  0.010069999999999999  0.08499  1.0000
  H   H44       1.0  0.57061  0.12461  0.26207  1.0000
  H   H45       1.0  0.6066499999999999  0.11095  0.17286  1.0000
  H   H46       1.0  0.17447000000000001  0.07486000000000001  0.22421000000000002  1.0000
  H   H47       1.0  0.17009000000000002  0.90282  0.17354000000000003  1.0000
  H   H48       1.0  0.04906999999999991  0.8800399999999998  0.12953  1.0000
  H   H49       1.0  0.89927  0.57492  0.98997  1.0000
  H   H50       1.0  0.94601  0.63746  0.87541  1.0000
  H   H51       1.0  0.99572  0.5618699999999999  0.8890900000000002  1.0000
  H   H52       1.0  0.59957  0.6493699999999998  0.92523  1.0000
  H   H53       1.0  0.7672999999999999  0.77072  0.09717  1.0000
  H   H54       1.0  0.6691499999999999  0.74956  0.12004  1.0000
  H   H55       1.0  0.08498999999999991  0.90938  0.51007  1.0000
  H   H56       1.0  0.26207  0.07060999999999999  0.62461  1.0000
  H   H57       1.0  0.17287000000000008  0.10666000000000006  0.6109600000000001  1.0000
  H   H58       1.0  0.22420999999999988  0.6744699999999999  0.5748500000000001  1.0000
  H   H59       1.0  0.17354  0.6700899999999999  0.40282000000000007  1.0000
  H   H60       1.0  0.12952999999999998  0.5490699999999998  0.38004  1.0000
  H   H61       1.0  0.41498  0.92505  0.8243100000000002  1.0000
  H   H62       1.0  0.23787000000000003  0.86249  0.80846  1.0000
  H   H63       1.0  0.32721  0.9381199999999998  0.93381  1.0000
  H   H64       1.0  0.27581  0.85067  0.45021000000000005  1.0000
  H   H65       1.0  0.32645  0.72929  0.49655000000000005  1.0000
  H   H66       1.0  0.3704900000000001  0.75049  0.41954000000000014  1.0000
  H   H67       1.0  0.60075  0.59071  0.67573  1.0000
  H   H68       1.0  0.55399  0.42938999999999994  0.69144  1.0000
  H   H69       1.0  0.50431  0.39342  0.5661700000000001  1.0000
  H   H70       1.0  0.90038  0.82555  0.049750000000000016  1.0000
  H   H71       1.0  0.73265  0.82981  0.0033900000000000002  1.0000
  H   H72       1.0  0.8309399999999999  0.95092  0.08044000000000001  1.0000
  H   H73       1.0  0.32431  0.42504999999999993  0.91497  1.0000
  H   H74       1.0  0.30846000000000007  0.36249000000000003  0.7378600000000001  1.0000
  H   H75       1.0  0.43380999999999986  0.43811999999999995  0.82721  1.0000
  H   H76       1.0  0.9502100000000001  0.35067000000000004  0.7758100000000001  1.0000
  H   H77       1.0  0.99655  0.22929000000000008  0.8264500000000001  1.0000
  H   H78       1.0  0.9195399999999998  0.2504999999999999  0.87049  1.0000
  H   H79       1.0  0.17573  0.09071  0.10075  1.0000
  H   H80       1.0  0.19143999999999997  0.92938  0.05399000000000002  1.0000
  H   H81       1.0  0.06616999999999995  0.8934199999999999  0.00431  1.0000
  H   H82       1.0  0.54975  0.32555999999999996  0.40037000000000006  1.0000
  H   H83       1.0  0.50339  0.32982  0.23265000000000002  1.0000
  H   H84       1.0  0.58044  0.45090999999999987  0.33094000000000007  1.0000
  H   H85       1.0  0.4899800000000001  0.07492000000000003  0.3992700000000001  1.0000
  H   H86       1.0  0.37541  0.13746000000000003  0.4460100000000001  1.0000
  H   H87       1.0  0.38909  0.06185999999999997  0.49571  1.0000
  H   H88       1.0  0.42523  0.14937  0.09957  1.0000
  H   H89       1.0  0.5971699999999999  0.27072999999999997  0.2673  1.0000
  H   H90       1.0  0.62004  0.24954999999999997  0.16914  1.0000
  H   H91       1.0  0.01007000000000002  0.40938  0.5849900000000001  1.0000
  H   H92       1.0  0.12461000000000004  0.57062  0.7620800000000001  1.0000
  H   H93       1.0  0.11095000000000005  0.6066500000000001  0.6728600000000001  1.0000
  H   H94       1.0  0.07485000000000003  0.17447000000000001  0.7242100000000001  1.0000
  H   H95       1.0  0.9028200000000001  0.17008999999999996  0.6735400000000001  1.0000
  H   H96       1.0  0.88005  0.049070000000000016  0.62953  1.0000
  H   H97       1.0  0.57492  0.8992699999999999  0.48997000000000007  1.0000
  H   H98       1.0  0.6374600000000001  0.9460100000000001  0.37541000000000013  1.0000
  H   H99       1.0  0.56187  0.99571  0.38909000000000005  1.0000
  H   H100      1.0  0.64937  0.59957  0.42522  1.0000
  H   H101      1.0  0.7707299999999999  0.7672999999999999  0.59718  1.0000
  H   H102      1.0  0.74955  0.6691399999999998  0.6200300000000001  1.0000
  H   H103      1.0  0.9093799999999999  0.08498999999999998  0.01007  1.0000
  H   H104      1.0  0.07060999999999998  0.26206999999999997  0.12461  1.0000
  H   H105      1.0  0.10665  0.17287  0.11095000000000002  1.0000
  H   H106      1.0  0.67447  0.22421  0.07486  1.0000
  H   H107      1.0  0.6700900000000001  0.17354000000000006  0.9028200000000002  1.0000
  H   H108      1.0  0.54907  0.12954  0.8800400000000002  1.0000
  H   H109      1.0  0.92504  0.41497  0.32431  1.0000
  H   H110      1.0  0.86249  0.23787  0.30846000000000007  1.0000
  H   H111      1.0  0.93812  0.32721000000000006  0.43380000000000013  1.0000
  H   H112      1.0  0.85068  0.27581  0.95021  1.0000
  H   H113      1.0  0.7292799999999999  0.32645  0.9965500000000002  1.0000
  H   H114      1.0  0.7505  0.37049  0.91954  1.0000
  H   H115      1.0  0.59071  0.60075  0.17573  1.0000
  H   H116      1.0  0.4293899999999999  0.55399  0.19144  1.0000
  H   H117      1.0  0.39342  0.5043099999999999  0.06617  1.0000
  H   H118      1.0  0.82555  0.90038  0.54975  1.0000
  H   H119      1.0  0.82982  0.7326499999999999  0.50339  1.0000
  H   H120      1.0  0.9509199999999999  0.8309499999999999  0.58044  1.0000
  H   H121      1.0  0.10074999999999996  0.6757299999999999  0.59071  1.0000
  H   H122      1.0  0.05399000000000004  0.69144  0.42939000000000005  1.0000
  H   H123      1.0  0.004309999999999972  0.56617  0.39341  1.0000
  H   H124      1.0  0.40038  0.04975  0.82555  1.0000
  H   H125      1.0  0.2326500000000001  0.0033900000000001325  0.8298100000000003  1.0000
  H   H126      1.0  0.33094  0.08044999999999998  0.95092  1.0000
  H   H127      1.0  0.9149800000000002  0.8243100000000001  0.9250400000000002  1.0000
  H   H128      1.0  0.73787  0.8084600000000001  0.8624900000000002  1.0000
  H   H129      1.0  0.82721  0.93381  0.9381200000000002  1.0000
  H   H130      1.0  0.77582  0.45020999999999994  0.85067  1.0000
  H   H131      1.0  0.8264500000000001  0.49655000000000005  0.7292800000000002  1.0000
  H   H132      1.0  0.87049  0.4195499999999999  0.7504900000000001  1.0000
  H   H133      1.0  0.5849900000000002  0.51007  0.9093800000000002  1.0000
  H   H134      1.0  0.7620699999999999  0.62461  0.07061  1.0000
  H   H135      1.0  0.67287  0.61096  0.10666  1.0000
  H   H136      1.0  0.7242099999999999  0.57486  0.67446  1.0000
  H   H137      1.0  0.67354  0.40283  0.6700900000000001  1.0000
  H   H138      1.0  0.62953  0.38003999999999993  0.5490700000000001  1.0000
  H   H139      1.0  0.39927000000000007  0.9899699999999999  0.57492  1.0000
  H   H140      1.0  0.44600999999999996  0.8754099999999999  0.63746  1.0000
  H   H141      1.0  0.49572  0.88909  0.56187  1.0000
  H   H142      1.0  0.09956999999999996  0.9252299999999999  0.64937  1.0000
  H   H143      1.0  0.2672999999999999  0.09716999999999992  0.77072  1.0000
  H   H144      1.0  0.16915000000000002  0.12004000000000004  0.7495600000000001  1.0000
  W   W1        1.0  0.87501  0.25  0.12499000000000002  1.0000
  W   W2        1.0  0.62499  0.75  0.37501  1.0000
  W   W3        1.0  0.37501  0.12499  0.25  1.0000
  W   W4        1.0  0.12499000000000009  0.3750100000000001  0.7500000000000001  1.0000
  W   W5        1.0  0.7500000000000001  0.62499  0.8750100000000001  1.0000
  W   W6        1.0  0.25000000000000006  0.8750099999999998  0.62499  1.0000
  C   C1        1.0  0.66477  0.08043  0.04275  1.0000
  C   C2        1.0  0.66919  0.05561000000000004  0.95721  1.0000
  C   C3        1.0  0.60759  0.03021000000000004  0.93846  1.0000
  C   C4        1.0  0.55028  0.02881000000000004  0.9967900000000001  1.0000
  C   C5        1.0  0.048100000000000004  0.36695  0.34123  1.0000
  C   C6        1.0  0.025269999999999987  0.2820799999999999  0.34703  1.0000
  C   C7        1.0  0.06416000000000002  0.32942000000000005  0.40671000000000007  1.0000
  C   C8        1.0  0.11733999999999997  0.44413  0.45345  1.0000
  C   C9        1.0  0.83522  0.8779399999999999  0.41566000000000003  1.0000
  C   C10       1.0  0.83076  0.78797  0.3863900000000001  1.0000
  C   C11       1.0  0.89237  0.8308  0.42257000000000006  1.0000
  C   C12       1.0  0.9497300000000001  0.9465000000000001  0.47853000000000007  1.0000
  C   C13       1.0  0.45186999999999994  0.79313  0.31889000000000006  1.0000
  C   C14       1.0  0.47469  0.8217700000000001  0.25684  1.0000
  C   C15       1.0  0.43580999999999986  0.8425699999999998  0.26527  1.0000
  C   C16       1.0  0.38266  0.83611  0.32679  1.0000
  C   C17       1.0  0.53772  0.62205  0.45730000000000004  1.0000
  C   C18       1.0  0.59841  0.712  0.54279  1.0000
  C   C19       1.0  0.59179  0.6692100000000001  0.5615900000000001  1.0000
  C   C20       1.0  0.5320400000000001  0.55352  0.5032500000000001  1.0000
  C   C21       1.0  0.52575  0.70688  0.15876  1.0000
  C   C22       1.0  0.43505999999999995  0.67823  0.15292  1.0000
  C   C23       1.0  0.42273999999999995  0.65745  0.09325  1.0000
  C   C24       1.0  0.4907  0.6638999999999999  0.04656  1.0000
  C   C25       1.0  0.96232  0.41957  0.08432000000000002  1.0000
  C   C26       1.0  0.90161  0.44439  0.11358000000000001  1.0000
  C   C27       1.0  0.90824  0.46981  0.07740000000000001  1.0000
  C   C28       1.0  0.9679800000000001  0.47121  0.021470000000000006  1.0000
  C   C29       1.0  0.9743  0.13303  0.18114000000000002  1.0000
  C   C30       1.0  0.06495000000000002  0.21790000000000004  0.24317000000000003  1.0000
  C   C31       1.0  0.07732000000000001  0.17059  0.23475000000000001  1.0000
  C   C32       1.0  0.00935  0.05588999999999999  0.17323000000000002  1.0000
  C   C33       1.0  0.4156599999999999  0.33522  0.3779300000000001  1.0000
  C   C34       1.0  0.38639  0.33076  0.28797000000000006  1.0000
  C   C35       1.0  0.42257  0.39237  0.33079  1.0000
  C   C36       1.0  0.47853  0.44973  0.4465  1.0000
  C   C37       1.0  0.3188900000000001  0.9518700000000001  0.29313000000000006  1.0000
  C   C38       1.0  0.25684  0.9747  0.32177  1.0000
  C   C39       1.0  0.2652799999999999  0.9358099999999998  0.34257  1.0000
  C   C40       1.0  0.3267899999999999  0.8826599999999998  0.3361100000000001  1.0000
  C   C41       1.0  0.04274999999999999  0.16476999999999994  0.58043  1.0000
  C   C42       1.0  0.95722  0.16918  0.55561  1.0000
  C   C43       1.0  0.9384599999999998  0.10759  0.5302  1.0000
  C   C44       1.0  0.99679  0.05028000000000005  0.5288100000000001  1.0000
  C   C45       1.0  0.3412300000000001  0.5481000000000001  0.8669600000000002  1.0000
  C   C46       1.0  0.34703  0.52527  0.78207  1.0000
  C   C47       1.0  0.40671999999999997  0.56416  0.8294200000000003  1.0000
  C   C48       1.0  0.45345  0.61734  0.94413  1.0000
  C   C49       1.0  0.08432000000000005  0.46232000000000006  0.9195800000000001  1.0000
  C   C50       1.0  0.1135800000000001  0.40162000000000003  0.9443900000000001  1.0000
  C   C51       1.0  0.07739999999999998  0.40824999999999995  0.96981  1.0000
  C   C52       1.0  0.021480000000000037  0.46798000000000006  0.9712000000000001  1.0000
  C   C53       1.0  0.18113999999999997  0.4742999999999999  0.63302  1.0000
  C   C54       1.0  0.24317000000000005  0.56495  0.7179  1.0000
  C   C55       1.0  0.23475  0.57732  0.67059  1.0000
  C   C56       1.0  0.17323  0.50935  0.55589  1.0000
  C   C57       1.0  0.45731  0.03772  0.12205  1.0000
  C   C58       1.0  0.54279  0.09839999999999999  0.212  1.0000
  C   C59       1.0  0.56159  0.09178000000000001  0.16921000000000003  1.0000
  C   C60       1.0  0.50325  0.03204  0.05352  1.0000
  C   C61       1.0  0.15875999999999993  0.025759999999999988  0.20688  1.0000
  C   C62       1.0  0.15292000000000006  0.9350599999999999  0.17822  1.0000
  C   C63       1.0  0.09325  0.9227399999999998  0.15745000000000003  1.0000
  C   C64       1.0  0.04656  0.9907  0.1639  1.0000
  C   C65       1.0  0.9195799999999998  0.5843200000000001  0.9623200000000001  1.0000
  C   C66       1.0  0.94439  0.6135799999999999  0.90161  1.0000
  C   C67       1.0  0.96982  0.5774  0.9082400000000002  1.0000
  C   C68       1.0  0.9712099999999998  0.52148  0.96798  1.0000
  C   C69       1.0  0.6330299999999999  0.68114  0.9743  1.0000
  C   C70       1.0  0.7178999999999999  0.74317  0.06495  1.0000
  C   C71       1.0  0.6705899999999999  0.7347499999999999  0.07733  1.0000
  C   C72       1.0  0.55589  0.6732299999999999  0.00935  1.0000
  C   C73       1.0  0.1220499999999999  0.95731  0.5377100000000001  1.0000
  C   C74       1.0  0.212  0.04279000000000001  0.5984  1.0000
  C   C75       1.0  0.16921  0.061599999999999995  0.59178  1.0000
  C   C76       1.0  0.05351999999999997  0.003250000000000011  0.53204  1.0000
  C   C77       1.0  0.20688  0.65877  0.52575  1.0000
  C   C78       1.0  0.17822999999999997  0.6529199999999998  0.43506  1.0000
  C   C79       1.0  0.15744999999999992  0.5932599999999998  0.42273  1.0000
  C   C80       1.0  0.16390000000000002  0.54656  0.49069000000000007  1.0000
  C   C81       1.0  0.37794  0.91566  0.83522  1.0000
  C   C82       1.0  0.28797  0.88639  0.83076  1.0000
  C   C83       1.0  0.33080000000000004  0.9225800000000001  0.8923700000000001  1.0000
  C   C84       1.0  0.44650000000000006  0.9785300000000001  0.9497200000000001  1.0000
  C   C85       1.0  0.29313  0.8188899999999999  0.4518700000000001  1.0000
  C   C86       1.0  0.3217699999999999  0.7568399999999998  0.47470000000000007  1.0000
  C   C87       1.0  0.34257  0.76527  0.43581  1.0000
  C   C88       1.0  0.33611  0.82679  0.38266  1.0000
  C   C89       1.0  0.58043  0.54275  0.66477  1.0000
  C   C90       1.0  0.55561  0.45721999999999996  0.66918  1.0000
  C   C91       1.0  0.5302  0.43845000000000006  0.6075900000000001  1.0000
  C   C92       1.0  0.52881  0.49678999999999995  0.55028  1.0000
  C   C93       1.0  0.86695  0.84123  0.048100000000000004  1.0000
  C   C94       1.0  0.78208  0.84703  0.02526  1.0000
  C   C95       1.0  0.8294199999999999  0.9067099999999999  0.06416  1.0000
  C   C96       1.0  0.94413  0.95345  0.11734  1.0000
  C   C97       1.0  0.33522  0.41566000000000003  0.8779400000000002  1.0000
  C   C98       1.0  0.33076  0.38639  0.7879700000000001  1.0000
  C   C99       1.0  0.3923699999999999  0.42257  0.8307900000000001  1.0000
  C   C100      1.0  0.44973  0.4785299999999999  0.9465  1.0000
  C   C101      1.0  0.95187  0.31889000000000006  0.7931300000000001  1.0000
  C   C102      1.0  0.9747000000000001  0.25684  0.8217700000000002  1.0000
  C   C103      1.0  0.93581  0.2652799999999999  0.84257  1.0000
  C   C104      1.0  0.8826600000000001  0.3267900000000001  0.8361100000000002  1.0000
  C   C105      1.0  0.16477  0.04274999999999999  0.08043  1.0000
  C   C106      1.0  0.16917999999999986  0.95721  0.05561  1.0000
  C   C107      1.0  0.10758999999999994  0.93846  0.0302  1.0000
  C   C108      1.0  0.05027999999999994  0.99679  0.028800000000000003  1.0000
  C   C109      1.0  0.5481  0.34123  0.36695000000000005  1.0000
  C   C110      1.0  0.5252699999999999  0.3470299999999999  0.28208  1.0000
  C   C111      1.0  0.56416  0.40671  0.32942  1.0000
  C   C112      1.0  0.61734  0.45344999999999996  0.4441300000000001  1.0000
  C   C113      1.0  0.46232  0.08431999999999998  0.41957000000000005  1.0000
  C   C114      1.0  0.40161  0.11358  0.44439000000000006  1.0000
  C   C115      1.0  0.40823999999999994  0.07739999999999997  0.46981  1.0000
  C   C116      1.0  0.46798  0.021479999999999996  0.47121  1.0000
  C   C117      1.0  0.47429999999999994  0.18114  0.13302  1.0000
  C   C118      1.0  0.56495  0.24317  0.2179  1.0000
  C   C119      1.0  0.57732  0.23475000000000001  0.17059000000000002  1.0000
  C   C120      1.0  0.50935  0.17322999999999994  0.055890000000000016  1.0000
  C   C121      1.0  0.03772000000000004  0.45731  0.62204  1.0000
  C   C122      1.0  0.09840999999999997  0.54279  0.712  1.0000
  C   C123      1.0  0.09178999999999998  0.5616  0.66921  1.0000
  C   C124      1.0  0.03204000000000006  0.50325  0.5535200000000001  1.0000
  C   C125      1.0  0.025760000000000016  0.15877  0.70688  1.0000
  C   C126      1.0  0.93506  0.15292000000000003  0.67823  1.0000
  C   C127      1.0  0.92274  0.09325999999999998  0.6574500000000001  1.0000
  C   C128      1.0  0.9906999999999998  0.046559999999999935  0.6639  1.0000
  C   C129      1.0  0.5843200000000001  0.9195800000000002  0.4623200000000001  1.0000
  C   C130      1.0  0.61358  0.9443899999999998  0.40161000000000013  1.0000
  C   C131      1.0  0.5774  0.9698199999999999  0.4082400000000001  1.0000
  C   C132      1.0  0.52148  0.97121  0.46798  1.0000
  C   C133      1.0  0.68114  0.6330199999999998  0.4743  1.0000
  C   C134      1.0  0.7431699999999999  0.7179  0.56495  1.0000
  C   C135      1.0  0.73475  0.6705899999999999  0.57732  1.0000
  C   C136      1.0  0.6732299999999999  0.55589  0.5093500000000001  1.0000
  C   C137      1.0  0.9573100000000001  0.12204999999999999  0.037720000000000004  1.0000
  C   C138      1.0  0.04278999999999999  0.21199999999999997  0.0984  1.0000
  C   C139      1.0  0.06159  0.16921  0.09178  1.0000
  C   C140      1.0  0.003250000000000002  0.05352  0.03204  1.0000
  C   C141      1.0  0.65876  0.20688  0.02576  1.0000
  C   C142      1.0  0.65292  0.17823  0.9350600000000001  1.0000
  C   C143      1.0  0.59326  0.15744999999999992  0.92273  1.0000
  C   C144      1.0  0.5465600000000002  0.16390000000000013  0.9906900000000002  1.0000
  C   C145      1.0  0.91566  0.37794  0.33522  1.0000
  C   C146      1.0  0.88639  0.28797  0.33075  1.0000
  C   C147      1.0  0.92257  0.3307999999999999  0.39236  1.0000
  C   C148      1.0  0.9785299999999998  0.44649999999999995  0.44972  1.0000
  C   C149      1.0  0.81889  0.2931299999999999  0.95187  1.0000
  C   C150      1.0  0.7568400000000002  0.32177000000000006  0.9746900000000001  1.0000
  C   C151      1.0  0.76528  0.34257  0.93581  1.0000
  C   C152      1.0  0.8267900000000001  0.3361100000000001  0.8826600000000001  1.0000
  C   C153      1.0  0.54275  0.58043  0.16477  1.0000
  C   C154      1.0  0.45721  0.55561  0.16918  1.0000
  C   C155      1.0  0.43846  0.5302  0.10759  1.0000
  C   C156      1.0  0.49678999999999995  0.52881  0.05028  1.0000
  C   C157      1.0  0.84123  0.8669599999999998  0.5481  1.0000
  C   C158      1.0  0.84703  0.7820799999999998  0.52526  1.0000
  C   C159      1.0  0.90671  0.82942  0.56416  1.0000
  C   C160      1.0  0.95345  0.94413  0.6173400000000001  1.0000
  C   C161      1.0  0.08043000000000006  0.66477  0.5427400000000001  1.0000
  C   C162      1.0  0.05561000000000007  0.66919  0.45721000000000006  1.0000
  C   C163      1.0  0.030200000000000046  0.60759  0.43845  1.0000
  C   C164      1.0  0.02880999999999998  0.55028  0.49679000000000006  1.0000
  C   C165      1.0  0.36696000000000006  0.04810000000000012  0.8412300000000003  1.0000
  C   C166      1.0  0.28208000000000005  0.025270000000000084  0.8470300000000001  1.0000
  C   C167      1.0  0.32942  0.06416000000000006  0.9067100000000002  1.0000
  C   C168      1.0  0.44412999999999997  0.11734000000000003  0.95345  1.0000
  C   C169      1.0  0.87794  0.83522  0.91566  1.0000
  C   C170      1.0  0.78797  0.83076  0.88639  1.0000
  C   C171      1.0  0.8308  0.8923699999999999  0.92257  1.0000
  C   C172      1.0  0.9465000000000001  0.94973  0.9785300000000002  1.0000
  C   C173      1.0  0.79313  0.4518800000000001  0.8188900000000001  1.0000
  C   C174      1.0  0.8217699999999998  0.47469999999999996  0.75684  1.0000
  C   C175      1.0  0.84257  0.43581000000000003  0.7652700000000001  1.0000
  C   C176      1.0  0.8361099999999998  0.38265999999999994  0.82679  1.0000
  C   C177      1.0  0.62205  0.53772  0.95731  1.0000
  C   C178      1.0  0.7119999999999999  0.5984  0.042780000000000006  1.0000
  C   C179      1.0  0.6692100000000001  0.5917900000000001  0.0616  1.0000
  C   C180      1.0  0.5535199999999999  0.53204  0.00325  1.0000
  C   C181      1.0  0.70688  0.52576  0.65876  1.0000
  C   C182      1.0  0.6782300000000002  0.43506  0.65292  1.0000
  C   C183      1.0  0.65745  0.42273  0.5932500000000002  1.0000
  C   C184      1.0  0.6639  0.4907  0.5465600000000002  1.0000
  C   C185      1.0  0.41958000000000006  0.9623199999999997  0.5843200000000001  1.0000
  C   C186      1.0  0.44439  0.90162  0.61358  1.0000
  C   C187      1.0  0.4698200000000001  0.90824  0.5774000000000001  1.0000
  C   C188      1.0  0.47121  0.96798  0.52148  1.0000
  C   C189      1.0  0.13302999999999987  0.9742999999999999  0.68114  1.0000
  C   C190      1.0  0.2179000000000001  0.06495000000000013  0.7431700000000002  1.0000
  C   C191      1.0  0.17060000000000003  0.07733000000000011  0.7347500000000001  1.0000
  C   C192      1.0  0.05588999999999999  0.00935000000000001  0.67323  1.0000
  S   S1        1.0  0.85656  0.1937  0.17209  1.0000
  S   S2        1.0  0.6434299999999997  0.8155499999999999  0.33716  1.0000
  S   S3        1.0  0.52157  0.6844400000000002  0.32787000000000005  1.0000
  S   S4        1.0  0.9784299999999999  0.30631  0.16288000000000002  1.0000
  S   S5        1.0  0.33717  0.14344  0.31555  1.0000
  S   S6        1.0  0.17208999999999994  0.3565599999999999  0.6937  1.0000
  S   S7        1.0  0.16287999999999997  0.4784299999999999  0.80631  1.0000
  S   S8        1.0  0.32787  0.02158000000000002  0.18443000000000004  1.0000
  S   S9        1.0  0.8063200000000001  0.6628800000000001  0.9784200000000001  1.0000
  S   S10       1.0  0.18444000000000008  0.82788  0.52157  1.0000
  S   S11       1.0  0.31555  0.83717  0.64343  1.0000
  S   S12       1.0  0.6937000000000001  0.6720900000000001  0.8565600000000001  1.0000
  S   S13       1.0  0.14342999999999992  0.33715999999999996  0.81555  1.0000
  S   S14       1.0  0.35656  0.17209  0.19370000000000004  1.0000
  S   S15       1.0  0.47843  0.16288  0.30631  1.0000
  S   S16       1.0  0.02156999999999999  0.32786999999999994  0.68443  1.0000
  S   S17       1.0  0.6628800000000001  0.80632  0.47842000000000007  1.0000
  S   S18       1.0  0.82787  0.18443  0.02157  1.0000
  S   S19       1.0  0.83717  0.31555  0.14343  1.0000
  S   S20       1.0  0.6720899999999999  0.6937  0.35656  1.0000
  S   S21       1.0  0.19369999999999998  0.85656  0.67208  1.0000
  S   S22       1.0  0.8155500000000002  0.64344  0.8371600000000002  1.0000
  S   S23       1.0  0.6844399999999999  0.52158  0.82787  1.0000
  S   S24       1.0  0.30632  0.97843  0.66288  1.0000
  I   I1        1.0  0.81122  0.02742  0.029520000000000005  1.0000
  I   I2        1.0  0.6887599999999999  0.71831  0.2162  1.0000
  I   I3        1.0  0.49793000000000004  0.78169  0.47045  1.0000
  I   I4        1.0  0.0020999999999999817  0.4725699999999999  0.28381  1.0000
  I   I5        1.0  0.2162  0.18876  0.21831  1.0000
  I   I6        1.0  0.02952  0.31122  0.52742  1.0000
  I   I7        1.0  0.2838100000000002  0.5021000000000001  0.9725700000000003  1.0000
  I   I8        1.0  0.47045  0.99793  0.28169  1.0000
  I   I9        1.0  0.9725699999999999  0.78382  0.0021  1.0000
  I   I10       1.0  0.28168999999999994  0.9704499999999999  0.49792  1.0000
  I   I11       1.0  0.21831000000000003  0.7162  0.6887600000000001  1.0000
  I   I12       1.0  0.52742  0.5295300000000001  0.8112200000000003  1.0000
  I   I13       1.0  0.18876000000000004  0.21620000000000003  0.7183100000000001  1.0000
  I   I14       1.0  0.31122  0.02952  0.02742  1.0000
  I   I15       1.0  0.5021  0.28382  0.47257  1.0000
  I   I16       1.0  0.99793  0.47045  0.78168  1.0000
  I   I17       1.0  0.7838099999999999  0.97257  0.50209  1.0000
  I   I18       1.0  0.97045  0.28169  0.99793  1.0000
  I   I19       1.0  0.7162  0.21830999999999995  0.18876  1.0000
  I   I20       1.0  0.5295199999999998  0.5274199999999998  0.31122  1.0000
  I   I21       1.0  0.02741999999999995  0.81122  0.52952  1.0000
  I   I22       1.0  0.71831  0.68876  0.7162  1.0000
  I   I23       1.0  0.78169  0.49793  0.97045  1.0000
  I   I24       1.0  0.47257000000000005  0.002100000000000069  0.7838100000000001  1.0000
  N   N1        1.0  0.7041899999999999  0.08672999999999999  0.02195  1.0000
  N   N2        1.0  0.6044599999999999  0.04587000000000007  0.9931000000000001  1.0000
  N   N3        1.0  0.55723  0.05006  0.05380000000000001  1.0000
  N   N4        1.0  0.015349999999999996  0.30586  0.30688  1.0000
  N   N5        1.0  0.07905000000000001  0.38369  0.40314  1.0000
  N   N6        1.0  0.12846  0.4900499999999999  0.44015000000000004  1.0000
  N   N7        1.0  0.79577  0.81772  0.38253000000000004  1.0000
  N   N8        1.0  0.8955299999999999  0.8886000000000002  0.4413900000000001  1.0000
  N   N9        1.0  0.9428100000000001  0.99657  0.49286  1.0000
  N   N10       1.0  0.48461  0.79153  0.29053  1.0000
  N   N11       1.0  0.42093  0.82409  0.30465  1.0000
  N   N12       1.0  0.37154999999999994  0.8116899999999998  0.3615900000000001  1.0000
  N   N13       1.0  0.56479  0.68225  0.4780500000000001  1.0000
  N   N14       1.0  0.5528  0.61141  0.50695  1.0000
  N   N15       1.0  0.49628999999999995  0.50344  0.44624  1.0000
  N   N16       1.0  0.49898999999999993  0.7084699999999999  0.19309  1.0000
  N   N17       1.0  0.48058  0.67592  0.09685000000000002  1.0000
  N   N18       1.0  0.54993  0.68833  0.059890000000000006  1.0000
  N   N19       1.0  0.93523  0.4132700000000001  0.11744000000000002  1.0000
  N   N20       1.0  0.9472299999999999  0.4541399999999999  0.05859  1.0000
  N   N21       1.0  0.003719999999999993  0.44994999999999996  0.007150000000000001  1.0000
  N   N22       1.0  0.0010200000000000105  0.19411000000000003  0.20947000000000002  1.0000
  N   N23       1.0  0.019479999999999994  0.11631999999999999  0.19538  1.0000
  N   N24       1.0  0.9501199999999999  0.00997000000000001  0.13842000000000002  1.0000
  N   N25       1.0  0.38253  0.29577  0.31772  1.0000
  N   N26       1.0  0.44139  0.39552999999999994  0.38859  1.0000
  N   N27       1.0  0.49286  0.44281000000000004  0.49657000000000007  1.0000
  N   N28       1.0  0.2905399999999999  0.98461  0.29153  1.0000
  N   N29       1.0  0.30464999999999987  0.9209299999999999  0.32409  1.0000
  N   N30       1.0  0.36158999999999997  0.8715399999999999  0.31169  1.0000
  N   N31       1.0  0.02196  0.20419  0.58673  1.0000
  N   N32       1.0  0.9931000000000001  0.10446000000000004  0.5458700000000001  1.0000
  N   N33       1.0  0.053799999999999994  0.05723000000000001  0.55007  1.0000
  N   N34       1.0  0.30689000000000005  0.5153500000000001  0.8058600000000001  1.0000
  N   N35       1.0  0.40313999999999994  0.57906  0.88369  1.0000
  N   N36       1.0  0.44015  0.62846  0.9900500000000001  1.0000
  N   N37       1.0  0.11745000000000014  0.4352400000000001  0.9132700000000002  1.0000
  N   N38       1.0  0.0586  0.44722999999999996  0.9541400000000001  1.0000
  N   N39       1.0  0.007150000000000011  0.50373  0.94995  1.0000
  N   N40       1.0  0.20947  0.50103  0.69411  1.0000
  N   N41       1.0  0.19538000000000008  0.51948  0.61632  1.0000
  N   N42       1.0  0.13842  0.45013  0.50997  1.0000
  N   N43       1.0  0.4780499999999999  0.06479000000000001  0.18225000000000002  1.0000
  N   N44       1.0  0.50696  0.05280000000000001  0.11141000000000001  1.0000
  N   N45       1.0  0.44624  0.9962899999999999  0.0034400000000000008  1.0000
  N   N46       1.0  0.19308999999999998  0.99899  0.20846000000000006  1.0000
  N   N47       1.0  0.09685000000000002  0.98058  0.17592000000000002  1.0000
  N   N48       1.0  0.05989000000000001  0.04992000000000002  0.18833000000000005  1.0000
  N   N49       1.0  0.9132700000000001  0.61745  0.9352300000000001  1.0000
  N   N50       1.0  0.95415  0.5586  0.9472200000000002  1.0000
  N   N51       1.0  0.94995  0.50715  0.003720000000000001  1.0000
  N   N52       1.0  0.69411  0.70947  0.00102  1.0000
  N   N53       1.0  0.6163199999999999  0.69538  0.01948  1.0000
  N   N54       1.0  0.50997  0.63842  0.9501200000000001  1.0000
  N   N55       1.0  0.18225000000000002  0.97805  0.56479  1.0000
  N   N56       1.0  0.11141000000000002  0.006959999999999992  0.5528  1.0000
  N   N57       1.0  0.0034400000000001153  0.9462500000000003  0.49629000000000006  1.0000
  N   N58       1.0  0.20847  0.69309  0.49899  1.0000
  N   N59       1.0  0.17592  0.59685  0.4805800000000001  1.0000
  N   N60       1.0  0.18833000000000005  0.5598900000000001  0.5499200000000001  1.0000
  N   N61       1.0  0.31772  0.8825299999999999  0.79577  1.0000
  N   N62       1.0  0.3886  0.9413899999999997  0.8955200000000001  1.0000
  N   N63       1.0  0.4965700000000002  0.9928599999999999  0.9428000000000002  1.0000
  N   N64       1.0  0.29154  0.7905399999999999  0.48461000000000004  1.0000
  N   N65       1.0  0.32408999999999993  0.80465  0.42093  1.0000
  N   N66       1.0  0.31168999999999997  0.86159  0.37154  1.0000
  N   N67       1.0  0.58673  0.52196  0.70419  1.0000
  N   N68       1.0  0.54587  0.4931  0.60446  1.0000
  N   N69       1.0  0.55007  0.5538  0.55723  1.0000
  N   N70       1.0  0.80586  0.8068799999999998  0.01535  1.0000
  N   N71       1.0  0.88369  0.9031399999999999  0.07905  1.0000
  N   N72       1.0  0.9900499999999999  0.94015  0.12846  1.0000
  N   N73       1.0  0.29576999999999987  0.38253  0.81772  1.0000
  N   N74       1.0  0.39553  0.44139  0.8886  1.0000
  N   N75       1.0  0.44281000000000004  0.49285999999999996  0.9965700000000001  1.0000
  N   N76       1.0  0.9846099999999995  0.29054  0.79153  1.0000
  N   N77       1.0  0.92093  0.30465  0.8240900000000002  1.0000
  N   N78       1.0  0.87155  0.36159  0.81169  1.0000
  N   N79       1.0  0.20419  0.02195  0.08673  1.0000
  N   N80       1.0  0.10446  0.9931  0.04587000000000001  1.0000
  N   N81       1.0  0.05723  0.05380000000000001  0.05006000000000001  1.0000
  N   N82       1.0  0.5153500000000002  0.30688  0.30586  1.0000
  N   N83       1.0  0.57905  0.40314000000000005  0.38369000000000003  1.0000
  N   N84       1.0  0.62846  0.44015  0.49005  1.0000
  N   N85       1.0  0.43523  0.11744000000000003  0.4132700000000001  1.0000
  N   N86       1.0  0.44723  0.05859999999999993  0.45414  1.0000
  N   N87       1.0  0.50373  0.007150000000000032  0.44995  1.0000
  N   N88       1.0  0.50102  0.20946999999999993  0.19411  1.0000
  N   N89       1.0  0.51948  0.19538  0.11632  1.0000
  N   N90       1.0  0.45012  0.13842  0.00997  1.0000
  N   N91       1.0  0.06479  0.47805  0.68225  1.0000
  N   N92       1.0  0.052800000000000034  0.50696  0.6114100000000001  1.0000
  N   N93       1.0  0.9962900000000001  0.44625000000000004  0.5034400000000001  1.0000
  N   N94       1.0  0.99899  0.19309  0.70847  1.0000
  N   N95       1.0  0.9805799999999999  0.09685000000000007  0.67592  1.0000
  N   N96       1.0  0.04992999999999999  0.05989  0.68833  1.0000
  N   N97       1.0  0.61744  0.91327  0.43523000000000006  1.0000
  N   N98       1.0  0.5586  0.95415  0.4472300000000001  1.0000
  N   N99       1.0  0.5071499999999999  0.9499499999999999  0.50372  1.0000
  N   N100      1.0  0.70947  0.69411  0.50102  1.0000
  N   N101      1.0  0.69538  0.61632  0.51948  1.0000
  N   N102      1.0  0.63842  0.50997  0.4501200000000001  1.0000
  N   N103      1.0  0.97805  0.18224999999999997  0.06479  1.0000
  N   N104      1.0  0.006959999999999998  0.11141  0.0528  1.0000
  N   N105      1.0  0.9462499999999999  0.0034400000000000507  0.9962900000000001  1.0000
  N   N106      1.0  0.69309  0.20847  0.9989900000000002  1.0000
  N   N107      1.0  0.5968500000000002  0.17593000000000006  0.9805800000000002  1.0000
  N   N108      1.0  0.55988  0.18833  0.04992000000000001  1.0000
  N   N109      1.0  0.8825299999999999  0.31772000000000006  0.29577000000000003  1.0000
  N   N110      1.0  0.94139  0.38860000000000006  0.39552000000000004  1.0000
  N   N111      1.0  0.99286  0.49657  0.4428  1.0000
  N   N112      1.0  0.79054  0.29154000000000013  0.9846100000000002  1.0000
  N   N113      1.0  0.80465  0.32409  0.9209300000000001  1.0000
  N   N114      1.0  0.86159  0.3116899999999999  0.87154  1.0000
  N   N115      1.0  0.52195  0.58673  0.20419  1.0000
  N   N116      1.0  0.4931000000000001  0.54587  0.10446000000000003  1.0000
  N   N117      1.0  0.5538  0.55007  0.05723000000000001  1.0000
  N   N118      1.0  0.80688  0.80586  0.51535  1.0000
  N   N119      1.0  0.90314  0.8836899999999999  0.5790500000000001  1.0000
  N   N120      1.0  0.9401499999999999  0.9900499999999998  0.62846  1.0000
  N   N121      1.0  0.08672999999999997  0.7041899999999999  0.52195  1.0000
  N   N122      1.0  0.04587000000000001  0.6044600000000001  0.49310000000000004  1.0000
  N   N123      1.0  0.05007000000000004  0.55723  0.5538  1.0000
  N   N124      1.0  0.30585999999999997  0.01534999999999999  0.80688  1.0000
  N   N125      1.0  0.3836899999999999  0.07906  0.90314  1.0000
  N   N126      1.0  0.49005  0.12846000000000007  0.9401400000000001  1.0000
  N   N127      1.0  0.81772  0.7957699999999999  0.8825300000000001  1.0000
  N   N128      1.0  0.8885999999999998  0.89553  0.94139  1.0000
  N   N129      1.0  0.9965699999999998  0.9428099999999999  0.99286  1.0000
  N   N130      1.0  0.79154  0.48462  0.7905400000000001  1.0000
  N   N131      1.0  0.82409  0.42093  0.80465  1.0000
  N   N132      1.0  0.81169  0.37155  0.8615900000000001  1.0000
  N   N133      1.0  0.6822500000000001  0.5647900000000001  0.9780500000000002  1.0000
  N   N134      1.0  0.61141  0.5528  0.006960000000000001  1.0000
  N   N135      1.0  0.50344  0.49629  0.94624  1.0000
  N   N136      1.0  0.70847  0.49899  0.69309  1.0000
  N   N137      1.0  0.6759199999999999  0.48058  0.59685  1.0000
  N   N138      1.0  0.68833  0.54993  0.55989  1.0000
  N   N139      1.0  0.41326999999999997  0.93524  0.61744  1.0000
  N   N140      1.0  0.45415000000000005  0.9472300000000001  0.5586000000000001  1.0000
  N   N141      1.0  0.44995  0.0037200000000000076  0.50715  1.0000
  N   N142      1.0  0.1941100000000001  0.0010200000000001332  0.7094700000000003  1.0000
  N   N143      1.0  0.11632000000000006  0.019490000000000042  0.69538  1.0000
  N   N144      1.0  0.009970000000000024  0.9501299999999999  0.6384200000000001  1.0000
