data_image0
_chemical_formula_structural       Cu48H192C408O192
_chemical_formula_sum              "Cu48 H192 C408 O192"
_cell_length_a       23.01945
_cell_length_b       33.12973
_cell_length_c       33.12973
_cell_angle_alpha    90.0
_cell_angle_beta     90.0
_cell_angle_gamma    90.0

_symmetry_space_group_name_H-M    'P 1'
_symmetry_Int_Tables_number       1

loop_
  _symmetry_equiv_pos_as_xyz
  'x,y,z'

loop_
  _atom_site_type_symbol
  _atom_site_label
  _atom_site_symmetry_multiplicity
  _atom_site_fract_x
  _atom_site_fract_y
  _atom_site_fract_z
  _atom_site_occupancy
  Cu  Cu1       1.0  0.75331  0.8280299999999998  0.0  1.0000
  Cu  Cu2       1.0  0.8264300000000002  0.77457  0.0  1.0000
  Cu  Cu3       1.0  0.75331  0.17196  0.0  1.0000
  Cu  Cu4       1.0  0.8264300000000002  0.22543  0.0  1.0000
  Cu  Cu5       1.0  0.75331  0.0  0.8280299999999998  1.0000
  Cu  Cu6       1.0  0.8264300000000002  0.0  0.77457  1.0000
  Cu  Cu7       1.0  0.75331  0.0  0.17196  1.0000
  Cu  Cu8       1.0  0.8264300000000002  0.0  0.22543  1.0000
  Cu  Cu9       1.0  0.24669  0.17196  0.0  1.0000
  Cu  Cu10      1.0  0.17356  0.22543  0.0  1.0000
  Cu  Cu11      1.0  0.24669  0.8280299999999998  0.0  1.0000
  Cu  Cu12      1.0  0.17356  0.77457  0.0  1.0000
  Cu  Cu13      1.0  0.24669  0.0  0.8280299999999998  1.0000
  Cu  Cu14      1.0  0.17356  0.0  0.77457  1.0000
  Cu  Cu15      1.0  0.24669  0.0  0.17196  1.0000
  Cu  Cu16      1.0  0.17356  0.0  0.22543  1.0000
  Cu  Cu17      1.0  0.5  0.77279  0.77279  1.0000
  Cu  Cu18      1.0  0.5  0.82504  0.82504  1.0000
  Cu  Cu19      1.0  0.5  0.2272  0.2272  1.0000
  Cu  Cu20      1.0  0.5  0.17496  0.17496  1.0000
  Cu  Cu21      1.0  0.5  0.2272  0.77279  1.0000
  Cu  Cu22      1.0  0.5  0.17496  0.82504  1.0000
  Cu  Cu23      1.0  0.5  0.77279  0.2272  1.0000
  Cu  Cu24      1.0  0.5  0.82504  0.17496  1.0000
  Cu  Cu25      1.0  0.82876  0.65998  0.65999  1.0000
  Cu  Cu26      1.0  0.7548200000000002  0.62252  0.62252  1.0000
  Cu  Cu27      1.0  0.82876  0.34001  0.34001  1.0000
  Cu  Cu28      1.0  0.7548200000000002  0.37747  0.37747  1.0000
  Cu  Cu29      1.0  0.82876  0.34001  0.65999  1.0000
  Cu  Cu30      1.0  0.7548200000000002  0.37747  0.62252  1.0000
  Cu  Cu31      1.0  0.82876  0.65999  0.34001  1.0000
  Cu  Cu32      1.0  0.7548200000000002  0.62252  0.37747  1.0000
  Cu  Cu33      1.0  0.17123000000000002  0.34001  0.65999  1.0000
  Cu  Cu34      1.0  0.24517  0.37747  0.62252  1.0000
  Cu  Cu35      1.0  0.17123000000000002  0.65999  0.34001  1.0000
  Cu  Cu36      1.0  0.24517  0.62252  0.37747  1.0000
  Cu  Cu37      1.0  0.17123000000000002  0.65999  0.65998  1.0000
  Cu  Cu38      1.0  0.24517  0.62252  0.62252  1.0000
  Cu  Cu39      1.0  0.17123000000000002  0.34001  0.34001  1.0000
  Cu  Cu40      1.0  0.24517  0.37747  0.37747  1.0000
  Cu  Cu41      1.0  0.5  0.5  0.74238  1.0000
  Cu  Cu42      1.0  0.5  0.5  0.8163099999999998  1.0000
  Cu  Cu43      1.0  0.5  0.5  0.25761  1.0000
  Cu  Cu44      1.0  0.5  0.5  0.18368  1.0000
  Cu  Cu45      1.0  0.5  0.25761  0.5  1.0000
  Cu  Cu46      1.0  0.5  0.18368  0.5  1.0000
  Cu  Cu47      1.0  0.5  0.74238  0.5  1.0000
  Cu  Cu48      1.0  0.5  0.8163099999999998  0.5  1.0000
  H   H1        1.0  0.63994  0.79087  0.90053  1.0000
  H   H2        1.0  0.62737  0.68776  0.82196  1.0000
  H   H3        1.0  0.7581400000000001  0.69161  0.9151  1.0000
  H   H4        1.0  0.64189  0.58049  0.71553  1.0000
  H   H5        1.0  0.62673  0.5896  0.8445  1.0000
  H   H6        1.0  0.76152  0.6548799999999999  0.7819599999999998  1.0000
  H   H7        1.0  0.70354  0.62165  0.88225  1.0000
  H   H8        1.0  0.7643800000000001  0.64279  0.8581  1.0000
  H   H9        1.0  0.93917  0.81047  0.09743  1.0000
  H   H10       1.0  0.9391300000000002  0.56513  0.70427  1.0000
  H   H11       1.0  0.63994  0.20913  0.09947  1.0000
  H   H12       1.0  0.62737  0.31224  0.17804  1.0000
  H   H13       1.0  0.7581500000000001  0.30839  0.08489  1.0000
  H   H14       1.0  0.64189  0.4195  0.28446  1.0000
  H   H15       1.0  0.62673  0.4104  0.15549  1.0000
  H   H16       1.0  0.76152  0.34512  0.21804  1.0000
  H   H17       1.0  0.70354  0.37835  0.11774  1.0000
  H   H18       1.0  0.7643800000000001  0.35721  0.14189  1.0000
  H   H19       1.0  0.93917  0.18952  0.90257  1.0000
  H   H20       1.0  0.9391300000000002  0.43487  0.29573  1.0000
  H   H21       1.0  0.63994  0.09947  0.79087  1.0000
  H   H22       1.0  0.62737  0.17804  0.68776  1.0000
  H   H23       1.0  0.7581400000000001  0.08489  0.69161  1.0000
  H   H24       1.0  0.64189  0.28446  0.58049  1.0000
  H   H25       1.0  0.62673  0.15549  0.5896  1.0000
  H   H26       1.0  0.76152  0.21804  0.6548799999999999  1.0000
  H   H27       1.0  0.70354  0.11774  0.62165  1.0000
  H   H28       1.0  0.7643800000000001  0.14189  0.64279  1.0000
  H   H29       1.0  0.93917  0.90257  0.81047  1.0000
  H   H30       1.0  0.9391300000000002  0.29573  0.56513  1.0000
  H   H31       1.0  0.63994  0.90053  0.20913  1.0000
  H   H32       1.0  0.62737  0.82196  0.31224  1.0000
  H   H33       1.0  0.7581400000000001  0.9151  0.30839  1.0000
  H   H34       1.0  0.64189  0.71553  0.4195  1.0000
  H   H35       1.0  0.62673  0.8445  0.4104  1.0000
  H   H36       1.0  0.76152  0.7819599999999998  0.34512  1.0000
  H   H37       1.0  0.70354  0.88225  0.37835  1.0000
  H   H38       1.0  0.7643800000000001  0.8581  0.35721  1.0000
  H   H39       1.0  0.93917  0.09743  0.18952  1.0000
  H   H40       1.0  0.9391300000000002  0.70427  0.43487  1.0000
  H   H41       1.0  0.36006  0.20913  0.90053  1.0000
  H   H42       1.0  0.37263  0.31224  0.82195  1.0000
  H   H43       1.0  0.24185  0.30839  0.9151  1.0000
  H   H44       1.0  0.3581100000000001  0.4195  0.71553  1.0000
  H   H45       1.0  0.37327000000000005  0.4104  0.8445  1.0000
  H   H46       1.0  0.23848000000000003  0.34512  0.7819599999999998  1.0000
  H   H47       1.0  0.29646000000000006  0.37835  0.88225  1.0000
  H   H48       1.0  0.23561000000000004  0.35721  0.8581  1.0000
  H   H49       1.0  0.060830000000000016  0.18952  0.09743  1.0000
  H   H50       1.0  0.060860000000000004  0.43487  0.70427  1.0000
  H   H51       1.0  0.36006  0.79087  0.09947  1.0000
  H   H52       1.0  0.37263  0.68776  0.17804  1.0000
  H   H53       1.0  0.24185  0.69161  0.08489  1.0000
  H   H54       1.0  0.3581100000000001  0.58049  0.28446  1.0000
  H   H55       1.0  0.37327000000000005  0.5896  0.15549  1.0000
  H   H56       1.0  0.23848000000000003  0.6548799999999999  0.21804  1.0000
  H   H57       1.0  0.29646000000000006  0.62165  0.11774  1.0000
  H   H58       1.0  0.23561000000000004  0.64279  0.14189  1.0000
  H   H59       1.0  0.060830000000000016  0.81047  0.90257  1.0000
  H   H60       1.0  0.060860000000000004  0.56513  0.29573  1.0000
  H   H61       1.0  0.36006  0.90053  0.79087  1.0000
  H   H62       1.0  0.37263  0.82196  0.68776  1.0000
  H   H63       1.0  0.24185  0.9151  0.69161  1.0000
  H   H64       1.0  0.3581100000000001  0.71553  0.58049  1.0000
  H   H65       1.0  0.37327000000000005  0.8445  0.5896  1.0000
  H   H66       1.0  0.23848000000000003  0.7819599999999998  0.6548799999999999  1.0000
  H   H67       1.0  0.29646000000000006  0.88225  0.62165  1.0000
  H   H68       1.0  0.23561000000000004  0.8581  0.64279  1.0000
  H   H69       1.0  0.060830000000000016  0.09743  0.81047  1.0000
  H   H70       1.0  0.060860000000000004  0.70427  0.56513  1.0000
  H   H71       1.0  0.36006  0.09947  0.20913  1.0000
  H   H72       1.0  0.37263  0.17804  0.31224  1.0000
  H   H73       1.0  0.24185  0.08489  0.30839  1.0000
  H   H74       1.0  0.3581100000000001  0.28446  0.4195  1.0000
  H   H75       1.0  0.37327000000000005  0.15549  0.4104  1.0000
  H   H76       1.0  0.23848000000000003  0.21804  0.34512  1.0000
  H   H77       1.0  0.29646000000000006  0.11774  0.37835  1.0000
  H   H78       1.0  0.23561000000000004  0.14189  0.35721  1.0000
  H   H79       1.0  0.060830000000000016  0.90257  0.18952  1.0000
  H   H80       1.0  0.060860000000000004  0.29573  0.43487  1.0000
  H   H81       1.0  0.36006  0.20913  0.09947  1.0000
  H   H82       1.0  0.37263  0.31224  0.17804  1.0000
  H   H83       1.0  0.24185  0.30839  0.08489  1.0000
  H   H84       1.0  0.3581100000000001  0.4195  0.28446  1.0000
  H   H85       1.0  0.37327000000000005  0.4104  0.15549  1.0000
  H   H86       1.0  0.23848000000000003  0.34512  0.21802999999999995  1.0000
  H   H87       1.0  0.29646000000000006  0.37835  0.11774  1.0000
  H   H88       1.0  0.23561000000000004  0.35721  0.14189  1.0000
  H   H89       1.0  0.060830000000000016  0.18952  0.90257  1.0000
  H   H90       1.0  0.060860000000000004  0.43487  0.29573  1.0000
  H   H91       1.0  0.36006  0.79087  0.90053  1.0000
  H   H92       1.0  0.37263  0.68776  0.82196  1.0000
  H   H93       1.0  0.24185  0.69161  0.9151  1.0000
  H   H94       1.0  0.3581100000000001  0.58049  0.71553  1.0000
  H   H95       1.0  0.37327000000000005  0.5896  0.8445  1.0000
  H   H96       1.0  0.23848000000000003  0.6548799999999999  0.7819599999999998  1.0000
  H   H97       1.0  0.29646000000000006  0.62165  0.88225  1.0000
  H   H98       1.0  0.23561000000000004  0.64279  0.8581  1.0000
  H   H99       1.0  0.060830000000000016  0.81047  0.09743  1.0000
  H   H100      1.0  0.060860000000000004  0.56513  0.70427  1.0000
  H   H101      1.0  0.36006  0.90053  0.20913  1.0000
  H   H102      1.0  0.37263  0.82196  0.31224  1.0000
  H   H103      1.0  0.24185  0.9151  0.30839  1.0000
  H   H104      1.0  0.3581100000000001  0.71553  0.4195  1.0000
  H   H105      1.0  0.37327000000000005  0.8445  0.4104  1.0000
  H   H106      1.0  0.23848000000000003  0.7819599999999998  0.34512  1.0000
  H   H107      1.0  0.29646000000000006  0.88225  0.37835  1.0000
  H   H108      1.0  0.23561000000000004  0.8581  0.35721  1.0000
  H   H109      1.0  0.060830000000000016  0.09743  0.18952  1.0000
  H   H110      1.0  0.060860000000000004  0.70427  0.43487  1.0000
  H   H111      1.0  0.36006  0.09947  0.79087  1.0000
  H   H112      1.0  0.37263  0.17804  0.68776  1.0000
  H   H113      1.0  0.24185  0.08489  0.69161  1.0000
  H   H114      1.0  0.3581100000000001  0.28446  0.58049  1.0000
  H   H115      1.0  0.37327000000000005  0.15549  0.5896  1.0000
  H   H116      1.0  0.23848000000000003  0.21804  0.6548799999999999  1.0000
  H   H117      1.0  0.29646000000000006  0.11774  0.62165  1.0000
  H   H118      1.0  0.23561000000000004  0.14189  0.64279  1.0000
  H   H119      1.0  0.060830000000000016  0.90257  0.81047  1.0000
  H   H120      1.0  0.060860000000000004  0.29573  0.56513  1.0000
  H   H121      1.0  0.63994  0.79087  0.09947  1.0000
  H   H122      1.0  0.62737  0.68776  0.17804  1.0000
  H   H123      1.0  0.7581400000000001  0.69161  0.08489  1.0000
  H   H124      1.0  0.64189  0.58049  0.28446  1.0000
  H   H125      1.0  0.62673  0.5896  0.15549  1.0000
  H   H126      1.0  0.76152  0.6548799999999999  0.21804  1.0000
  H   H127      1.0  0.70354  0.62165  0.11774  1.0000
  H   H128      1.0  0.7643800000000001  0.64279  0.14189  1.0000
  H   H129      1.0  0.93917  0.81047  0.90257  1.0000
  H   H130      1.0  0.9391300000000002  0.56513  0.29573  1.0000
  H   H131      1.0  0.63994  0.20913  0.90053  1.0000
  H   H132      1.0  0.62737  0.31224  0.82196  1.0000
  H   H133      1.0  0.7581500000000001  0.30839  0.9151  1.0000
  H   H134      1.0  0.64189  0.4195  0.71553  1.0000
  H   H135      1.0  0.62673  0.4104  0.8445  1.0000
  H   H136      1.0  0.76152  0.34512  0.7819599999999998  1.0000
  H   H137      1.0  0.70354  0.37835  0.88225  1.0000
  H   H138      1.0  0.7643800000000001  0.35721  0.8581  1.0000
  H   H139      1.0  0.93917  0.18952  0.09743  1.0000
  H   H140      1.0  0.9391300000000002  0.43487  0.70427  1.0000
  H   H141      1.0  0.63994  0.09947  0.20913  1.0000
  H   H142      1.0  0.62737  0.17804  0.31224  1.0000
  H   H143      1.0  0.7581500000000001  0.08489  0.30839  1.0000
  H   H144      1.0  0.64189  0.28446  0.4195  1.0000
  H   H145      1.0  0.62673  0.15549  0.4104  1.0000
  H   H146      1.0  0.76152  0.21804  0.34512  1.0000
  H   H147      1.0  0.70354  0.11774  0.37835  1.0000
  H   H148      1.0  0.7643800000000001  0.14189  0.35721  1.0000
  H   H149      1.0  0.93917  0.90257  0.18952  1.0000
  H   H150      1.0  0.9391300000000002  0.29573  0.43487  1.0000
  H   H151      1.0  0.63994  0.90053  0.79087  1.0000
  H   H152      1.0  0.62737  0.82196  0.68776  1.0000
  H   H153      1.0  0.7581400000000001  0.9151  0.69161  1.0000
  H   H154      1.0  0.64189  0.71553  0.58049  1.0000
  H   H155      1.0  0.62673  0.8445  0.5896  1.0000
  H   H156      1.0  0.76152  0.7819599999999998  0.6548799999999999  1.0000
  H   H157      1.0  0.70354  0.88225  0.62165  1.0000
  H   H158      1.0  0.7643800000000001  0.8581  0.64279  1.0000
  H   H159      1.0  0.93917  0.09743  0.81047  1.0000
  H   H160      1.0  0.9391300000000002  0.70427  0.56513  1.0000
  H   H161      1.0  0.8109100000000001  0.9047399999999998  0.09526  1.0000
  H   H162      1.0  0.8109100000000001  0.09526  0.9047399999999998  1.0000
  H   H163      1.0  0.8109100000000001  0.9047399999999998  0.9047399999999998  1.0000
  H   H164      1.0  0.8109100000000001  0.09526  0.09526  1.0000
  H   H165      1.0  0.18909000000000004  0.09526  0.09526  1.0000
  H   H166      1.0  0.18909000000000004  0.9047399999999998  0.9047399999999998  1.0000
  H   H167      1.0  0.18909000000000004  0.09526  0.9047399999999998  1.0000
  H   H168      1.0  0.18909000000000004  0.9047399999999998  0.09526  1.0000
  H   H169      1.0  0.0  0.84091  0.1969  1.0000
  H   H170      1.0  0.0  0.52672  0.75317  1.0000
  H   H171      1.0  0.0  0.15909  0.8031  1.0000
  H   H172      1.0  0.0  0.47328  0.24683000000000002  1.0000
  H   H173      1.0  0.0  0.8031  0.84091  1.0000
  H   H174      1.0  0.0  0.24683000000000002  0.52672  1.0000
  H   H175      1.0  0.0  0.1969  0.15909  1.0000
  H   H176      1.0  0.0  0.75317  0.47328  1.0000
  H   H177      1.0  0.0  0.15909  0.1969  1.0000
  H   H178      1.0  0.0  0.47328  0.75317  1.0000
  H   H179      1.0  0.0  0.84091  0.8031  1.0000
  H   H180      1.0  0.0  0.52672  0.24683000000000002  1.0000
  H   H181      1.0  0.0  0.1969  0.84091  1.0000
  H   H182      1.0  0.0  0.75317  0.52672  1.0000
  H   H183      1.0  0.0  0.8031  0.15909  1.0000
  H   H184      1.0  0.0  0.24683000000000002  0.47328  1.0000
  H   H185      1.0  0.8111200000000002  0.5  0.63579  1.0000
  H   H186      1.0  0.8111200000000002  0.5  0.36421  1.0000
  H   H187      1.0  0.8111200000000002  0.36421  0.5  1.0000
  H   H188      1.0  0.8111200000000002  0.63579  0.5  1.0000
  H   H189      1.0  0.18887000000000004  0.5  0.63579  1.0000
  H   H190      1.0  0.18887000000000004  0.5  0.36421  1.0000
  H   H191      1.0  0.18887000000000004  0.63579  0.5  1.0000
  H   H192      1.0  0.18887000000000004  0.36421  0.5  1.0000
  C   C1        1.0  0.70227  0.74322  0.91131  1.0000
  C   C2        1.0  0.65529  0.76124  0.89141  1.0000
  C   C3        1.0  0.62885  0.74114  0.85909  1.0000
  C   C4        1.0  0.64845  0.70272  0.84725  1.0000
  C   C5        1.0  0.69456  0.6842  0.86761  1.0000
  C   C6        1.0  0.72145  0.70496  0.8992999999999998  1.0000
  C   C7        1.0  0.70482  0.61885  0.7449899999999998  1.0000
  C   C8        1.0  0.6568  0.59292  0.74403  1.0000
  C   C9        1.0  0.62898  0.58246  0.78004  1.0000
  C   C10       1.0  0.64871  0.5984  0.8168  1.0000
  C   C11       1.0  0.69611  0.62477  0.81801  1.0000
  C   C12       1.0  0.7240900000000001  0.6348  0.78183  1.0000
  C   C13       1.0  0.71661  0.6420399999999998  0.85762  1.0000
  C   C14       1.0  0.7332400000000001  0.76453  0.9447099999999998  1.0000
  C   C15       1.0  0.58012  0.76136  0.83702  1.0000
  C   C16       1.0  0.73617  0.62829  0.70669  1.0000
  C   C17       1.0  0.57966  0.55326  0.77971  1.0000
  C   C18       1.0  0.84531  0.83692  0.05635  1.0000
  C   C19       1.0  0.8728600000000002  0.85586  0.0925  1.0000
  C   C20       1.0  0.9212900000000003  0.83779  0.11077  1.0000
  C   C21       1.0  0.8457600000000001  0.57558  0.65608  1.0000
  C   C22       1.0  0.8729400000000003  0.53654  0.66854  1.0000
  C   C23       1.0  0.9212500000000002  0.5363699999999999  0.69437  1.0000
  C   C24       1.0  0.70227  0.25677  0.08868999999999999  1.0000
  C   C25       1.0  0.65529  0.23876  0.10859  1.0000
  C   C26       1.0  0.62885  0.25885  0.14091  1.0000
  C   C27       1.0  0.64845  0.29728  0.15275  1.0000
  C   C28       1.0  0.69456  0.3158  0.13239  1.0000
  C   C29       1.0  0.72145  0.29503  0.1007  1.0000
  C   C30       1.0  0.70482  0.38113999999999987  0.25501  1.0000
  C   C31       1.0  0.6568  0.40707  0.25596  1.0000
  C   C32       1.0  0.62898  0.41753  0.21995  1.0000
  C   C33       1.0  0.64871  0.40159  0.1832  1.0000
  C   C34       1.0  0.69611  0.37523  0.18199  1.0000
  C   C35       1.0  0.7240900000000001  0.3652  0.21816  1.0000
  C   C36       1.0  0.71661  0.35795  0.14238  1.0000
  C   C37       1.0  0.7332400000000001  0.23546  0.05529  1.0000
  C   C38       1.0  0.58012  0.23864  0.16296999999999995  1.0000
  C   C39       1.0  0.73617  0.3717  0.29331  1.0000
  C   C40       1.0  0.57966  0.44674  0.22029  1.0000
  C   C41       1.0  0.84531  0.16308  0.9436399999999999  1.0000
  C   C42       1.0  0.8728600000000002  0.14414  0.9075  1.0000
  C   C43       1.0  0.9212900000000003  0.16221  0.88922  1.0000
  C   C44       1.0  0.8457600000000001  0.42441  0.34392  1.0000
  C   C45       1.0  0.8729400000000003  0.46346  0.33146  1.0000
  C   C46       1.0  0.9212500000000002  0.46362  0.30563  1.0000
  C   C47       1.0  0.70227  0.08868999999999999  0.74322  1.0000
  C   C48       1.0  0.65529  0.10859  0.76124  1.0000
  C   C49       1.0  0.62885  0.14091  0.74114  1.0000
  C   C50       1.0  0.64845  0.15275  0.70271  1.0000
  C   C51       1.0  0.69456  0.13239  0.6842  1.0000
  C   C52       1.0  0.72145  0.1007  0.70496  1.0000
  C   C53       1.0  0.70482  0.25501  0.61885  1.0000
  C   C54       1.0  0.6568  0.25596  0.59292  1.0000
  C   C55       1.0  0.62898  0.21995  0.58246  1.0000
  C   C56       1.0  0.64871  0.1832  0.5984  1.0000
  C   C57       1.0  0.69611  0.18199  0.62477  1.0000
  C   C58       1.0  0.7240900000000001  0.21816  0.6348  1.0000
  C   C59       1.0  0.71661  0.14238  0.6420399999999998  1.0000
  C   C60       1.0  0.7332400000000001  0.05529  0.76453  1.0000
  C   C61       1.0  0.58012  0.16296999999999995  0.76136  1.0000
  C   C62       1.0  0.73617  0.29331  0.62829  1.0000
  C   C63       1.0  0.57966  0.22029  0.55326  1.0000
  C   C64       1.0  0.84531  0.9436399999999999  0.83692  1.0000
  C   C65       1.0  0.8728600000000002  0.9075  0.85586  1.0000
  C   C66       1.0  0.9212900000000003  0.88922  0.83779  1.0000
  C   C67       1.0  0.8457600000000001  0.34392  0.57558  1.0000
  C   C68       1.0  0.8729400000000003  0.33146  0.53654  1.0000
  C   C69       1.0  0.9212500000000002  0.30563  0.5363699999999999  1.0000
  C   C70       1.0  0.70227  0.91131  0.25677  1.0000
  C   C71       1.0  0.65529  0.89141  0.23876  1.0000
  C   C72       1.0  0.62885  0.85909  0.25885  1.0000
  C   C73       1.0  0.64845  0.84725  0.29728  1.0000
  C   C74       1.0  0.69456  0.86761  0.3158  1.0000
  C   C75       1.0  0.72145  0.8992999999999998  0.29503  1.0000
  C   C76       1.0  0.70482  0.7449899999999998  0.38113999999999987  1.0000
  C   C77       1.0  0.6568  0.74403  0.40707  1.0000
  C   C78       1.0  0.62898  0.78004  0.41753  1.0000
  C   C79       1.0  0.64871  0.8168  0.40159  1.0000
  C   C80       1.0  0.69611  0.81801  0.37523  1.0000
  C   C81       1.0  0.7240900000000001  0.78183  0.3652  1.0000
  C   C82       1.0  0.71661  0.85762  0.35795  1.0000
  C   C83       1.0  0.7332400000000001  0.9447099999999998  0.23546  1.0000
  C   C84       1.0  0.58012  0.83702  0.23864  1.0000
  C   C85       1.0  0.73617  0.70669  0.3717  1.0000
  C   C86       1.0  0.57966  0.77971  0.44673  1.0000
  C   C87       1.0  0.84531  0.05635  0.16308  1.0000
  C   C88       1.0  0.8728600000000002  0.0925  0.14414  1.0000
  C   C89       1.0  0.9212900000000003  0.11077  0.16221  1.0000
  C   C90       1.0  0.8457600000000001  0.65608  0.42441  1.0000
  C   C91       1.0  0.8729400000000003  0.66854  0.46346  1.0000
  C   C92       1.0  0.9212500000000002  0.69437  0.46362  1.0000
  C   C93       1.0  0.29773000000000005  0.25677  0.91131  1.0000
  C   C94       1.0  0.3447  0.23876  0.89141  1.0000
  C   C95       1.0  0.37115  0.25885  0.85909  1.0000
  C   C96       1.0  0.35155  0.29728  0.84725  1.0000
  C   C97       1.0  0.30544  0.3158  0.86761  1.0000
  C   C98       1.0  0.27855  0.29503  0.8992999999999998  1.0000
  C   C99       1.0  0.29518  0.38113999999999987  0.7449899999999998  1.0000
  C   C100      1.0  0.34320000000000006  0.40707  0.74403  1.0000
  C   C101      1.0  0.37101000000000006  0.41753  0.78004  1.0000
  C   C102      1.0  0.35129000000000005  0.40159  0.8168  1.0000
  C   C103      1.0  0.30389  0.37523  0.81801  1.0000
  C   C104      1.0  0.27591  0.3652  0.78183  1.0000
  C   C105      1.0  0.28339000000000003  0.35795  0.85762  1.0000
  C   C106      1.0  0.26675  0.23546  0.9447099999999998  1.0000
  C   C107      1.0  0.4198700000000001  0.23864  0.83702  1.0000
  C   C108      1.0  0.26383  0.3717  0.70669  1.0000
  C   C109      1.0  0.4203400000000001  0.44674  0.77971  1.0000
  C   C110      1.0  0.15469000000000002  0.16308  0.05635  1.0000
  C   C111      1.0  0.12713  0.14414  0.0925  1.0000
  C   C112      1.0  0.07871  0.16221  0.11077  1.0000
  C   C113      1.0  0.15424000000000002  0.42441  0.65608  1.0000
  C   C114      1.0  0.12706  0.46346  0.66854  1.0000
  C   C115      1.0  0.07874  0.46362  0.69437  1.0000
  C   C116      1.0  0.29773000000000005  0.74322  0.08868999999999999  1.0000
  C   C117      1.0  0.3447  0.76124  0.10859  1.0000
  C   C118      1.0  0.37115  0.74114  0.14091  1.0000
  C   C119      1.0  0.35155  0.70271  0.15275  1.0000
  C   C120      1.0  0.30544  0.6842  0.13239  1.0000
  C   C121      1.0  0.27855  0.70496  0.1007  1.0000
  C   C122      1.0  0.29518  0.61885  0.25501  1.0000
  C   C123      1.0  0.34320000000000006  0.59292  0.25596  1.0000
  C   C124      1.0  0.37101000000000006  0.58246  0.21995  1.0000
  C   C125      1.0  0.35129000000000005  0.5984  0.1832  1.0000
  C   C126      1.0  0.30389  0.62477  0.18199  1.0000
  C   C127      1.0  0.27591  0.6348  0.21816  1.0000
  C   C128      1.0  0.28339000000000003  0.6420399999999998  0.14238  1.0000
  C   C129      1.0  0.26675  0.76453  0.05529  1.0000
  C   C130      1.0  0.4198700000000001  0.76136  0.16296999999999995  1.0000
  C   C131      1.0  0.26383  0.62829  0.29331  1.0000
  C   C132      1.0  0.4203400000000001  0.55326  0.22029  1.0000
  C   C133      1.0  0.15469000000000002  0.83692  0.9436399999999999  1.0000
  C   C134      1.0  0.12713  0.85586  0.9075  1.0000
  C   C135      1.0  0.07871  0.83779  0.88922  1.0000
  C   C136      1.0  0.15424000000000002  0.57558  0.34392  1.0000
  C   C137      1.0  0.12706  0.53654  0.33146  1.0000
  C   C138      1.0  0.07874  0.5363699999999999  0.30563  1.0000
  C   C139      1.0  0.29773000000000005  0.91131  0.74322  1.0000
  C   C140      1.0  0.3447  0.89141  0.76124  1.0000
  C   C141      1.0  0.37115  0.85909  0.74114  1.0000
  C   C142      1.0  0.35155  0.84725  0.70271  1.0000
  C   C143      1.0  0.30544  0.86761  0.6842  1.0000
  C   C144      1.0  0.27855  0.8992999999999998  0.70496  1.0000
  C   C145      1.0  0.29518  0.7449899999999998  0.61885  1.0000
  C   C146      1.0  0.34320000000000006  0.74403  0.59292  1.0000
  C   C147      1.0  0.37101000000000006  0.78004  0.58246  1.0000
  C   C148      1.0  0.35129000000000005  0.8168  0.5984  1.0000
  C   C149      1.0  0.30389  0.81801  0.62477  1.0000
  C   C150      1.0  0.27591  0.78183  0.6348  1.0000
  C   C151      1.0  0.28339000000000003  0.85762  0.6420399999999998  1.0000
  C   C152      1.0  0.26675  0.9447099999999998  0.76453  1.0000
  C   C153      1.0  0.4198700000000001  0.83702  0.76136  1.0000
  C   C154      1.0  0.26383  0.70669  0.62829  1.0000
  C   C155      1.0  0.4203400000000001  0.77971  0.55326  1.0000
  C   C156      1.0  0.15469000000000002  0.05635  0.83692  1.0000
  C   C157      1.0  0.12713  0.0925  0.85586  1.0000
  C   C158      1.0  0.07871  0.11077  0.83779  1.0000
  C   C159      1.0  0.15424000000000002  0.65608  0.57558  1.0000
  C   C160      1.0  0.12706  0.66854  0.53654  1.0000
  C   C161      1.0  0.07874  0.69437  0.5363699999999999  1.0000
  C   C162      1.0  0.29773000000000005  0.08868999999999999  0.25677  1.0000
  C   C163      1.0  0.3447  0.10859  0.23876  1.0000
  C   C164      1.0  0.37115  0.14091  0.25885  1.0000
  C   C165      1.0  0.35155  0.15275  0.29728  1.0000
  C   C166      1.0  0.30544  0.13239  0.3158  1.0000
  C   C167      1.0  0.27855  0.1007  0.29503  1.0000
  C   C168      1.0  0.29518  0.25501  0.38113999999999987  1.0000
  C   C169      1.0  0.34320000000000006  0.25596  0.40707  1.0000
  C   C170      1.0  0.37101000000000006  0.21995  0.41753  1.0000
  C   C171      1.0  0.35129000000000005  0.1832  0.40159  1.0000
  C   C172      1.0  0.30389  0.18199  0.37523  1.0000
  C   C173      1.0  0.27591  0.21816  0.3652  1.0000
  C   C174      1.0  0.28339000000000003  0.14238  0.35795  1.0000
  C   C175      1.0  0.26675  0.05529  0.23546  1.0000
  C   C176      1.0  0.4198700000000001  0.16296999999999995  0.23864  1.0000
  C   C177      1.0  0.26383  0.29331  0.3717  1.0000
  C   C178      1.0  0.4203400000000001  0.22029  0.44673  1.0000
  C   C179      1.0  0.15469000000000002  0.9436399999999999  0.16308  1.0000
  C   C180      1.0  0.12713  0.9075  0.14414  1.0000
  C   C181      1.0  0.07871  0.88922  0.16221  1.0000
  C   C182      1.0  0.15424000000000002  0.34392  0.42441  1.0000
  C   C183      1.0  0.12706  0.33146  0.46346  1.0000
  C   C184      1.0  0.07874  0.30563  0.46362  1.0000
  C   C185      1.0  0.29773000000000005  0.25677  0.08868999999999999  1.0000
  C   C186      1.0  0.3447  0.23876  0.10859  1.0000
  C   C187      1.0  0.37115  0.25885  0.14091  1.0000
  C   C188      1.0  0.35155  0.29728  0.15275  1.0000
  C   C189      1.0  0.30544  0.3158  0.13239  1.0000
  C   C190      1.0  0.27855  0.29503  0.1007  1.0000
  C   C191      1.0  0.29518  0.38113999999999987  0.25501  1.0000
  C   C192      1.0  0.34320000000000006  0.40707  0.25596  1.0000
  C   C193      1.0  0.37101000000000006  0.41753  0.21995  1.0000
  C   C194      1.0  0.35129000000000005  0.40159  0.1832  1.0000
  C   C195      1.0  0.30389  0.37523  0.18199  1.0000
  C   C196      1.0  0.27591  0.3652  0.21816  1.0000
  C   C197      1.0  0.28339000000000003  0.35795  0.14238  1.0000
  C   C198      1.0  0.26675  0.23546  0.05529  1.0000
  C   C199      1.0  0.4198700000000001  0.23864  0.16296999999999995  1.0000
  C   C200      1.0  0.26383  0.3717  0.29331  1.0000
  C   C201      1.0  0.4203400000000001  0.44673  0.22029  1.0000
  C   C202      1.0  0.15469000000000002  0.16308  0.9436399999999999  1.0000
  C   C203      1.0  0.12713  0.14414  0.9075  1.0000
  C   C204      1.0  0.07871  0.16221  0.88922  1.0000
  C   C205      1.0  0.15424000000000002  0.42441  0.34392  1.0000
  C   C206      1.0  0.12706  0.46346  0.33146  1.0000
  C   C207      1.0  0.07874  0.46362  0.30563  1.0000
  C   C208      1.0  0.29773000000000005  0.74322  0.91131  1.0000
  C   C209      1.0  0.3447  0.76124  0.89141  1.0000
  C   C210      1.0  0.37115  0.74114  0.85909  1.0000
  C   C211      1.0  0.35155  0.70272  0.84725  1.0000
  C   C212      1.0  0.30544  0.6842  0.86761  1.0000
  C   C213      1.0  0.27855  0.70496  0.8992999999999998  1.0000
  C   C214      1.0  0.29518  0.61885  0.7449899999999998  1.0000
  C   C215      1.0  0.34320000000000006  0.59292  0.74403  1.0000
  C   C216      1.0  0.37101000000000006  0.58246  0.78004  1.0000
  C   C217      1.0  0.35129000000000005  0.5984  0.8168  1.0000
  C   C218      1.0  0.30389  0.62477  0.81801  1.0000
  C   C219      1.0  0.27591  0.6348  0.78183  1.0000
  C   C220      1.0  0.28339000000000003  0.6420399999999998  0.85762  1.0000
  C   C221      1.0  0.26675  0.76453  0.9447099999999998  1.0000
  C   C222      1.0  0.4198700000000001  0.76136  0.83702  1.0000
  C   C223      1.0  0.26383  0.62829  0.70669  1.0000
  C   C224      1.0  0.4203400000000001  0.55326  0.77971  1.0000
  C   C225      1.0  0.15469000000000002  0.83692  0.05635  1.0000
  C   C226      1.0  0.12713  0.85586  0.0925  1.0000
  C   C227      1.0  0.07871  0.83779  0.11077  1.0000
  C   C228      1.0  0.15424000000000002  0.57558  0.65608  1.0000
  C   C229      1.0  0.12706  0.53654  0.66854  1.0000
  C   C230      1.0  0.07874  0.5363699999999999  0.69437  1.0000
  C   C231      1.0  0.29773000000000005  0.91131  0.25677  1.0000
  C   C232      1.0  0.3447  0.89141  0.23876  1.0000
  C   C233      1.0  0.37115  0.85909  0.25885  1.0000
  C   C234      1.0  0.35155  0.84725  0.29728  1.0000
  C   C235      1.0  0.30544  0.86761  0.3158  1.0000
  C   C236      1.0  0.27855  0.8992999999999998  0.29503  1.0000
  C   C237      1.0  0.29518  0.7449899999999998  0.38113999999999987  1.0000
  C   C238      1.0  0.34320000000000006  0.74403  0.40707  1.0000
  C   C239      1.0  0.37101000000000006  0.78004  0.41753  1.0000
  C   C240      1.0  0.35129000000000005  0.8168  0.40159  1.0000
  C   C241      1.0  0.30389  0.81801  0.37523  1.0000
  C   C242      1.0  0.27591  0.78183  0.3652  1.0000
  C   C243      1.0  0.28339000000000003  0.85762  0.35795  1.0000
  C   C244      1.0  0.26675  0.9447099999999998  0.23546  1.0000
  C   C245      1.0  0.4198700000000001  0.83702  0.23864  1.0000
  C   C246      1.0  0.26383  0.70669  0.3717  1.0000
  C   C247      1.0  0.4203400000000001  0.77971  0.44673  1.0000
  C   C248      1.0  0.15469000000000002  0.05635  0.16308  1.0000
  C   C249      1.0  0.12713  0.0925  0.14414  1.0000
  C   C250      1.0  0.07871  0.11077  0.16221  1.0000
  C   C251      1.0  0.15424000000000002  0.65608  0.42441  1.0000
  C   C252      1.0  0.12706  0.66854  0.46346  1.0000
  C   C253      1.0  0.07874  0.69437  0.46362  1.0000
  C   C254      1.0  0.29773000000000005  0.08868999999999999  0.74322  1.0000
  C   C255      1.0  0.3447  0.10859  0.76124  1.0000
  C   C256      1.0  0.37115  0.14091  0.74114  1.0000
  C   C257      1.0  0.35155  0.15275  0.70271  1.0000
  C   C258      1.0  0.30544  0.13239  0.6842  1.0000
  C   C259      1.0  0.27855  0.1007  0.70496  1.0000
  C   C260      1.0  0.29518  0.25501  0.61885  1.0000
  C   C261      1.0  0.34320000000000006  0.25596  0.59292  1.0000
  C   C262      1.0  0.37101000000000006  0.21995  0.58246  1.0000
  C   C263      1.0  0.35129000000000005  0.1832  0.5984  1.0000
  C   C264      1.0  0.30389  0.18199  0.62477  1.0000
  C   C265      1.0  0.27591  0.21816  0.6348  1.0000
  C   C266      1.0  0.28339000000000003  0.14238  0.6420399999999998  1.0000
  C   C267      1.0  0.26675  0.05529  0.76453  1.0000
  C   C268      1.0  0.4198700000000001  0.16296999999999995  0.76136  1.0000
  C   C269      1.0  0.26383  0.29331  0.62829  1.0000
  C   C270      1.0  0.4203400000000001  0.22029  0.55326  1.0000
  C   C271      1.0  0.15469000000000002  0.9436399999999999  0.83692  1.0000
  C   C272      1.0  0.12713  0.9075  0.85586  1.0000
  C   C273      1.0  0.07871  0.88922  0.83779  1.0000
  C   C274      1.0  0.15424000000000002  0.34392  0.57558  1.0000
  C   C275      1.0  0.12706  0.33146  0.53654  1.0000
  C   C276      1.0  0.07874  0.30563  0.5363699999999999  1.0000
  C   C277      1.0  0.70227  0.74322  0.08868999999999999  1.0000
  C   C278      1.0  0.65529  0.76124  0.10859  1.0000
  C   C279      1.0  0.62885  0.74114  0.14091  1.0000
  C   C280      1.0  0.64845  0.70271  0.15275  1.0000
  C   C281      1.0  0.69456  0.6842  0.13239  1.0000
  C   C282      1.0  0.72145  0.70496  0.1007  1.0000
  C   C283      1.0  0.70482  0.61885  0.25501  1.0000
  C   C284      1.0  0.6568  0.59292  0.25596  1.0000
  C   C285      1.0  0.62898  0.58246  0.21995  1.0000
  C   C286      1.0  0.64871  0.5984  0.1832  1.0000
  C   C287      1.0  0.69611  0.62477  0.18199  1.0000
  C   C288      1.0  0.7240900000000001  0.6348  0.21816  1.0000
  C   C289      1.0  0.71661  0.6420399999999998  0.14238  1.0000
  C   C290      1.0  0.7332400000000001  0.76453  0.05529  1.0000
  C   C291      1.0  0.58012  0.76136  0.16296999999999995  1.0000
  C   C292      1.0  0.73617  0.62829  0.29331  1.0000
  C   C293      1.0  0.57966  0.55326  0.22029  1.0000
  C   C294      1.0  0.84531  0.83692  0.9436399999999999  1.0000
  C   C295      1.0  0.8728600000000002  0.85586  0.9075  1.0000
  C   C296      1.0  0.9212900000000003  0.83779  0.88922  1.0000
  C   C297      1.0  0.8457600000000001  0.57558  0.34392  1.0000
  C   C298      1.0  0.8729400000000003  0.53654  0.33146  1.0000
  C   C299      1.0  0.9212500000000002  0.5363699999999999  0.30563  1.0000
  C   C300      1.0  0.70227  0.25677  0.91131  1.0000
  C   C301      1.0  0.65529  0.23876  0.89141  1.0000
  C   C302      1.0  0.62885  0.25885  0.85909  1.0000
  C   C303      1.0  0.64845  0.29728  0.84725  1.0000
  C   C304      1.0  0.69456  0.3158  0.86761  1.0000
  C   C305      1.0  0.72145  0.29503  0.8992999999999998  1.0000
  C   C306      1.0  0.70482  0.38113999999999987  0.7449899999999998  1.0000
  C   C307      1.0  0.6568  0.40707  0.74403  1.0000
  C   C308      1.0  0.62898  0.41753  0.78004  1.0000
  C   C309      1.0  0.64871  0.40159  0.8168  1.0000
  C   C310      1.0  0.69611  0.37523  0.81801  1.0000
  C   C311      1.0  0.7240900000000001  0.3652  0.78183  1.0000
  C   C312      1.0  0.71661  0.35795  0.85762  1.0000
  C   C313      1.0  0.7332400000000001  0.23546  0.9447099999999998  1.0000
  C   C314      1.0  0.58012  0.23864  0.83702  1.0000
  C   C315      1.0  0.73617  0.3717  0.70669  1.0000
  C   C316      1.0  0.57966  0.44674  0.77971  1.0000
  C   C317      1.0  0.84531  0.16308  0.05635  1.0000
  C   C318      1.0  0.8728600000000002  0.14414  0.0925  1.0000
  C   C319      1.0  0.9212900000000003  0.16221  0.11077  1.0000
  C   C320      1.0  0.8457600000000001  0.42441  0.65608  1.0000
  C   C321      1.0  0.8729400000000003  0.46346  0.66854  1.0000
  C   C322      1.0  0.9212500000000002  0.46362  0.69437  1.0000
  C   C323      1.0  0.70227  0.08868999999999999  0.25677  1.0000
  C   C324      1.0  0.65529  0.10859  0.23876  1.0000
  C   C325      1.0  0.62885  0.14091  0.25885  1.0000
  C   C326      1.0  0.64845  0.15275  0.29728  1.0000
  C   C327      1.0  0.69456  0.13239  0.3158  1.0000
  C   C328      1.0  0.72145  0.1007  0.29503  1.0000
  C   C329      1.0  0.70482  0.25501  0.38113999999999987  1.0000
  C   C330      1.0  0.6568  0.25596  0.40707  1.0000
  C   C331      1.0  0.62898  0.21995  0.41753  1.0000
  C   C332      1.0  0.64871  0.1832  0.40159  1.0000
  C   C333      1.0  0.69611  0.18199  0.37523  1.0000
  C   C334      1.0  0.7240900000000001  0.21816  0.3652  1.0000
  C   C335      1.0  0.71661  0.14238  0.35795  1.0000
  C   C336      1.0  0.7332400000000001  0.05529  0.23546  1.0000
  C   C337      1.0  0.58012  0.16296999999999995  0.23864  1.0000
  C   C338      1.0  0.73617  0.29331  0.3717  1.0000
  C   C339      1.0  0.57966  0.22029  0.44673  1.0000
  C   C340      1.0  0.84531  0.9436399999999999  0.16308  1.0000
  C   C341      1.0  0.8728600000000002  0.9075  0.14414  1.0000
  C   C342      1.0  0.9212900000000003  0.88922  0.16221  1.0000
  C   C343      1.0  0.8457600000000001  0.34392  0.42441  1.0000
  C   C344      1.0  0.8729400000000003  0.33146  0.46346  1.0000
  C   C345      1.0  0.9212500000000002  0.30563  0.46362  1.0000
  C   C346      1.0  0.70227  0.91131  0.74322  1.0000
  C   C347      1.0  0.65529  0.89141  0.76124  1.0000
  C   C348      1.0  0.62885  0.85909  0.74114  1.0000
  C   C349      1.0  0.64845  0.84725  0.70271  1.0000
  C   C350      1.0  0.69456  0.86761  0.6842  1.0000
  C   C351      1.0  0.72145  0.8992999999999998  0.70496  1.0000
  C   C352      1.0  0.70482  0.7449899999999998  0.61885  1.0000
  C   C353      1.0  0.6568  0.74403  0.59292  1.0000
  C   C354      1.0  0.62898  0.78004  0.58246  1.0000
  C   C355      1.0  0.64871  0.8168  0.5984  1.0000
  C   C356      1.0  0.69611  0.81801  0.62477  1.0000
  C   C357      1.0  0.7240900000000001  0.78183  0.6348  1.0000
  C   C358      1.0  0.71661  0.85762  0.6420399999999998  1.0000
  C   C359      1.0  0.7332400000000001  0.9447099999999998  0.76453  1.0000
  C   C360      1.0  0.58012  0.83702  0.76136  1.0000
  C   C361      1.0  0.73617  0.70669  0.62829  1.0000
  C   C362      1.0  0.57966  0.77971  0.55326  1.0000
  C   C363      1.0  0.84531  0.05635  0.83692  1.0000
  C   C364      1.0  0.8728600000000002  0.0925  0.85586  1.0000
  C   C365      1.0  0.9212900000000003  0.11077  0.83779  1.0000
  C   C366      1.0  0.8457600000000001  0.65608  0.57558  1.0000
  C   C367      1.0  0.8729400000000003  0.66854  0.53654  1.0000
  C   C368      1.0  0.9212500000000002  0.69437  0.5363699999999999  1.0000
  C   C369      1.0  0.8487200000000003  0.89086  0.10913  1.0000
  C   C370      1.0  0.94589  0.85433  0.14566  1.0000
  C   C371      1.0  0.8487200000000003  0.10913  0.89086  1.0000
  C   C372      1.0  0.94589  0.14566  0.85433  1.0000
  C   C373      1.0  0.8487200000000003  0.89086  0.89086  1.0000
  C   C374      1.0  0.94589  0.85433  0.85433  1.0000
  C   C375      1.0  0.8487200000000003  0.10913  0.10913  1.0000
  C   C376      1.0  0.94589  0.14566  0.14566  1.0000
  C   C377      1.0  0.15128  0.10913  0.10913  1.0000
  C   C378      1.0  0.05411000000000001  0.14566  0.14566  1.0000
  C   C379      1.0  0.15128  0.89086  0.89086  1.0000
  C   C380      1.0  0.05411000000000001  0.85433  0.85433  1.0000
  C   C381      1.0  0.15128  0.10913  0.89086  1.0000
  C   C382      1.0  0.05411000000000001  0.14566  0.85433  1.0000
  C   C383      1.0  0.15128  0.89086  0.10913  1.0000
  C   C384      1.0  0.05411000000000001  0.85433  0.14566  1.0000
  C   C385      1.0  0.0  0.8358599999999999  0.16414  1.0000
  C   C386      1.0  0.0  0.16414  0.8358599999999999  1.0000
  C   C387      1.0  0.0  0.8358599999999999  0.8358599999999999  1.0000
  C   C388      1.0  0.0  0.16414  0.16414  1.0000
  C   C389      1.0  0.84881  0.5  0.65551  1.0000
  C   C390      1.0  0.9458300000000001  0.5  0.70742  1.0000
  C   C391      1.0  0.84881  0.5  0.34448  1.0000
  C   C392      1.0  0.9458300000000001  0.5  0.29258  1.0000
  C   C393      1.0  0.84881  0.34448  0.5  1.0000
  C   C394      1.0  0.9458300000000001  0.29258  0.5  1.0000
  C   C395      1.0  0.84881  0.65551  0.5  1.0000
  C   C396      1.0  0.9458300000000001  0.70742  0.5  1.0000
  C   C397      1.0  0.15118  0.5  0.65551  1.0000
  C   C398      1.0  0.05417000000000002  0.5  0.70742  1.0000
  C   C399      1.0  0.15118  0.5  0.34448  1.0000
  C   C400      1.0  0.05417000000000002  0.5  0.29258  1.0000
  C   C401      1.0  0.15118  0.65551  0.5  1.0000
  C   C402      1.0  0.05417000000000002  0.70742  0.5  1.0000
  C   C403      1.0  0.15118  0.34448  0.5  1.0000
  C   C404      1.0  0.05417000000000002  0.29258  0.5  1.0000
  C   C405      1.0  0.0  0.5  0.73355  1.0000
  C   C406      1.0  0.0  0.5  0.26645  1.0000
  C   C407      1.0  0.0  0.26645  0.5  1.0000
  C   C408      1.0  0.0  0.73355  0.5  1.0000
  O   O1        1.0  0.7114900000000001  0.7977  0.9574999999999998  1.0000
  O   O2        1.0  0.7798500000000002  0.74768  0.9577799999999997  1.0000
  O   O3        1.0  0.56209  0.74511  0.80423  1.0000
  O   O4        1.0  0.56048  0.7939  0.85279  1.0000
  O   O5        1.0  0.78289  0.64915  0.70928  1.0000
  O   O6        1.0  0.71402  0.61424  0.67416  1.0000
  O   O7        1.0  0.56045  0.5417099999999999  0.81416  1.0000
  O   O8        1.0  0.56083  0.54168  0.74526  1.0000
  O   O9        1.0  0.79991  0.8544  0.04239  1.0000
  O   O10       1.0  0.8683100000000001  0.80442  0.04263  1.0000
  O   O11       1.0  0.8694300000000003  0.60817  0.66887  1.0000
  O   O12       1.0  0.8001300000000001  0.57346  0.63407  1.0000
  O   O13       1.0  0.7114900000000001  0.20229  0.042499999999999996  1.0000
  O   O14       1.0  0.7798500000000002  0.2523199999999999  0.04222  1.0000
  O   O15       1.0  0.56209  0.25488  0.19577  1.0000
  O   O16       1.0  0.56048  0.20609  0.1472  1.0000
  O   O17       1.0  0.78289  0.35084  0.29071  1.0000
  O   O18       1.0  0.71402  0.38576  0.32584  1.0000
  O   O19       1.0  0.56045  0.45829  0.18584  1.0000
  O   O20       1.0  0.56083  0.4583199999999999  0.25474  1.0000
  O   O21       1.0  0.79991  0.1456  0.95761  1.0000
  O   O22       1.0  0.8683100000000001  0.19558  0.9573699999999999  1.0000
  O   O23       1.0  0.8694300000000003  0.39182  0.33113  1.0000
  O   O24       1.0  0.8001300000000001  0.42654  0.36593  1.0000
  O   O25       1.0  0.7114900000000001  0.042499999999999996  0.7977  1.0000
  O   O26       1.0  0.7798500000000002  0.04222  0.74768  1.0000
  O   O27       1.0  0.56209  0.19577  0.74511  1.0000
  O   O28       1.0  0.56048  0.1472  0.7939  1.0000
  O   O29       1.0  0.78289  0.29071  0.64915  1.0000
  O   O30       1.0  0.71402  0.32584  0.61424  1.0000
  O   O31       1.0  0.56045  0.18584  0.5417099999999999  1.0000
  O   O32       1.0  0.56083  0.25474  0.54168  1.0000
  O   O33       1.0  0.79991  0.95761  0.8544  1.0000
  O   O34       1.0  0.8683100000000001  0.9573699999999999  0.80442  1.0000
  O   O35       1.0  0.8694300000000003  0.33113  0.60817  1.0000
  O   O36       1.0  0.8001300000000001  0.36593  0.57346  1.0000
  O   O37       1.0  0.7114900000000001  0.9574999999999998  0.20229  1.0000
  O   O38       1.0  0.7798500000000002  0.9577799999999997  0.2523199999999999  1.0000
  O   O39       1.0  0.56209  0.80423  0.25488  1.0000
  O   O40       1.0  0.56048  0.85279  0.20609  1.0000
  O   O41       1.0  0.78289  0.70928  0.35084  1.0000
  O   O42       1.0  0.71402  0.67416  0.38576  1.0000
  O   O43       1.0  0.56045  0.81416  0.45829  1.0000
  O   O44       1.0  0.56083  0.74526  0.4583199999999999  1.0000
  O   O45       1.0  0.79991  0.04239  0.1456  1.0000
  O   O46       1.0  0.8683100000000001  0.04263  0.19558  1.0000
  O   O47       1.0  0.8694300000000003  0.66887  0.39182  1.0000
  O   O48       1.0  0.8001300000000001  0.63407  0.42654  1.0000
  O   O49       1.0  0.28851  0.20229  0.9574999999999998  1.0000
  O   O50       1.0  0.22015  0.2523199999999999  0.9577799999999997  1.0000
  O   O51       1.0  0.4379  0.25488  0.80423  1.0000
  O   O52       1.0  0.4395200000000001  0.20609  0.85279  1.0000
  O   O53       1.0  0.21711000000000005  0.35084  0.70928  1.0000
  O   O54       1.0  0.28598  0.38576  0.67416  1.0000
  O   O55       1.0  0.4395500000000001  0.45829  0.81416  1.0000
  O   O56       1.0  0.4391700000000001  0.4583199999999999  0.74526  1.0000
  O   O57       1.0  0.20008000000000004  0.1456  0.04239  1.0000
  O   O58       1.0  0.13168  0.19558  0.04263  1.0000
  O   O59       1.0  0.13057  0.39182  0.66887  1.0000
  O   O60       1.0  0.19986000000000004  0.42654  0.63407  1.0000
  O   O61       1.0  0.28851  0.7977  0.042499999999999996  1.0000
  O   O62       1.0  0.22015  0.74768  0.04222  1.0000
  O   O63       1.0  0.4379  0.74511  0.19577  1.0000
  O   O64       1.0  0.4395200000000001  0.7939  0.1472  1.0000
  O   O65       1.0  0.21711000000000005  0.64915  0.29071  1.0000
  O   O66       1.0  0.28598  0.61424  0.32584  1.0000
  O   O67       1.0  0.4395500000000001  0.5417099999999999  0.18584  1.0000
  O   O68       1.0  0.4391700000000001  0.54168  0.25474  1.0000
  O   O69       1.0  0.20008000000000004  0.8544  0.95761  1.0000
  O   O70       1.0  0.13168  0.80442  0.9573699999999999  1.0000
  O   O71       1.0  0.13057  0.60817  0.33113  1.0000
  O   O72       1.0  0.19986000000000004  0.57346  0.36593  1.0000
  O   O73       1.0  0.28851  0.9574999999999998  0.7977  1.0000
  O   O74       1.0  0.22015  0.9577799999999997  0.74768  1.0000
  O   O75       1.0  0.4379  0.80423  0.74511  1.0000
  O   O76       1.0  0.4395200000000001  0.85279  0.7939  1.0000
  O   O77       1.0  0.21711000000000005  0.70928  0.64915  1.0000
  O   O78       1.0  0.28598  0.67416  0.61424  1.0000
  O   O79       1.0  0.4395500000000001  0.81416  0.5417099999999999  1.0000
  O   O80       1.0  0.4391700000000001  0.74526  0.54168  1.0000
  O   O81       1.0  0.20008000000000004  0.04239  0.8544  1.0000
  O   O82       1.0  0.13168  0.04263  0.80442  1.0000
  O   O83       1.0  0.13057  0.66887  0.60817  1.0000
  O   O84       1.0  0.19986000000000004  0.63407  0.57346  1.0000
  O   O85       1.0  0.28851  0.042499999999999996  0.20229  1.0000
  O   O86       1.0  0.22015  0.04222  0.2523199999999999  1.0000
  O   O87       1.0  0.4379  0.19577  0.25488  1.0000
  O   O88       1.0  0.4395200000000001  0.1472  0.20609  1.0000
  O   O89       1.0  0.21711000000000005  0.29071  0.35084  1.0000
  O   O90       1.0  0.28598  0.32584  0.38576  1.0000
  O   O91       1.0  0.4395500000000001  0.18584  0.45829  1.0000
  O   O92       1.0  0.4391700000000001  0.25474  0.4583199999999999  1.0000
  O   O93       1.0  0.20008000000000004  0.95761  0.1456  1.0000
  O   O94       1.0  0.13168  0.9573699999999999  0.19558  1.0000
  O   O95       1.0  0.13057  0.33113  0.39182  1.0000
  O   O96       1.0  0.19986000000000004  0.36593  0.42654  1.0000
  O   O97       1.0  0.28851  0.20229  0.042499999999999996  1.0000
  O   O98       1.0  0.22015  0.2523199999999999  0.04222  1.0000
  O   O99       1.0  0.4379  0.25488  0.19577  1.0000
  O   O100      1.0  0.4395200000000001  0.20609  0.1472  1.0000
  O   O101      1.0  0.21711000000000005  0.35084  0.29071  1.0000
  O   O102      1.0  0.28598  0.38576  0.32584  1.0000
  O   O103      1.0  0.4395500000000001  0.45829  0.18584  1.0000
  O   O104      1.0  0.4391700000000001  0.4583199999999999  0.25474  1.0000
  O   O105      1.0  0.20008000000000004  0.1456  0.95761  1.0000
  O   O106      1.0  0.13168  0.19558  0.9573699999999999  1.0000
  O   O107      1.0  0.13057  0.39182  0.33113  1.0000
  O   O108      1.0  0.19986000000000004  0.42654  0.36593  1.0000
  O   O109      1.0  0.28851  0.7977  0.9574999999999998  1.0000
  O   O110      1.0  0.22015  0.74768  0.9577799999999997  1.0000
  O   O111      1.0  0.4379  0.74511  0.80423  1.0000
  O   O112      1.0  0.4395200000000001  0.7939  0.85279  1.0000
  O   O113      1.0  0.21711000000000005  0.64915  0.70928  1.0000
  O   O114      1.0  0.28598  0.61424  0.67416  1.0000
  O   O115      1.0  0.4395500000000001  0.5417099999999999  0.81416  1.0000
  O   O116      1.0  0.4391700000000001  0.54168  0.74526  1.0000
  O   O117      1.0  0.20008000000000004  0.8544  0.04239  1.0000
  O   O118      1.0  0.13168  0.80442  0.04263  1.0000
  O   O119      1.0  0.13057  0.60817  0.66887  1.0000
  O   O120      1.0  0.19986000000000004  0.57346  0.63407  1.0000
  O   O121      1.0  0.28851  0.9574999999999998  0.20229  1.0000
  O   O122      1.0  0.22015  0.9577799999999997  0.2523199999999999  1.0000
  O   O123      1.0  0.4379  0.80423  0.25488  1.0000
  O   O124      1.0  0.4395200000000001  0.85279  0.20609  1.0000
  O   O125      1.0  0.21711000000000005  0.70928  0.35084  1.0000
  O   O126      1.0  0.28598  0.67416  0.38576  1.0000
  O   O127      1.0  0.4395500000000001  0.81416  0.45829  1.0000
  O   O128      1.0  0.4391700000000001  0.74526  0.4583199999999999  1.0000
  O   O129      1.0  0.20008000000000004  0.04239  0.1456  1.0000
  O   O130      1.0  0.13168  0.04263  0.19558  1.0000
  O   O131      1.0  0.13057  0.66887  0.39182  1.0000
  O   O132      1.0  0.19986000000000004  0.63407  0.42654  1.0000
  O   O133      1.0  0.28851  0.042499999999999996  0.7977  1.0000
  O   O134      1.0  0.22015  0.04222  0.74768  1.0000
  O   O135      1.0  0.4379  0.19577  0.74511  1.0000
  O   O136      1.0  0.4395200000000001  0.1472  0.7939  1.0000
  O   O137      1.0  0.21711000000000005  0.29071  0.64915  1.0000
  O   O138      1.0  0.28598  0.32584  0.61424  1.0000
  O   O139      1.0  0.4395500000000001  0.18584  0.5417099999999999  1.0000
  O   O140      1.0  0.4391700000000001  0.25474  0.54168  1.0000
  O   O141      1.0  0.20008000000000004  0.95761  0.8544  1.0000
  O   O142      1.0  0.13168  0.9573699999999999  0.80442  1.0000
  O   O143      1.0  0.13057  0.33113  0.60817  1.0000
  O   O144      1.0  0.19986000000000004  0.36593  0.57346  1.0000
  O   O145      1.0  0.7114900000000001  0.7977  0.042499999999999996  1.0000
  O   O146      1.0  0.7798500000000002  0.74768  0.04222  1.0000
  O   O147      1.0  0.56209  0.74511  0.19576  1.0000
  O   O148      1.0  0.56048  0.7939  0.1472  1.0000
  O   O149      1.0  0.78289  0.64915  0.29071  1.0000
  O   O150      1.0  0.71402  0.61424  0.32584  1.0000
  O   O151      1.0  0.56045  0.5417099999999999  0.18584  1.0000
  O   O152      1.0  0.56083  0.54168  0.25474  1.0000
  O   O153      1.0  0.79991  0.8544  0.95761  1.0000
  O   O154      1.0  0.8683100000000001  0.80442  0.9573699999999999  1.0000
  O   O155      1.0  0.8694300000000003  0.60817  0.33113  1.0000
  O   O156      1.0  0.8001300000000001  0.57346  0.36593  1.0000
  O   O157      1.0  0.7114900000000001  0.20229  0.9574999999999998  1.0000
  O   O158      1.0  0.7798500000000002  0.2523199999999999  0.9577799999999997  1.0000
  O   O159      1.0  0.56209  0.25488  0.80423  1.0000
  O   O160      1.0  0.56048  0.20609  0.85279  1.0000
  O   O161      1.0  0.78289  0.35084  0.70928  1.0000
  O   O162      1.0  0.71402  0.38576  0.67416  1.0000
  O   O163      1.0  0.56045  0.45829  0.81416  1.0000
  O   O164      1.0  0.56083  0.4583199999999999  0.74526  1.0000
  O   O165      1.0  0.79991  0.1456  0.04239  1.0000
  O   O166      1.0  0.8683100000000001  0.19558  0.04263  1.0000
  O   O167      1.0  0.8694300000000003  0.39182  0.66887  1.0000
  O   O168      1.0  0.8001300000000001  0.42654  0.63407  1.0000
  O   O169      1.0  0.7114900000000001  0.042499999999999996  0.20229  1.0000
  O   O170      1.0  0.7798500000000002  0.04222  0.2523199999999999  1.0000
  O   O171      1.0  0.56209  0.19577  0.25488  1.0000
  O   O172      1.0  0.56048  0.1472  0.20609  1.0000
  O   O173      1.0  0.78289  0.29071  0.35084  1.0000
  O   O174      1.0  0.71402  0.32584  0.38576  1.0000
  O   O175      1.0  0.56045  0.18584  0.45829  1.0000
  O   O176      1.0  0.56083  0.25474  0.4583199999999999  1.0000
  O   O177      1.0  0.79991  0.95761  0.1456  1.0000
  O   O178      1.0  0.8683100000000001  0.9573699999999999  0.19558  1.0000
  O   O179      1.0  0.8694300000000003  0.33113  0.39182  1.0000
  O   O180      1.0  0.8001300000000001  0.36593  0.42654  1.0000
  O   O181      1.0  0.7114900000000001  0.9574999999999998  0.7977  1.0000
  O   O182      1.0  0.7798500000000002  0.9577799999999997  0.74768  1.0000
  O   O183      1.0  0.56209  0.80423  0.74511  1.0000
  O   O184      1.0  0.56048  0.85279  0.7939  1.0000
  O   O185      1.0  0.78289  0.70928  0.64915  1.0000
  O   O186      1.0  0.71402  0.67416  0.61424  1.0000
  O   O187      1.0  0.56045  0.81416  0.5417099999999999  1.0000
  O   O188      1.0  0.56083  0.74526  0.54168  1.0000
  O   O189      1.0  0.79991  0.04239  0.8544  1.0000
  O   O190      1.0  0.8683100000000001  0.04263  0.80442  1.0000
  O   O191      1.0  0.8694300000000003  0.66887  0.60817  1.0000
  O   O192      1.0  0.8001300000000001  0.63407  0.57346  1.0000
