data_image0
_chemical_formula_structural       Zn24H336C240N96
_chemical_formula_sum              "Zn24 H336 C240 N96"
_cell_length_a       23.0752
_cell_length_b       23.074349999999995
_cell_length_c       23.074580000000005
_cell_angle_alpha    109.50351
_cell_angle_beta     109.49451999999998
_cell_angle_gamma    109.49521

_space_group_name_H-M_alt    "P 1"
_space_group_IT_number       1

loop_
  _space_group_symop_operation_xyz
  'x, y, z'

loop_
  _atom_site_type_symbol
  _atom_site_label
  _atom_site_symmetry_multiplicity
  _atom_site_fract_x
  _atom_site_fract_y
  _atom_site_fract_z
  _atom_site_occupancy
  Zn  Zn1       1.0  0.7120499999999998  0.74999  0.7879199999999998  1.0000
  Zn  Zn2       1.0  0.78808  0.57582  0.03815  1.0000
  Zn  Zn3       1.0  0.46185000000000004  0.92417  0.71191  1.0000
  Zn  Zn4       1.0  0.038010000000000016  0.74999  0.46196  1.0000
  Zn  Zn5       1.0  0.038149999999999996  0.28808  0.07582999999999998  1.0000
  Zn  Zn6       1.0  0.78795  0.21209  0.25001999999999996  1.0000
  Zn  Zn7       1.0  0.46199  0.53804  0.25001  1.0000
  Zn  Zn8       1.0  0.71191  0.96185  0.4241899999999999  1.0000
  Zn  Zn9       1.0  0.25  0.96199  0.03801  1.0000
  Zn  Zn10      1.0  0.42418  0.21191999999999997  0.4618399999999999  1.0000
  Zn  Zn11      1.0  0.07581999999999985  0.5381499999999999  0.7880899999999997  1.0000
  Zn  Zn12      1.0  0.24999  0.28792  0.71207  1.0000
  Zn  Zn13      1.0  0.28795  0.25001  0.21208  1.0000
  Zn  Zn14      1.0  0.21191999999999991  0.42418  0.9618499999999999  1.0000
  Zn  Zn15      1.0  0.5381600000000001  0.07583  0.28809  1.0000
  Zn  Zn16      1.0  0.9619899999999996  0.25000999999999995  0.5380399999999997  1.0000
  Zn  Zn17      1.0  0.96185  0.71192  0.92417  1.0000
  Zn  Zn18      1.0  0.21204999999999993  0.78791  0.7499799999999998  1.0000
  Zn  Zn19      1.0  0.53801  0.46196  0.74999  1.0000
  Zn  Zn20      1.0  0.28809  0.038149999999999955  0.5758099999999999  1.0000
  Zn  Zn21      1.0  0.75  0.03801  0.96199  1.0000
  Zn  Zn22      1.0  0.57582  0.7880800000000001  0.5381599999999999  1.0000
  Zn  Zn23      1.0  0.92419  0.46185000000000004  0.21191  1.0000
  Zn  Zn24      1.0  0.7500100000000001  0.7120800000000002  0.28793  1.0000
  H   H1        1.0  0.6786699999999999  0.7824099999999999  0.9180299999999998  1.0000
  H   H2        1.0  0.6917800000000001  0.91238  0.99125  1.0000
  H   H3        1.0  0.84821  0.98498  0.9034399999999999  1.0000
  H   H4        1.0  0.82221  0.89796  0.8418799999999997  1.0000
  H   H5        1.0  0.7975299999999999  0.96613  0.78031  1.0000
  H   H6        1.0  0.74232  0.97826  0.81555  1.0000
  H   H7        1.0  0.7172099999999999  0.8917900000000001  0.7530499999999999  1.0000
  H   H8        1.0  0.82145  0.73934  0.10373  1.0000
  H   H9        1.0  0.8081099999999999  0.79953  0.22037999999999996  1.0000
  H   H10       1.0  0.65189  0.5551600000000001  0.13651999999999995  1.0000
  H   H11       1.0  0.6776  0.51947  0.07542  1.0000
  H   H12       1.0  0.7022499999999999  0.48243  0.1681  1.0000
  H   H13       1.0  0.75748  0.573  0.23577999999999996  1.0000
  H   H14       1.0  0.78258  0.53577  0.17443999999999996  1.0000
  H   H15       1.0  0.36420000000000013  0.7606500000000002  0.58183  1.0000
  H   H16       1.0  0.4209  0.70066  0.50852  1.0000
  H   H17       1.0  0.58164  0.9451600000000001  0.59682  1.0000
  H   H18       1.0  0.55603  0.98082  0.65806  1.0000
  H   H19       1.0  0.68589  0.017820000000000016  0.72012  1.0000
  H   H20       1.0  0.6626799999999999  0.9272200000000002  0.68456  1.0000
  H   H21       1.0  0.6385900000000001  0.9644600000000001  0.74695  1.0000
  H   H22       1.0  0.13568999999999998  0.71782  0.39648  1.0000
  H   H23       1.0  0.07915000000000004  0.5877500000000001  0.27968999999999994  1.0000
  H   H24       1.0  0.9183399999999999  0.5149800000000001  0.36327999999999994  1.0000
  H   H25       1.0  0.94408  0.6020700000000001  0.42437  1.0000
  H   H26       1.0  0.8140299999999999  0.53365  0.33126  1.0000
  H   H27       1.0  0.8371999999999999  0.52163  0.26388999999999996  1.0000
  H   H28       1.0  0.8613600000000001  0.60806  0.32559  1.0000
  H   H29       1.0  0.10372000000000002  0.32142  0.23935999999999996  1.0000
  H   H30       1.0  0.22040999999999994  0.30814  0.2995299999999999  1.0000
  H   H31       1.0  0.13657  0.15191  0.055209999999999995  1.0000
  H   H32       1.0  0.07543  0.17756  0.01947  1.0000
  H   H33       1.0  0.16809  0.20226000000000002  0.98243  1.0000
  H   H34       1.0  0.23578999999999997  0.25745  0.073  1.0000
  H   H35       1.0  0.17446999999999993  0.28259  0.03579  1.0000
  H   H36       1.0  0.9181299999999999  0.17874  0.28246  1.0000
  H   H37       1.0  0.99126  0.19179999999999997  0.4124099999999999  1.0000
  H   H38       1.0  0.90346  0.34820000000000007  0.48501  1.0000
  H   H39       1.0  0.84193  0.32226999999999995  0.3979999999999999  1.0000
  H   H40       1.0  0.7802999999999998  0.29752  0.46610999999999997  1.0000
  H   H41       1.0  0.8155799999999999  0.24234  0.4782799999999999  1.0000
  H   H42       1.0  0.7530799999999997  0.21720999999999993  0.39179999999999987  1.0000
  H   H43       1.0  0.39648000000000005  0.6357100000000001  0.21782999999999997  1.0000
  H   H44       1.0  0.27967  0.57912  0.08775  1.0000
  H   H45       1.0  0.36325999999999997  0.41834000000000005  0.01498  1.0000
  H   H46       1.0  0.42438  0.44408  0.10204999999999999  1.0000
  H   H47       1.0  0.33126  0.31404  0.03368  1.0000
  H   H48       1.0  0.2639  0.3372  0.021619999999999997  1.0000
  H   H49       1.0  0.32558  0.36136000000000007  0.10805999999999999  1.0000
  H   H50       1.0  0.58179  0.86418  0.2606399999999999  1.0000
  H   H51       1.0  0.50854  0.92092  0.20068  1.0000
  H   H52       1.0  0.5968299999999999  0.08166999999999998  0.44514999999999993  1.0000
  H   H53       1.0  0.65804  0.05603  0.48084  1.0000
  H   H54       1.0  0.72015  0.18589  0.51782  1.0000
  H   H55       1.0  0.68456  0.16269  0.42722  1.0000
  H   H56       1.0  0.74695  0.13858000000000004  0.46446  1.0000
  H   H57       1.0  0.21782  0.89649  0.13568  1.0000
  H   H58       1.0  0.08775000000000001  0.7796900000000001  0.07913  1.0000
  H   H59       1.0  0.014989999999999885  0.8632799999999999  0.9183399999999998  1.0000
  H   H60       1.0  0.10204999999999995  0.92438  0.9440699999999999  1.0000
  H   H61       1.0  0.03367000000000006  0.83125  0.81403  1.0000
  H   H62       1.0  0.021629999999999906  0.7639  0.8372099999999998  1.0000
  H   H63       1.0  0.10805000000000001  0.82559  0.8613599999999999  1.0000
  H   H64       1.0  0.26065999999999995  0.08182  0.36419999999999997  1.0000
  H   H65       1.0  0.20068999999999992  0.008549999999999948  0.4209299999999999  1.0000
  H   H66       1.0  0.44519  0.09684  0.58165  1.0000
  H   H67       1.0  0.48082999999999987  0.1580699999999999  0.5560199999999997  1.0000
  H   H68       1.0  0.51782  0.22014000000000003  0.68589  1.0000
  H   H69       1.0  0.42722  0.18456  0.66267  1.0000
  H   H70       1.0  0.46446999999999977  0.24695999999999996  0.6385799999999998  1.0000
  H   H71       1.0  0.23932999999999993  0.6037100000000001  0.8214099999999998  1.0000
  H   H72       1.0  0.2994999999999999  0.7203799999999999  0.8080899999999998  1.0000
  H   H73       1.0  0.0551499999999999  0.6364999999999998  0.6518799999999999  1.0000
  H   H74       1.0  0.019460000000000043  0.5754100000000001  0.6775999999999999  1.0000
  H   H75       1.0  0.9824199999999997  0.66809  0.7022599999999998  1.0000
  H   H76       1.0  0.07300000000000001  0.73577  0.75747  1.0000
  H   H77       1.0  0.03577000000000001  0.6744500000000001  0.78258  1.0000
  H   H78       1.0  0.2824499999999998  0.41808999999999985  0.6787199999999998  1.0000
  H   H79       1.0  0.41240000000000004  0.49124  0.69179  1.0000
  H   H80       1.0  0.4849899999999999  0.4034499999999999  0.8481899999999998  1.0000
  H   H81       1.0  0.398  0.34190999999999994  0.82225  1.0000
  H   H82       1.0  0.46612  0.2802999999999998  0.7975199999999999  1.0000
  H   H83       1.0  0.47827  0.31556999999999996  0.74234  1.0000
  H   H84       1.0  0.39181  0.25307  0.71721  1.0000
  H   H85       1.0  0.82134  0.08197000000000002  0.21759  1.0000
  H   H86       1.0  0.80822  0.008750000000000003  0.08762  1.0000
  H   H87       1.0  0.65179  0.09656  0.01503  1.0000
  H   H88       1.0  0.67779  0.15812  0.10204  1.0000
  H   H89       1.0  0.70248  0.2197  0.03386999999999998  1.0000
  H   H90       1.0  0.75768  0.18445  0.02175  1.0000
  H   H91       1.0  0.78279  0.24695  0.10821  1.0000
  H   H92       1.0  0.67854  0.8962700000000001  0.26066  1.0000
  H   H93       1.0  0.69189  0.7796300000000002  0.20048  1.0000
  H   H94       1.0  0.84811  0.8634899999999999  0.4448399999999999  1.0000
  H   H95       1.0  0.8224  0.9245800000000002  0.48052999999999996  1.0000
  H   H96       1.0  0.79775  0.8319  0.5175699999999999  1.0000
  H   H97       1.0  0.7425199999999998  0.76422  0.42699  1.0000
  H   H98       1.0  0.71742  0.82556  0.46423  1.0000
  H   H99       1.0  0.13579  0.4181700000000001  0.23935  1.0000
  H   H100      1.0  0.07909000000000001  0.49148  0.29933  1.0000
  H   H101      1.0  0.91836  0.40318000000000004  0.05483999999999999  1.0000
  H   H102      1.0  0.94397  0.34194  0.01918  1.0000
  H   H103      1.0  0.81411  0.27988000000000013  0.98218  1.0000
  H   H104      1.0  0.83732  0.31544000000000005  0.07278  1.0000
  H   H105      1.0  0.86141  0.25304  0.03554  1.0000
  H   H106      1.0  0.3643199999999999  0.6035200000000001  0.28217999999999993  1.0000
  H   H107      1.0  0.42085  0.7203  0.4122499999999999  1.0000
  H   H108      1.0  0.5816500000000001  0.6367100000000001  0.48501  1.0000
  H   H109      1.0  0.55592  0.57562  0.3979199999999999  1.0000
  H   H110      1.0  0.6859599999999998  0.66874  0.46634  1.0000
  H   H111      1.0  0.6627899999999999  0.7361  0.47837  1.0000
  H   H112      1.0  0.63864  0.67441  0.39193999999999996  1.0000
  H   H113      1.0  0.39628  0.76063  0.6785799999999997  1.0000
  H   H114      1.0  0.27959000000000006  0.7004700000000001  0.6918599999999998  1.0000
  H   H115      1.0  0.36343000000000003  0.94479  0.84809  1.0000
  H   H116      1.0  0.42457000000000006  0.9805300000000001  0.82243  1.0000
  H   H117      1.0  0.33191  0.01756999999999999  0.79774  1.0000
  H   H118      1.0  0.2642100000000001  0.9270000000000003  0.7425499999999998  1.0000
  H   H119      1.0  0.32552999999999993  0.96421  0.7174099999999999  1.0000
  H   H120      1.0  0.58187  0.71755  0.8212599999999998  1.0000
  H   H121      1.0  0.50875  0.58759  0.8082099999999999  1.0000
  H   H122      1.0  0.59654  0.51499  0.65181  1.0000
  H   H123      1.0  0.65808  0.602  0.6777399999999999  1.0000
  H   H124      1.0  0.7197  0.5338900000000001  0.70248  1.0000
  H   H125      1.0  0.68443  0.52172  0.75766  1.0000
  H   H126      1.0  0.74692  0.6081900000000002  0.7827899999999999  1.0000
  H   H127      1.0  0.10352000000000008  0.7821700000000003  0.36428999999999995  1.0000
  H   H128      1.0  0.22033  0.91225  0.42088  1.0000
  H   H129      1.0  0.1367500000000001  0.9850200000000001  0.58166  1.0000
  H   H130      1.0  0.07561999999999995  0.89795  0.55592  1.0000
  H   H131      1.0  0.16873999999999997  0.9663200000000001  0.6859599999999999  1.0000
  H   H132      1.0  0.2361  0.97838  0.6628  1.0000
  H   H133      1.0  0.17442  0.89194  0.63864  1.0000
  H   H134      1.0  0.9182  0.73936  0.13581999999999997  1.0000
  H   H135      1.0  0.9914600000000002  0.79932  0.07907  1.0000
  H   H136      1.0  0.9031699999999999  0.5548500000000001  0.9183399999999998  1.0000
  H   H137      1.0  0.8419599999999999  0.51916  0.94396  1.0000
  H   H138      1.0  0.77985  0.48217999999999994  0.8141099999999998  1.0000
  H   H139      1.0  0.81544  0.57278  0.83731  1.0000
  H   H140      1.0  0.75305  0.53554  0.8614199999999999  1.0000
  H   H141      1.0  0.28218  0.86431  0.10350999999999998  1.0000
  H   H142      1.0  0.41225  0.92088  0.22031  1.0000
  H   H143      1.0  0.48502  0.08167000000000002  0.13673  1.0000
  H   H144      1.0  0.39795  0.055929999999999994  0.07561999999999998  1.0000
  H   H145      1.0  0.46633  0.18597000000000002  0.16875  1.0000
  H   H146      1.0  0.4783700000000001  0.16279  0.23609999999999998  1.0000
  H   H147      1.0  0.39194999999999997  0.13864  0.17441  1.0000
  H   H148      1.0  0.23934999999999992  0.6358100000000001  0.9181899999999998  1.0000
  H   H149      1.0  0.29932  0.5790700000000001  0.99145  1.0000
  H   H150      1.0  0.05482  0.41835  0.90317  1.0000
  H   H151      1.0  0.01918000000000004  0.44398  0.84194  1.0000
  H   H152      1.0  0.9821799999999998  0.31411000000000006  0.7798599999999999  1.0000
  H   H153      1.0  0.07277999999999998  0.33733000000000013  0.81544  1.0000
  H   H154      1.0  0.035540000000000016  0.36141999999999996  0.7530499999999999  1.0000
  H   H155      1.0  0.26066  0.17859999999999995  0.39628999999999986  1.0000
  H   H156      1.0  0.20049999999999998  0.19190000000000002  0.2796199999999999  1.0000
  H   H157      1.0  0.44485  0.34812  0.36349  1.0000
  H   H158      1.0  0.48052999999999996  0.3224  0.42459  1.0000
  H   H159      1.0  0.51758  0.29774  0.3319099999999999  1.0000
  H   H160      1.0  0.42699999999999994  0.24253  0.26423  1.0000
  H   H161      1.0  0.46422999999999986  0.21741999999999995  0.32554999999999995  1.0000
  H   H162      1.0  0.21755  0.32127000000000006  0.58191  1.0000
  H   H163      1.0  0.08760999999999997  0.30821  0.50876  1.0000
  H   H164      1.0  0.015000000000000019  0.15181  0.59655  1.0000
  H   H165      1.0  0.10199999999999992  0.17774  0.6580799999999999  1.0000
  H   H166      1.0  0.033879999999999987  0.20248  0.7197  1.0000
  H   H167      1.0  0.021729999999999954  0.25766999999999995  0.6844299999999999  1.0000
  H   H168      1.0  0.10819000000000004  0.2827900000000001  0.74692  1.0000
  H   H169      1.0  0.32134000000000007  0.21759000000000006  0.08196  1.0000
  H   H170      1.0  0.30822  0.08762  0.008749999999999999  1.0000
  H   H171      1.0  0.15178999999999998  0.015019999999999993  0.09656  1.0000
  H   H172      1.0  0.17778999999999998  0.10204  0.15812  1.0000
  H   H173      1.0  0.20248  0.03387  0.21969  1.0000
  H   H174      1.0  0.2576800000000001  0.021740000000000013  0.18445  1.0000
  H   H175      1.0  0.28279  0.10821000000000003  0.24695  1.0000
  H   H176      1.0  0.17855  0.2606600000000001  0.89627  1.0000
  H   H177      1.0  0.19189000000000006  0.20047  0.77962  1.0000
  H   H178      1.0  0.34811  0.44484000000000007  0.8634799999999999  1.0000
  H   H179      1.0  0.3224  0.48053000000000007  0.92458  1.0000
  H   H180      1.0  0.29774999999999996  0.51757  0.8318999999999999  1.0000
  H   H181      1.0  0.2425199999999999  0.42699999999999994  0.7642199999999998  1.0000
  H   H182      1.0  0.21741999999999992  0.46422999999999986  0.8255599999999998  1.0000
  H   H183      1.0  0.6358  0.23935000000000003  0.41817  1.0000
  H   H184      1.0  0.5791  0.29933999999999994  0.4914799999999999  1.0000
  H   H185      1.0  0.41836  0.05484  0.4031799999999999  1.0000
  H   H186      1.0  0.4439699999999999  0.01917999999999999  0.34194  1.0000
  H   H187      1.0  0.31411000000000006  0.9821800000000003  0.27988  1.0000
  H   H188      1.0  0.33732  0.07278000000000001  0.31544  1.0000
  H   H189      1.0  0.36140999999999995  0.035540000000000016  0.25304  1.0000
  H   H190      1.0  0.86432  0.28218000000000004  0.60352  1.0000
  H   H191      1.0  0.9208599999999999  0.41225  0.72031  1.0000
  H   H192      1.0  0.0816599999999999  0.4850199999999999  0.6367199999999998  1.0000
  H   H193      1.0  0.055920000000000046  0.39793  0.57563  1.0000
  H   H194      1.0  0.18597000000000002  0.46635  0.66874  1.0000
  H   H195      1.0  0.16280000000000003  0.47837000000000013  0.73611  1.0000
  H   H196      1.0  0.13864  0.39194  0.67441  1.0000
  H   H197      1.0  0.89628  0.67858  0.7606299999999999  1.0000
  H   H198      1.0  0.77959  0.69186  0.70047  1.0000
  H   H199      1.0  0.86343  0.84809  0.94479  1.0000
  H   H200      1.0  0.92457  0.8224400000000001  0.98053  1.0000
  H   H201      1.0  0.8319099999999999  0.79774  0.01757  1.0000
  H   H202      1.0  0.7642099999999997  0.7425499999999999  0.9269999999999999  1.0000
  H   H203      1.0  0.82553  0.71741  0.96421  1.0000
  H   H204      1.0  0.08186999999999994  0.82126  0.71754  1.0000
  H   H205      1.0  0.00873999999999997  0.8081999999999999  0.5875899999999998  1.0000
  H   H206      1.0  0.09653999999999993  0.6518  0.51499  1.0000
  H   H207      1.0  0.15807  0.6777300000000002  0.6019999999999999  1.0000
  H   H208      1.0  0.2197  0.70248  0.53389  1.0000
  H   H209      1.0  0.18442  0.75766  0.52172  1.0000
  H   H210      1.0  0.24691999999999995  0.78279  0.6081999999999999  1.0000
  H   H211      1.0  0.60352  0.36428999999999995  0.7821699999999999  1.0000
  H   H212      1.0  0.72033  0.42088  0.91225  1.0000
  H   H213      1.0  0.63674  0.58166  0.98502  1.0000
  H   H214      1.0  0.5756199999999998  0.55592  0.89795  1.0000
  H   H215      1.0  0.66874  0.68596  0.96632  1.0000
  H   H216      1.0  0.73611  0.6628000000000001  0.9783799999999999  1.0000
  H   H217      1.0  0.6744199999999999  0.6386399999999999  0.8919399999999998  1.0000
  H   H218      1.0  0.41821  0.13582000000000005  0.73936  1.0000
  H   H219      1.0  0.49146  0.07907999999999993  0.79932  1.0000
  H   H220      1.0  0.40316999999999986  0.91833  0.55485  1.0000
  H   H221      1.0  0.34196  0.94397  0.51916  1.0000
  H   H222      1.0  0.27985000000000004  0.8141100000000001  0.48217999999999994  1.0000
  H   H223      1.0  0.3154400000000001  0.8373100000000001  0.57278  1.0000
  H   H224      1.0  0.25304999999999994  0.8614200000000001  0.5355399999999998  1.0000
  H   H225      1.0  0.7821799999999997  0.1035099999999999  0.8643199999999999  1.0000
  H   H226      1.0  0.9122499999999999  0.2203099999999999  0.9208699999999999  1.0000
  H   H227      1.0  0.9850099999999999  0.13672  0.08165999999999998  1.0000
  H   H228      1.0  0.89795  0.07562  0.055929999999999994  1.0000
  H   H229      1.0  0.9663299999999999  0.16875  0.18597  1.0000
  H   H230      1.0  0.9783699999999999  0.23610000000000003  0.16279  1.0000
  H   H231      1.0  0.89195  0.17441000000000004  0.13863999999999999  1.0000
  H   H232      1.0  0.73934  0.9181800000000001  0.6358  1.0000
  H   H233      1.0  0.7993099999999997  0.99145  0.5790699999999999  1.0000
  H   H234      1.0  0.55481  0.90316  0.41834999999999994  1.0000
  H   H235      1.0  0.51918  0.8419300000000001  0.44398  1.0000
  H   H236      1.0  0.48217999999999994  0.77986  0.31411  1.0000
  H   H237      1.0  0.57278  0.8154400000000002  0.3373299999999999  1.0000
  H   H238      1.0  0.5355399999999999  0.75304  0.3614199999999999  1.0000
  H   H239      1.0  0.76067  0.39629000000000003  0.17858999999999994  1.0000
  H   H240      1.0  0.7004999999999998  0.2796199999999999  0.19190999999999994  1.0000
  H   H241      1.0  0.94485  0.3635  0.3481199999999999  1.0000
  H   H242      1.0  0.98054  0.42459  0.3224  1.0000
  H   H243      1.0  0.01757999999999996  0.33191000000000004  0.29773999999999995  1.0000
  H   H244      1.0  0.927  0.2642300000000001  0.24252999999999994  1.0000
  H   H245      1.0  0.9642300000000001  0.32555  0.21741999999999997  1.0000
  H   H246      1.0  0.71756  0.5819100000000001  0.32128  1.0000
  H   H247      1.0  0.5876  0.5087600000000001  0.30820999999999993  1.0000
  H   H248      1.0  0.51501  0.5965500000000001  0.15181  1.0000
  H   H249      1.0  0.602  0.6580900000000001  0.17775  1.0000
  H   H250      1.0  0.53388  0.7197000000000001  0.20247999999999997  1.0000
  H   H251      1.0  0.52173  0.68443  0.25766  1.0000
  H   H252      1.0  0.60819  0.74693  0.28278999999999993  1.0000
  H   H253      1.0  0.17866  0.91803  0.78241  1.0000
  H   H254      1.0  0.19179  0.9912500000000001  0.9123799999999999  1.0000
  H   H255      1.0  0.3482099999999999  0.9034400000000001  0.9849699999999998  1.0000
  H   H256      1.0  0.32220999999999994  0.84188  0.8979599999999999  1.0000
  H   H257      1.0  0.29753  0.7803  0.9661299999999999  1.0000
  H   H258      1.0  0.24231999999999992  0.81555  0.9782499999999998  1.0000
  H   H259      1.0  0.21720999999999985  0.7530499999999998  0.8917899999999999  1.0000
  H   H260      1.0  0.32145999999999997  0.10373  0.73933  1.0000
  H   H261      1.0  0.30811  0.22037000000000007  0.7995199999999999  1.0000
  H   H262      1.0  0.15189  0.13651  0.55516  1.0000
  H   H263      1.0  0.17759999999999998  0.07542  0.51947  1.0000
  H   H264      1.0  0.20225999999999997  0.1681  0.48243  1.0000
  H   H265      1.0  0.25747999999999993  0.23578000000000002  0.5730099999999999  1.0000
  H   H266      1.0  0.28258  0.17444000000000007  0.53577  1.0000
  H   H267      1.0  0.86421  0.58183  0.7606499999999998  1.0000
  H   H268      1.0  0.92091  0.5085199999999999  0.7006699999999999  1.0000
  H   H269      1.0  0.08163999999999988  0.5968199999999999  0.9451599999999998  1.0000
  H   H270      1.0  0.0560299999999999  0.6580599999999999  0.9808199999999999  1.0000
  H   H271      1.0  0.18589  0.72013  0.017819999999999996  1.0000
  H   H272      1.0  0.16268  0.6845600000000001  0.92722  1.0000
  H   H273      1.0  0.13859000000000002  0.7469600000000001  0.96446  1.0000
  H   H274      1.0  0.6356800000000001  0.39648000000000005  0.71782  1.0000
  H   H275      1.0  0.5791499999999999  0.27969999999999995  0.5877499999999999  1.0000
  H   H276      1.0  0.41835  0.36329  0.51499  1.0000
  H   H277      1.0  0.44408  0.42438  0.60208  1.0000
  H   H278      1.0  0.3140399999999998  0.33126  0.5336599999999999  1.0000
  H   H279      1.0  0.3372099999999999  0.2639  0.52163  1.0000
  H   H280      1.0  0.3613599999999999  0.3255999999999999  0.6080599999999998  1.0000
  H   H281      1.0  0.60372  0.23937  0.32142  1.0000
  H   H282      1.0  0.72041  0.29953  0.30814  1.0000
  H   H283      1.0  0.63657  0.055210000000000016  0.15191  1.0000
  H   H284      1.0  0.5754299999999999  0.01946999999999998  0.17756999999999998  1.0000
  H   H285      1.0  0.66809  0.98243  0.20226  1.0000
  H   H286      1.0  0.73579  0.073  0.25745  1.0000
  H   H287      1.0  0.6744700000000001  0.03579  0.28259  1.0000
  H   H288      1.0  0.41813  0.28245  0.17873999999999995  1.0000
  H   H289      1.0  0.4912500000000001  0.41241000000000005  0.19178999999999996  1.0000
  H   H290      1.0  0.40346  0.4850100000000001  0.3481899999999999  1.0000
  H   H291      1.0  0.34192  0.398  0.32226  1.0000
  H   H292      1.0  0.2802999999999998  0.4661099999999999  0.2975199999999999  1.0000
  H   H293      1.0  0.3155700000000001  0.4782800000000001  0.24233999999999997  1.0000
  H   H294      1.0  0.25308  0.39181  0.21720999999999996  1.0000
  H   H295      1.0  0.8964800000000003  0.21783000000000005  0.63571  1.0000
  H   H296      1.0  0.7796699999999999  0.08775  0.57912  1.0000
  H   H297      1.0  0.86326  0.014979999999999992  0.41834  1.0000
  H   H298      1.0  0.92438  0.10204999999999997  0.44407  1.0000
  H   H299      1.0  0.8312600000000001  0.03368000000000001  0.31404  1.0000
  H   H300      1.0  0.7639  0.02162  0.3372  1.0000
  H   H301      1.0  0.8255899999999997  0.10805999999999993  0.3613599999999999  1.0000
  H   H302      1.0  0.08179999999999997  0.26064  0.86418  1.0000
  H   H303      1.0  0.008539999999999999  0.20068  0.92093  1.0000
  H   H304      1.0  0.09683  0.44515000000000005  0.08165999999999998  1.0000
  H   H305      1.0  0.15804  0.4808400000000001  0.056029999999999996  1.0000
  H   H306      1.0  0.22015  0.51782  0.18589  1.0000
  H   H307      1.0  0.18456000000000003  0.42722  0.16269  1.0000
  H   H308      1.0  0.24695  0.46446  0.13858  1.0000
  H   H309      1.0  0.7178200000000003  0.13569000000000006  0.89649  1.0000
  H   H310      1.0  0.5877499999999997  0.07912999999999994  0.7796899999999999  1.0000
  H   H311      1.0  0.51498  0.91833  0.86327  1.0000
  H   H312      1.0  0.6020500000000001  0.9440700000000002  0.92438  1.0000
  H   H313      1.0  0.53367  0.8140300000000001  0.83125  1.0000
  H   H314      1.0  0.52163  0.83721  0.7638999999999998  1.0000
  H   H315      1.0  0.60805  0.86136  0.8255899999999998  1.0000
  H   H316      1.0  0.76066  0.36419000000000007  0.08181  1.0000
  H   H317      1.0  0.70068  0.42093  0.00855  1.0000
  H   H318      1.0  0.94518  0.58165  0.09683  1.0000
  H   H319      1.0  0.9808200000000001  0.55602  0.15806  1.0000
  H   H320      1.0  0.017820000000000037  0.6858900000000001  0.22014  1.0000
  H   H321      1.0  0.92722  0.6626700000000001  0.18456  1.0000
  H   H322      1.0  0.96446  0.63858  0.24695  1.0000
  H   H323      1.0  0.73934  0.8214000000000001  0.6037099999999999  1.0000
  H   H324      1.0  0.7995  0.8081  0.7203799999999998  1.0000
  H   H325      1.0  0.55515  0.65188  0.63651  1.0000
  H   H326      1.0  0.5194700000000001  0.6776000000000001  0.57541  1.0000
  H   H327      1.0  0.48243  0.70226  0.66809  1.0000
  H   H328      1.0  0.5730000000000001  0.7574700000000001  0.73577  1.0000
  H   H329      1.0  0.53577  0.78258  0.67445  1.0000
  H   H330      1.0  0.78245  0.67873  0.41809  1.0000
  H   H331      1.0  0.9123999999999999  0.69179  0.49123999999999995  1.0000
  H   H332      1.0  0.985  0.8481900000000002  0.40345  1.0000
  H   H333      1.0  0.898  0.82226  0.34192  1.0000
  H   H334      1.0  0.9661199999999999  0.79752  0.2803  1.0000
  H   H335      1.0  0.97827  0.7423400000000001  0.3155699999999999  1.0000
  H   H336      1.0  0.8918099999999999  0.71721  0.25308  1.0000
  C   C1        1.0  0.7012299999999999  0.8304999999999999  0.9161499999999999  1.0000
  C   C2        1.0  0.70861  0.8953800000000001  0.95327  1.0000
  C   C3        1.0  0.7576000000000002  0.9031800000000002  0.88753  1.0000
  C   C4        1.0  0.802  0.93339  0.85933  1.0000
  C   C5        1.0  0.76242  0.94287  0.79843  1.0000
  C   C6        1.0  0.79892  0.71494  0.12930999999999998  1.0000
  C   C7        1.0  0.7914199999999998  0.74472  0.18667999999999996  1.0000
  C   C8        1.0  0.74249  0.6299400000000002  0.14559  1.0000
  C   C9        1.0  0.69799  0.5572100000000001  0.13116  1.0000
  C   C10       1.0  0.73739  0.53582  0.18023  1.0000
  C   C11       1.0  0.41418000000000005  0.7852000000000001  0.58371  1.0000
  C   C12       1.0  0.44189  0.75548  0.54657  1.0000
  C   C13       1.0  0.51552  0.87034  0.61235  1.0000
  C   C14       1.0  0.57402  0.9431000000000002  0.64078  1.0000
  C   C15       1.0  0.64444  0.9644500000000001  0.7017599999999999  1.0000
  C   C16       1.0  0.08573999999999997  0.66958  0.3708899999999999  1.0000
  C   C17       1.0  0.058059999999999876  0.6046799999999999  0.3133999999999999  1.0000
  C   C18       1.0  0.9843700000000002  0.5966500000000001  0.35442  1.0000
  C   C19       1.0  0.92593  0.56652  0.3686399999999999  1.0000
  C   C20       1.0  0.8554899999999998  0.5569299999999999  0.31948  1.0000
  C   C21       1.0  0.12931  0.29892  0.21497  1.0000
  C   C22       1.0  0.18669999999999998  0.29142000000000007  0.24472999999999995  1.0000
  C   C23       1.0  0.1456  0.2425  0.12995  1.0000
  C   C24       1.0  0.13117  0.19799  0.05722  1.0000
  C   C25       1.0  0.18024  0.23739  0.03583  1.0000
  C   C26       1.0  0.91622  0.20127  0.33054  1.0000
  C   C27       1.0  0.9533  0.20863  0.39541999999999994  1.0000
  C   C28       1.0  0.88756  0.25762  0.4032  1.0000
  C   C29       1.0  0.85935  0.30202999999999997  0.43339999999999995  1.0000
  C   C30       1.0  0.79845  0.26242  0.44288  1.0000
  C   C31       1.0  0.37089  0.58576  0.16958  1.0000
  C   C32       1.0  0.31338999999999995  0.55805  0.10466999999999997  1.0000
  C   C33       1.0  0.3544300000000001  0.48438000000000003  0.09664999999999999  1.0000
  C   C34       1.0  0.3686499999999998  0.42594  0.06652  1.0000
  C   C35       1.0  0.31948  0.3555  0.05693999999999999  1.0000
  C   C36       1.0  0.58369  0.91418  0.28518999999999994  1.0000
  C   C37       1.0  0.54657  0.94191  0.25549  1.0000
  C   C38       1.0  0.61234  0.015529999999999976  0.37035  1.0000
  C   C39       1.0  0.64079  0.07403000000000003  0.44311  1.0000
  C   C40       1.0  0.70176  0.14444  0.46444999999999986  1.0000
  C   C41       1.0  0.16957999999999998  0.87091  0.08575  1.0000
  C   C42       1.0  0.10467000000000001  0.8134000000000001  0.05805  1.0000
  C   C43       1.0  0.09665000000000001  0.85444  0.98438  1.0000
  C   C44       1.0  0.06652999999999988  0.8686599999999998  0.9259399999999998  1.0000
  C   C45       1.0  0.056929999999999925  0.8194799999999999  0.8554899999999999  1.0000
  C   C46       1.0  0.28519  0.08369999999999997  0.4141799999999999  1.0000
  C   C47       1.0  0.25548999999999994  0.04656999999999997  0.44190999999999997  1.0000
  C   C48       1.0  0.37035  0.11234  0.51552  1.0000
  C   C49       1.0  0.44311  0.14079  0.57401  1.0000
  C   C50       1.0  0.46446  0.20176999999999992  0.6444399999999999  1.0000
  C   C51       1.0  0.21495000000000003  0.6293  0.7989099999999999  1.0000
  C   C52       1.0  0.2447  0.68668  0.7914  1.0000
  C   C53       1.0  0.12993999999999997  0.64558  0.74249  1.0000
  C   C54       1.0  0.057210000000000004  0.63114  0.69799  1.0000
  C   C55       1.0  0.03580999999999989  0.6802199999999999  0.7373799999999999  1.0000
  C   C56       1.0  0.33052000000000004  0.41619000000000006  0.70127  1.0000
  C   C57       1.0  0.3953999999999999  0.45328000000000007  0.7086199999999998  1.0000
  C   C58       1.0  0.40319  0.38754000000000005  0.75761  1.0000
  C   C59       1.0  0.43339999999999995  0.3593400000000001  0.8020099999999999  1.0000
  C   C60       1.0  0.44287999999999994  0.29844  0.76243  1.0000
  C   C61       1.0  0.79877  0.08385  0.1695  1.0000
  C   C62       1.0  0.7913899999999999  0.04673  0.10462  1.0000
  C   C63       1.0  0.7424  0.11247  0.09682  1.0000
  C   C64       1.0  0.6980000000000001  0.14067  0.06662  1.0000
  C   C65       1.0  0.73758  0.20158  0.05713  1.0000
  C   C66       1.0  0.7010699999999999  0.8707000000000001  0.28505999999999987  1.0000
  C   C67       1.0  0.7085799999999999  0.8133200000000003  0.25528999999999996  1.0000
  C   C68       1.0  0.75751  0.8544200000000001  0.37006  1.0000
  C   C69       1.0  0.80201  0.8688400000000001  0.44279  1.0000
  C   C70       1.0  0.76261  0.81977  0.4641799999999999  1.0000
  C   C71       1.0  0.08581  0.41629  0.2148  1.0000
  C   C72       1.0  0.05809999999999999  0.45343  0.24452  1.0000
  C   C73       1.0  0.9844799999999999  0.38765  0.12965999999999997  1.0000
  C   C74       1.0  0.9259799999999999  0.35921000000000003  0.05689999999999999  1.0000
  C   C75       1.0  0.85556  0.29824  0.03555  1.0000
  C   C76       1.0  0.41426  0.62911  0.33042  1.0000
  C   C77       1.0  0.44194000000000006  0.6866000000000001  0.39532  1.0000
  C   C78       1.0  0.51563  0.64558  0.4033499999999999  1.0000
  C   C79       1.0  0.57406  0.63135  0.43347  1.0000
  C   C80       1.0  0.6445099999999998  0.68052  0.44306999999999996  1.0000
  C   C81       1.0  0.3706799999999999  0.78503  0.70108  1.0000
  C   C82       1.0  0.31329  0.7552700000000001  0.7085799999999999  1.0000
  C   C83       1.0  0.35440000000000005  0.8700500000000001  0.7575  1.0000
  C   C84       1.0  0.36883  0.9427800000000002  0.8020099999999999  1.0000
  C   C85       1.0  0.31976  0.96417  0.76261  1.0000
  C   C86       1.0  0.58379  0.66946  0.7987299999999999  1.0000
  C   C87       1.0  0.54671  0.60458  0.79137  1.0000
  C   C88       1.0  0.61245  0.5968  0.7423899999999998  1.0000
  C   C89       1.0  0.64065  0.5666000000000001  0.69798  1.0000
  C   C90       1.0  0.7015499999999999  0.5571200000000001  0.7375799999999998  1.0000
  C   C91       1.0  0.12910999999999995  0.83042  0.41424  1.0000
  C   C92       1.0  0.18661000000000003  0.89533  0.44195  1.0000
  C   C93       1.0  0.14557  0.90335  0.51562  1.0000
  C   C94       1.0  0.13135  0.93348  0.57406  1.0000
  C   C95       1.0  0.18052999999999997  0.94306  0.6445  1.0000
  C   C96       1.0  0.91631  0.7148100000000001  0.08582  1.0000
  C   C97       1.0  0.95343  0.7445100000000001  0.058089999999999996  1.0000
  C   C98       1.0  0.8876600000000003  0.6296500000000002  0.98447  1.0000
  C   C99       1.0  0.85921  0.55689  0.9259699999999997  1.0000
  C   C100      1.0  0.79824  0.53555  0.8555599999999999  1.0000
  C   C101      1.0  0.33042  0.91425  0.12909  1.0000
  C   C102      1.0  0.39532  0.9419500000000002  0.18659999999999996  1.0000
  C   C103      1.0  0.40336000000000005  0.015620000000000002  0.14556  1.0000
  C   C104      1.0  0.43348  0.07406  0.13135  1.0000
  C   C105      1.0  0.44306999999999996  0.14451  0.18051999999999996  1.0000
  C   C106      1.0  0.21481000000000006  0.5858200000000001  0.91631  1.0000
  C   C107      1.0  0.24451000000000003  0.5581000000000002  0.95343  1.0000
  C   C108      1.0  0.12965999999999994  0.48448  0.8876699999999998  1.0000
  C   C109      1.0  0.05690000000000005  0.4259900000000001  0.8592199999999999  1.0000
  C   C110      1.0  0.03555000000000005  0.35556000000000004  0.79823  1.0000
  C   C111      1.0  0.28505  0.2011  0.3707  1.0000
  C   C112      1.0  0.2553  0.20860000000000006  0.31331999999999993  1.0000
  C   C113      1.0  0.37006  0.25751  0.35442  1.0000
  C   C114      1.0  0.44279  0.30202  0.3688599999999999  1.0000
  C   C115      1.0  0.46419  0.26262  0.31978  1.0000
  C   C116      1.0  0.16947999999999996  0.29873000000000005  0.58381  1.0000
  C   C117      1.0  0.10459999999999998  0.29139  0.54672  1.0000
  C   C118      1.0  0.09680999999999998  0.24239  0.61245  1.0000
  C   C119      1.0  0.0666  0.19798  0.64065  1.0000
  C   C120      1.0  0.05712000000000001  0.23757000000000003  0.70156  1.0000
  C   C121      1.0  0.2987699999999999  0.16950000000000004  0.08384999999999998  1.0000
  C   C122      1.0  0.29139  0.10462000000000003  0.04673  1.0000
  C   C123      1.0  0.2424  0.09681999999999999  0.11246999999999997  1.0000
  C   C124      1.0  0.19799999999999998  0.06661  0.14066999999999993  1.0000
  C   C125      1.0  0.23758  0.05712999999999999  0.20157  1.0000
  C   C126      1.0  0.20108000000000004  0.2850600000000001  0.87069  1.0000
  C   C127      1.0  0.20857999999999988  0.25527999999999995  0.8133199999999998  1.0000
  C   C128      1.0  0.25751  0.37006  0.85441  1.0000
  C   C129      1.0  0.3020099999999999  0.44279  0.8688399999999998  1.0000
  C   C130      1.0  0.26261000000000007  0.4641800000000001  0.81977  1.0000
  C   C131      1.0  0.5858199999999999  0.21479999999999996  0.4162899999999999  1.0000
  C   C132      1.0  0.5581099999999999  0.24452  0.45342999999999994  1.0000
  C   C133      1.0  0.48448  0.12966  0.38765  1.0000
  C   C134      1.0  0.42598  0.056900000000000034  0.35922  1.0000
  C   C135      1.0  0.35555999999999993  0.03555  0.29824  1.0000
  C   C136      1.0  0.9142599999999999  0.33041999999999994  0.6291099999999998  1.0000
  C   C137      1.0  0.94194  0.39532999999999985  0.6865999999999998  1.0000
  C   C138      1.0  0.01563  0.40335  0.64558  1.0000
  C   C139      1.0  0.07407  0.43348  0.63136  1.0000
  C   C140      1.0  0.14450999999999997  0.4430700000000001  0.68052  1.0000
  C   C141      1.0  0.87069  0.70108  0.78503  1.0000
  C   C142      1.0  0.8133  0.7085800000000001  0.75527  1.0000
  C   C143      1.0  0.8543999999999999  0.7575  0.87005  1.0000
  C   C144      1.0  0.8688300000000001  0.80201  0.9427799999999998  1.0000
  C   C145      1.0  0.81976  0.76261  0.96416  1.0000
  C   C146      1.0  0.08377999999999998  0.79873  0.66946  1.0000
  C   C147      1.0  0.04670000000000001  0.79137  0.60458  1.0000
  C   C148      1.0  0.11243999999999997  0.7423800000000002  0.5968  1.0000
  C   C149      1.0  0.14064999999999991  0.69798  0.5666  1.0000
  C   C150      1.0  0.2015500000000001  0.7375800000000001  0.55712  1.0000
  C   C151      1.0  0.6291100000000001  0.41424  0.83042  1.0000
  C   C152      1.0  0.68661  0.44195000000000007  0.8953299999999998  1.0000
  C   C153      1.0  0.6455699999999999  0.51562  0.90335  1.0000
  C   C154      1.0  0.63135  0.5740600000000001  0.93348  1.0000
  C   C155      1.0  0.68053  0.6445000000000001  0.9430599999999999  1.0000
  C   C156      1.0  0.41630999999999985  0.08581999999999987  0.7148099999999997  1.0000
  C   C157      1.0  0.45343  0.058089999999999996  0.74451  1.0000
  C   C158      1.0  0.38766  0.98447  0.62965  1.0000
  C   C159      1.0  0.3592099999999999  0.92597  0.55689  1.0000
  C   C160      1.0  0.29824000000000006  0.8555600000000002  0.5355499999999999  1.0000
  C   C161      1.0  0.83042  0.12908999999999987  0.9142499999999999  1.0000
  C   C162      1.0  0.8953299999999997  0.18659999999999988  0.9419499999999998  1.0000
  C   C163      1.0  0.90335  0.14556000000000002  0.015619999999999998  1.0000
  C   C164      1.0  0.9334699999999999  0.13134  0.07406  1.0000
  C   C165      1.0  0.94307  0.18052  0.14451  1.0000
  C   C166      1.0  0.71481  0.9163  0.58582  1.0000
  C   C167      1.0  0.74451  0.9534300000000001  0.55809  1.0000
  C   C168      1.0  0.6296600000000001  0.8876600000000002  0.48448  1.0000
  C   C169      1.0  0.55689  0.8592100000000001  0.4259899999999999  1.0000
  C   C170      1.0  0.53555  0.79823  0.35556  1.0000
  C   C171      1.0  0.78505  0.3707  0.20108999999999994  1.0000
  C   C172      1.0  0.7552999999999999  0.31332  0.20859999999999995  1.0000
  C   C173      1.0  0.8700599999999998  0.35442  0.25751  1.0000
  C   C174      1.0  0.94279  0.36886  0.30200999999999995  1.0000
  C   C175      1.0  0.9641900000000001  0.31978000000000006  0.26262  1.0000
  C   C176      1.0  0.6694800000000001  0.58381  0.29873  1.0000
  C   C177      1.0  0.6046  0.54672  0.29138  1.0000
  C   C178      1.0  0.59682  0.61246  0.24239  1.0000
  C   C179      1.0  0.56661  0.64066  0.19798999999999994  1.0000
  C   C180      1.0  0.55712  0.70156  0.23757  1.0000
  C   C181      1.0  0.20122999999999994  0.91615  0.8304999999999999  1.0000
  C   C182      1.0  0.20860999999999996  0.95327  0.89538  1.0000
  C   C183      1.0  0.2576  0.8875300000000003  0.90317  1.0000
  C   C184      1.0  0.302  0.8593300000000003  0.93338  1.0000
  C   C185      1.0  0.26241999999999993  0.79842  0.9428699999999999  1.0000
  C   C186      1.0  0.2989299999999999  0.12929999999999994  0.7149399999999999  1.0000
  C   C187      1.0  0.29141999999999985  0.18667999999999985  0.7447099999999998  1.0000
  C   C188      1.0  0.24249999999999997  0.14557999999999996  0.62994  1.0000
  C   C189      1.0  0.19799000000000008  0.13116000000000005  0.55721  1.0000
  C   C190      1.0  0.23739  0.18023  0.53582  1.0000
  C   C191      1.0  0.91419  0.58371  0.7852  1.0000
  C   C192      1.0  0.9419  0.5465700000000001  0.75548  1.0000
  C   C193      1.0  0.015519999999999935  0.61235  0.8703399999999999  1.0000
  C   C194      1.0  0.0740199999999999  0.6407899999999999  0.9430999999999999  1.0000
  C   C195      1.0  0.14444  0.70176  0.9644499999999999  1.0000
  C   C196      1.0  0.5857399999999999  0.37088999999999994  0.6695799999999997  1.0000
  C   C197      1.0  0.55806  0.31340000000000007  0.60467  1.0000
  C   C198      1.0  0.48438  0.35442  0.59665  1.0000
  C   C199      1.0  0.42593999999999993  0.36864999999999987  0.5665299999999999  1.0000
  C   C200      1.0  0.3554899999999998  0.31947999999999993  0.5569299999999998  1.0000
  C   C201      1.0  0.62932  0.21497  0.29892  1.0000
  C   C202      1.0  0.6867100000000002  0.24473000000000006  0.29142  1.0000
  C   C203      1.0  0.6456  0.12995  0.24249999999999997  1.0000
  C   C204      1.0  0.63117  0.05721999999999997  0.19798999999999994  1.0000
  C   C205      1.0  0.68024  0.03582999999999998  0.23738999999999996  1.0000
  C   C206      1.0  0.41621999999999976  0.33054  0.20127  1.0000
  C   C207      1.0  0.45329  0.39542000000000005  0.20862999999999998  1.0000
  C   C208      1.0  0.3875499999999999  0.40319999999999995  0.25760999999999995  1.0000
  C   C209      1.0  0.35935  0.4334  0.30202  1.0000
  C   C210      1.0  0.29845  0.44288000000000005  0.26241999999999993  1.0000
  C   C211      1.0  0.8708899999999998  0.16957999999999993  0.5857599999999997  1.0000
  C   C212      1.0  0.81339  0.10467000000000003  0.55805  1.0000
  C   C213      1.0  0.85443  0.09665000000000004  0.48438  1.0000
  C   C214      1.0  0.86865  0.06652  0.42594  1.0000
  C   C215      1.0  0.81948  0.05693999999999999  0.3555  1.0000
  C   C216      1.0  0.08368999999999992  0.2851899999999999  0.9141799999999998  1.0000
  C   C217      1.0  0.04656999999999996  0.25548999999999994  0.94191  1.0000
  C   C218      1.0  0.11234  0.37035  0.01553  1.0000
  C   C219      1.0  0.14079  0.44311  0.07402999999999998  1.0000
  C   C220      1.0  0.20176000000000002  0.46445000000000003  0.14444  1.0000
  C   C221      1.0  0.66958  0.08575000000000009  0.87091  1.0000
  C   C222      1.0  0.60468  0.05805  0.8134  1.0000
  C   C223      1.0  0.59664  0.9843800000000001  0.85444  1.0000
  C   C224      1.0  0.5665200000000001  0.9259400000000001  0.86865  1.0000
  C   C225      1.0  0.55693  0.85549  0.81948  1.0000
  C   C226      1.0  0.7851899999999999  0.41418  0.08369  1.0000
  C   C227      1.0  0.7554899999999999  0.4419100000000001  0.04657  1.0000
  C   C228      1.0  0.87034  0.51552  0.11232999999999999  1.0000
  C   C229      1.0  0.9431  0.57401  0.14077999999999996  1.0000
  C   C230      1.0  0.96445  0.64444  0.20176  1.0000
  C   C231      1.0  0.7149499999999999  0.7988999999999999  0.6292999999999997  1.0000
  C   C232      1.0  0.74471  0.7914  0.68668  1.0000
  C   C233      1.0  0.62994  0.74249  0.64558  1.0000
  C   C234      1.0  0.5572099999999999  0.69798  0.6311399999999998  1.0000
  C   C235      1.0  0.5358199999999999  0.7373800000000003  0.6802199999999999  1.0000
  C   C236      1.0  0.83052  0.7012700000000001  0.41618999999999995  1.0000
  C   C237      1.0  0.8954  0.70861  0.45327999999999996  1.0000
  C   C238      1.0  0.9031899999999999  0.75761  0.38755  1.0000
  C   C239      1.0  0.9334  0.80202  0.3593499999999999  1.0000
  C   C240      1.0  0.94288  0.7624300000000003  0.2984399999999999  1.0000
  N   N1        1.0  0.73101  0.83482  0.87336  1.0000
  N   N2        1.0  0.74375  0.9414300000000002  0.9347799999999998  1.0000
  N   N3        1.0  0.7691999999999999  0.6423500000000001  0.10394  1.0000
  N   N4        1.0  0.7562300000000001  0.6910900000000001  0.19759  1.0000
  N   N5        1.0  0.46135000000000004  0.85785  0.6264999999999997  1.0000
  N   N6        1.0  0.50642  0.8091800000000001  0.56502  1.0000
  N   N7        1.0  0.03848000000000001  0.66512  0.39616  1.0000
  N   N8        1.0  0.9935399999999999  0.55844  0.30245  1.0000
  N   N9        1.0  0.10394  0.26919  0.14238  1.0000
  N   N10       1.0  0.19760999999999998  0.25624  0.19108  1.0000
  N   N11       1.0  0.87342  0.23103999999999994  0.3348499999999999  1.0000
  N   N12       1.0  0.9347799999999999  0.24375999999999995  0.44144999999999995  1.0000
  N   N13       1.0  0.39616000000000007  0.53851  0.16512  1.0000
  N   N14       1.0  0.30245  0.4935300000000001  0.05844  1.0000
  N   N15       1.0  0.62647  0.96134  0.35784999999999995  1.0000
  N   N16       1.0  0.56503  0.00645  0.3092  1.0000
  N   N17       1.0  0.16512  0.89616  0.03849  1.0000
  N   N18       1.0  0.05844  0.80247  0.99354  1.0000
  N   N19       1.0  0.35785  0.12648  0.4613399999999999  1.0000
  N   N20       1.0  0.3092  0.06503  0.50644  1.0000
  N   N21       1.0  0.14236999999999994  0.60394  0.7691999999999998  1.0000
  N   N22       1.0  0.19107000000000007  0.69758  0.75622  1.0000
  N   N23       1.0  0.33483000000000007  0.37338000000000005  0.73103  1.0000
  N   N24       1.0  0.44142999999999993  0.43477000000000005  0.7437499999999999  1.0000
  N   N25       1.0  0.769  0.12665  0.16519  1.0000
  N   N26       1.0  0.75624  0.06522  0.05856999999999998  1.0000
  N   N27       1.0  0.7307900000000002  0.8960600000000002  0.35765  1.0000
  N   N28       1.0  0.74378  0.80242  0.30891999999999986  1.0000
  N   N29       1.0  0.03864999999999994  0.37349  0.14213999999999993  1.0000
  N   N30       1.0  0.9935799999999999  0.43498  0.19081  1.0000
  N   N31       1.0  0.46151999999999993  0.60384  0.33487  1.0000
  N   N32       1.0  0.50645  0.69754  0.44155999999999995  1.0000
  N   N33       1.0  0.39605000000000007  0.8576200000000002  0.7308  1.0000
  N   N34       1.0  0.3023899999999999  0.8089100000000001  0.7437499999999999  1.0000
  N   N35       1.0  0.6265899999999999  0.66515  0.76896  1.0000
  N   N36       1.0  0.5652300000000001  0.5585500000000001  0.75624  1.0000
  N   N37       1.0  0.10384000000000003  0.8348800000000001  0.4615  1.0000
  N   N38       1.0  0.19755000000000006  0.94156  0.50647  1.0000
  N   N39       1.0  0.87352  0.6421500000000001  0.03865  1.0000
  N   N40       1.0  0.93497  0.6908000000000001  0.99355  1.0000
  N   N41       1.0  0.33488  0.9615100000000001  0.10382999999999999  1.0000
  N   N42       1.0  0.44156  0.00646  0.19753  1.0000
  N   N43       1.0  0.14215999999999993  0.53866  0.8735199999999999  1.0000
  N   N44       1.0  0.19081  0.4935600000000001  0.93497  1.0000
  N   N45       1.0  0.35763  0.23081000000000004  0.3960599999999999  1.0000
  N   N46       1.0  0.30893  0.24378  0.30241  1.0000
  N   N47       1.0  0.16516  0.26897  0.62661  1.0000
  N   N48       1.0  0.05857000000000002  0.25625  0.56523  1.0000
  N   N49       1.0  0.269  0.16518  0.12663999999999997  1.0000
  N   N50       1.0  0.2562499999999999  0.05856999999999999  0.06521999999999997  1.0000
  N   N51       1.0  0.23079999999999992  0.35764999999999997  0.8960599999999997  1.0000
  N   N52       1.0  0.24377999999999997  0.30891  0.80241  1.0000
  N   N53       1.0  0.53865  0.14214999999999997  0.37349999999999994  1.0000
  N   N54       1.0  0.49358000000000013  0.19082000000000005  0.43498  1.0000
  N   N55       1.0  0.96152  0.33488  0.6038399999999999  1.0000
  N   N56       1.0  0.006459999999999982  0.44156000000000006  0.69754  1.0000
  N   N57       1.0  0.8960599999999999  0.73081  0.85762  1.0000
  N   N58       1.0  0.8023900000000002  0.74376  0.80892  1.0000
  N   N59       1.0  0.12658  0.76896  0.66515  1.0000
  N   N60       1.0  0.06523000000000005  0.7562400000000001  0.55854  1.0000
  N   N61       1.0  0.6038399999999999  0.4614899999999999  0.8348799999999997  1.0000
  N   N62       1.0  0.69755  0.5064699999999999  0.9415599999999998  1.0000
  N   N63       1.0  0.37352999999999975  0.03865999999999988  0.6421499999999998  1.0000
  N   N64       1.0  0.43496999999999997  0.9935500000000002  0.6907999999999997  1.0000
  N   N65       1.0  0.83488  0.10383999999999996  0.9615099999999999  1.0000
  N   N66       1.0  0.94156  0.19753000000000007  0.00646  1.0000
  N   N67       1.0  0.64215  0.8735200000000001  0.53866  1.0000
  N   N68       1.0  0.6908  0.9349700000000002  0.49355999999999994  1.0000
  N   N69       1.0  0.8576399999999998  0.3960600000000001  0.23079999999999998  1.0000
  N   N70       1.0  0.8089299999999999  0.30242  0.24378  1.0000
  N   N71       1.0  0.66517  0.6266200000000001  0.26897  1.0000
  N   N72       1.0  0.55857  0.56523  0.25624  1.0000
  N   N73       1.0  0.23099999999999993  0.87335  0.83481  1.0000
  N   N74       1.0  0.24375999999999995  0.93478  0.9414299999999998  1.0000
  N   N75       1.0  0.26921  0.10393999999999999  0.64235  1.0000
  N   N76       1.0  0.2562199999999999  0.19757999999999998  0.6910799999999999  1.0000
  N   N77       1.0  0.96135  0.62651  0.85786  1.0000
  N   N78       1.0  0.006419999999999924  0.56502  0.8091899999999997  1.0000
  N   N79       1.0  0.5384800000000001  0.39616000000000007  0.66513  1.0000
  N   N80       1.0  0.4935499999999998  0.30245999999999995  0.5584399999999999  1.0000
  N   N81       1.0  0.6039500000000002  0.14238  0.2692  1.0000
  N   N82       1.0  0.69761  0.19109000000000004  0.25625  1.0000
  N   N83       1.0  0.37340999999999985  0.33485  0.23104  1.0000
  N   N84       1.0  0.43477  0.44145  0.24375  1.0000
  N   N85       1.0  0.8961599999999998  0.1651199999999999  0.5384999999999998  1.0000
  N   N86       1.0  0.80245  0.05844000000000001  0.49352999999999997  1.0000
  N   N87       1.0  0.12648  0.35785  0.96135  1.0000
  N   N88       1.0  0.06503000000000003  0.3092  0.006449999999999998  1.0000
  N   N89       1.0  0.66512  0.03848999999999989  0.8961699999999999  1.0000
  N   N90       1.0  0.55844  0.9935400000000002  0.8024699999999999  1.0000
  N   N91       1.0  0.85784  0.46134000000000003  0.12647999999999998  1.0000
  N   N92       1.0  0.8091899999999999  0.50644  0.06503  1.0000
  N   N93       1.0  0.64237  0.76919  0.60394  1.0000
  N   N94       1.0  0.69107  0.7562200000000002  0.6975899999999998  1.0000
  N   N95       1.0  0.83484  0.73103  0.37339  1.0000
  N   N96       1.0  0.94143  0.74375  0.43477  1.0000
