data_image0
_chemical_formula_structural       Al32H320C464O144
_chemical_formula_sum              "Al32 H320 C464 O144"
_cell_length_a       19.11226
_cell_length_b       19.11226
_cell_length_c       71.89157
_cell_angle_alpha    90.0
_cell_angle_beta     90.0
_cell_angle_gamma    90.0

_space_group_name_H-M_alt    "P 1"
_space_group_IT_number       1

loop_
  _space_group_symop_operation_xyz
  'x, y, z'

loop_
  _atom_site_type_symbol
  _atom_site_label
  _atom_site_symmetry_multiplicity
  _atom_site_fract_x
  _atom_site_fract_y
  _atom_site_fract_z
  _atom_site_occupancy
  Al  Al1       1.0  0.39389  0.64429  0.53672  1.0000
  Al  Al2       1.0  0.34018  0.66654  0.49911999999999995  1.0000
  Al  Al3       1.0  0.5035499999999999  0.53085  0.55617  1.0000
  Al  Al4       1.0  0.61281  0.40891999999999995  0.54185  1.0000
  Al  Al5       1.0  0.60611  0.35570999999999997  0.03672  1.0000
  Al  Al6       1.0  0.65982  0.33346  0.9991200000000001  1.0000
  Al  Al7       1.0  0.49644999999999995  0.46914999999999996  0.05617  1.0000
  Al  Al8       1.0  0.38719  0.59108  0.04185  1.0000
  Al  Al9       1.0  0.85571  0.89389  0.78671  1.0000
  Al  Al10      1.0  0.83346  0.84018  0.74912  1.0000
  Al  Al11      1.0  0.96915  0.0035499999999999998  0.80617  1.0000
  Al  Al12      1.0  0.09108  0.11281  0.79185  1.0000
  Al  Al13      1.0  0.14429  0.10611  0.28672  1.0000
  Al  Al14      1.0  0.16654  0.15981999999999996  0.24912  1.0000
  Al  Al15      1.0  0.030849999999999995  0.9964499999999998  0.30617  1.0000
  Al  Al16      1.0  0.90892  0.88719  0.29185  1.0000
  Al  Al17      1.0  0.10611  0.14429  0.71328  1.0000
  Al  Al18      1.0  0.15981999999999996  0.16654  0.75087  1.0000
  Al  Al19      1.0  0.9964499999999998  0.030849999999999995  0.69382  1.0000
  Al  Al20      1.0  0.88719  0.90892  0.70815  1.0000
  Al  Al21      1.0  0.89389  0.85571  0.21328  1.0000
  Al  Al22      1.0  0.84018  0.83346  0.25088  1.0000
  Al  Al23      1.0  0.0035499999999999998  0.96915  0.19383  1.0000
  Al  Al24      1.0  0.11281  0.09108  0.20815  1.0000
  Al  Al25      1.0  0.64429  0.39389  0.46328  1.0000
  Al  Al26      1.0  0.66654  0.34018  0.50087  1.0000
  Al  Al27      1.0  0.53085  0.5035499999999999  0.44383  1.0000
  Al  Al28      1.0  0.40891999999999995  0.61281  0.45815  1.0000
  Al  Al29      1.0  0.35570999999999997  0.60611  0.96328  1.0000
  Al  Al30      1.0  0.33346  0.65982  0.0008800000000000001  1.0000
  Al  Al31      1.0  0.46914999999999996  0.49644999999999995  0.94382  1.0000
  Al  Al32      1.0  0.59108  0.38719  0.9581500000000001  1.0000
  H   H1        1.0  0.47143  0.55567  0.52405  1.0000
  H   H2        1.0  0.6219099999999999  0.2962199999999999  0.58981  1.0000
  H   H3        1.0  0.35902  0.8703  0.6332  1.0000
  H   H4        1.0  0.75976  0.8601899999999999  0.67806  1.0000
  H   H5        1.0  0.24601  0.24486999999999998  0.68245  1.0000
  H   H6        1.0  0.54164  0.19197  0.69901  1.0000
  H   H7        1.0  0.45039999999999997  0.32602  0.65752  1.0000
  H   H8        1.0  0.27083  0.08646  0.68701  1.0000
  H   H9        1.0  0.4693399999999999  0.26331  0.71738  1.0000
  H   H10       1.0  0.15756  0.9054499999999999  0.66842  1.0000
  H   H11       1.0  0.6619799999999999  0.25312  0.65117  1.0000
  H   H12       1.0  0.5718399999999999  0.8130999999999998  0.64517  1.0000
  H   H13       1.0  0.62258  0.8464599999999999  0.7252  1.0000
  H   H14       1.0  0.38205  0.03459  0.67536  1.0000
  H   H15       1.0  0.3583  0.25758  0.66526  1.0000
  H   H16       1.0  0.5312599999999998  0.7147099999999998  0.63151  1.0000
  H   H17       1.0  0.53389  0.64297  0.6026  1.0000
  H   H18       1.0  0.51942  0.8611199999999999  0.7043  1.0000
  H   H19       1.0  0.6576699999999999  0.8776899999999999  0.65718  1.0000
  H   H20       1.0  0.50116  0.41962  0.64154  1.0000
  H   H21       1.0  0.6197699999999998  0.24338  0.62147  1.0000
  H   H22       1.0  0.414  0.7994799999999997  0.57407  1.0000
  H   H23       1.0  0.3561399999999999  0.25061999999999995  0.73439  1.0000
  H   H24       1.0  0.26866999999999996  0.85332  0.6565  1.0000
  H   H25       1.0  0.41077  0.8720499999999999  0.60299  1.0000
  H   H26       1.0  0.45396  0.93411  0.68471  1.0000
  H   H27       1.0  0.60473  0.08779999999999998  0.69061  1.0000
  H   H28       1.0  0.74651  0.25405  0.67588  1.0000
  H   H29       1.0  0.49098999999999987  0.43548  0.5319  1.0000
  H   H30       1.0  0.70564  0.01327  0.69974  1.0000
  H   H31       1.0  0.84754  0.17901  0.68522  1.0000
  H   H32       1.0  0.50343  0.4717199999999999  0.6097  1.0000
  H   H33       1.0  0.52507  0.6249899999999999  0.4825  1.0000
  H   H34       1.0  0.4865999999999999  0.5744999999999999  0.50034  1.0000
  H   H35       1.0  0.52739  0.68225  0.51563  1.0000
  H   H36       1.0  0.49389999999999995  0.73492  0.49707  1.0000
  H   H37       1.0  0.20197  0.53831  0.49562  1.0000
  H   H38       1.0  0.19639999999999994  0.6157999999999999  0.50921  1.0000
  H   H39       1.0  0.25824  0.54084  0.53011  1.0000
  H   H40       1.0  0.30471  0.49826  0.51185  1.0000
  H   H41       1.0  0.52857  0.44433  0.02405  1.0000
  H   H42       1.0  0.3780899999999999  0.70378  0.08981  1.0000
  H   H43       1.0  0.64098  0.12969999999999998  0.1332  1.0000
  H   H44       1.0  0.24024  0.13981  0.17807  1.0000
  H   H45       1.0  0.75399  0.75513  0.18245  1.0000
  H   H46       1.0  0.4583599999999999  0.80803  0.19901  1.0000
  H   H47       1.0  0.5496  0.6739799999999998  0.15753  1.0000
  H   H48       1.0  0.72917  0.9135399999999999  0.18701  1.0000
  H   H49       1.0  0.53066  0.73669  0.21738  1.0000
  H   H50       1.0  0.8424399999999999  0.09455  0.16842  1.0000
  H   H51       1.0  0.3380199999999999  0.74688  0.15118  1.0000
  H   H52       1.0  0.42816  0.1869  0.14517  1.0000
  H   H53       1.0  0.37741999999999987  0.15354  0.22519999999999998  1.0000
  H   H54       1.0  0.61795  0.96541  0.17536  1.0000
  H   H55       1.0  0.6416999999999999  0.74242  0.16526  1.0000
  H   H56       1.0  0.46874  0.28529  0.13151  1.0000
  H   H57       1.0  0.46610999999999997  0.35703  0.1026  1.0000
  H   H58       1.0  0.4805799999999999  0.13888  0.2043  1.0000
  H   H59       1.0  0.3423299999999999  0.12230999999999999  0.15718  1.0000
  H   H60       1.0  0.49884  0.5803799999999999  0.14154  1.0000
  H   H61       1.0  0.38022999999999996  0.75662  0.12147  1.0000
  H   H62       1.0  0.586  0.20051999999999995  0.07407  1.0000
  H   H63       1.0  0.64386  0.7493799999999998  0.23438999999999996  1.0000
  H   H64       1.0  0.7313299999999998  0.14667999999999998  0.1565  1.0000
  H   H65       1.0  0.58923  0.12795  0.10299  1.0000
  H   H66       1.0  0.54604  0.06589  0.18471  1.0000
  H   H67       1.0  0.39526  0.9121999999999999  0.19061  1.0000
  H   H68       1.0  0.25348999999999994  0.7459499999999999  0.17588  1.0000
  H   H69       1.0  0.5090099999999999  0.56452  0.0319  1.0000
  H   H70       1.0  0.29435999999999996  0.9867299999999999  0.19974  1.0000
  H   H71       1.0  0.15246  0.8209899999999998  0.18522  1.0000
  H   H72       1.0  0.49656999999999996  0.52828  0.1097  1.0000
  H   H73       1.0  0.47493  0.37501  0.9824999999999999  1.0000
  H   H74       1.0  0.5134  0.4255  0.00034  1.0000
  H   H75       1.0  0.47261  0.31775  0.01564  1.0000
  H   H76       1.0  0.5061  0.26508  0.9970599999999998  1.0000
  H   H77       1.0  0.79803  0.46168999999999993  0.99562  1.0000
  H   H78       1.0  0.8036  0.38419999999999993  0.00921  1.0000
  H   H79       1.0  0.7417599999999998  0.45915999999999996  0.030110000000000005  1.0000
  H   H80       1.0  0.6952899999999997  0.50174  0.01185  1.0000
  H   H81       1.0  0.94433  0.97144  0.77405  1.0000
  H   H82       1.0  0.20378  0.12191  0.8398  1.0000
  H   H83       1.0  0.6297  0.85902  0.8832  1.0000
  H   H84       1.0  0.63981  0.25975999999999994  0.9280600000000001  1.0000
  H   H85       1.0  0.25512999999999997  0.7460099999999998  0.93245  1.0000
  H   H86       1.0  0.30803  0.04163999999999999  0.94901  1.0000
  H   H87       1.0  0.17398  0.9503999999999999  0.9075199999999999  1.0000
  H   H88       1.0  0.41354  0.7708299999999999  0.9370099999999999  1.0000
  H   H89       1.0  0.23668999999999996  0.96934  0.9673800000000001  1.0000
  H   H90       1.0  0.5945499999999999  0.65756  0.9184199999999999  1.0000
  H   H91       1.0  0.24687999999999996  0.16198  0.9011700000000001  1.0000
  H   H92       1.0  0.6869  0.07184  0.89517  1.0000
  H   H93       1.0  0.65354  0.12257999999999997  0.9751999999999998  1.0000
  H   H94       1.0  0.46541  0.8820499999999999  0.92536  1.0000
  H   H95       1.0  0.24242  0.8583  0.9152600000000001  1.0000
  H   H96       1.0  0.78529  0.03126  0.88151  1.0000
  H   H97       1.0  0.8570299999999998  0.03389  0.8526  1.0000
  H   H98       1.0  0.6388799999999998  0.01942  0.95429  1.0000
  H   H99       1.0  0.6223099999999999  0.15766999999999998  0.90718  1.0000
  H   H100      1.0  0.08038  0.0011599999999999998  0.89154  1.0000
  H   H101      1.0  0.25662  0.11976999999999997  0.87147  1.0000
  H   H102      1.0  0.70052  0.914  0.82407  1.0000
  H   H103      1.0  0.24938  0.8561399999999999  0.9843900000000001  1.0000
  H   H104      1.0  0.64668  0.76867  0.9065000000000001  1.0000
  H   H105      1.0  0.62795  0.9107699999999999  0.85299  1.0000
  H   H106      1.0  0.56589  0.95396  0.93471  1.0000
  H   H107      1.0  0.4122  0.10474  0.9406099999999998  1.0000
  H   H108      1.0  0.24594999999999997  0.24651  0.92588  1.0000
  H   H109      1.0  0.06452  0.991  0.7819  1.0000
  H   H110      1.0  0.48672999999999994  0.20563999999999993  0.94974  1.0000
  H   H111      1.0  0.32099  0.34753999999999996  0.93522  1.0000
  H   H112      1.0  0.028279999999999996  0.00343  0.8597  1.0000
  H   H113      1.0  0.8750099999999998  0.02507  0.7325  1.0000
  H   H114      1.0  0.9254899999999999  0.9866  0.75034  1.0000
  H   H115      1.0  0.81775  0.027389999999999998  0.76563  1.0000
  H   H116      1.0  0.76508  0.9938999999999999  0.74706  1.0000
  H   H117      1.0  0.96169  0.7019699999999999  0.74562  1.0000
  H   H118      1.0  0.8841999999999999  0.6963999999999998  0.75921  1.0000
  H   H119      1.0  0.9591599999999998  0.75824  0.78011  1.0000
  H   H120      1.0  0.0017399999999999998  0.80471  0.76185  1.0000
  H   H121      1.0  0.05567  0.028569999999999998  0.27405  1.0000
  H   H122      1.0  0.7962199999999999  0.87809  0.33981  1.0000
  H   H123      1.0  0.3703  0.14098  0.3832  1.0000
  H   H124      1.0  0.36019  0.7402399999999999  0.42807  1.0000
  H   H125      1.0  0.7448699999999998  0.25398999999999994  0.43245  1.0000
  H   H126      1.0  0.6919699999999999  0.95836  0.44901  1.0000
  H   H127      1.0  0.82602  0.049599999999999984  0.40752  1.0000
  H   H128      1.0  0.58646  0.22917  0.43701  1.0000
  H   H129      1.0  0.76331  0.030659999999999996  0.46738  1.0000
  H   H130      1.0  0.4054499999999999  0.34244  0.41842  1.0000
  H   H131      1.0  0.7531199999999999  0.8380199999999999  0.40118  1.0000
  H   H132      1.0  0.3130999999999999  0.92816  0.39517  1.0000
  H   H133      1.0  0.3464599999999999  0.87742  0.4752  1.0000
  H   H134      1.0  0.53459  0.11795  0.42536  1.0000
  H   H135      1.0  0.7575799999999998  0.1417  0.41526  1.0000
  H   H136      1.0  0.21471  0.9687399999999999  0.38151  1.0000
  H   H137      1.0  0.14297  0.96611  0.3526  1.0000
  H   H138      1.0  0.36112  0.9805799999999998  0.4543  1.0000
  H   H139      1.0  0.3776899999999999  0.84233  0.40718  1.0000
  H   H140      1.0  0.9196199999999999  0.99884  0.39154  1.0000
  H   H141      1.0  0.7433799999999999  0.88023  0.37147  1.0000
  H   H142      1.0  0.29948  0.086  0.32407  1.0000
  H   H143      1.0  0.75062  0.14386  0.48439  1.0000
  H   H144      1.0  0.35332  0.23132999999999998  0.4065  1.0000
  H   H145      1.0  0.3720499999999999  0.08923  0.35299  1.0000
  H   H146      1.0  0.4341099999999999  0.04603999999999999  0.43471  1.0000
  H   H147      1.0  0.5878  0.8952599999999998  0.44061  1.0000
  H   H148      1.0  0.75405  0.7534899999999999  0.42588  1.0000
  H   H149      1.0  0.93548  0.009  0.2819  1.0000
  H   H150      1.0  0.51327  0.79436  0.44974  1.0000
  H   H151      1.0  0.67901  0.65246  0.43522  1.0000
  H   H152      1.0  0.9717199999999999  0.99657  0.3597  1.0000
  H   H153      1.0  0.12498999999999999  0.97493  0.23250000000000004  1.0000
  H   H154      1.0  0.0745  0.0134  0.25034  1.0000
  H   H155      1.0  0.18225  0.9726099999999999  0.26564  1.0000
  H   H156      1.0  0.23492  0.006099999999999999  0.24707  1.0000
  H   H157      1.0  0.03831  0.29802999999999996  0.24562  1.0000
  H   H158      1.0  0.11579999999999997  0.3036  0.25921  1.0000
  H   H159      1.0  0.040839999999999994  0.24176  0.28011  1.0000
  H   H160      1.0  0.9982599999999998  0.19529  0.26185  1.0000
  H   H161      1.0  0.028569999999999998  0.05567  0.72595  1.0000
  H   H162      1.0  0.87809  0.7962199999999999  0.66019  1.0000
  H   H163      1.0  0.14098  0.3703  0.6168  1.0000
  H   H164      1.0  0.7402399999999999  0.36019  0.57193  1.0000
  H   H165      1.0  0.25398999999999994  0.7448699999999998  0.56754  1.0000
  H   H166      1.0  0.95836  0.6919699999999999  0.55099  1.0000
  H   H167      1.0  0.049599999999999984  0.82602  0.59247  1.0000
  H   H168      1.0  0.22917  0.58646  0.56299  1.0000
  H   H169      1.0  0.030659999999999996  0.76331  0.53261  1.0000
  H   H170      1.0  0.34244  0.4054499999999999  0.58158  1.0000
  H   H171      1.0  0.8380199999999999  0.7531199999999999  0.59882  1.0000
  H   H172      1.0  0.92816  0.3130999999999999  0.60483  1.0000
  H   H173      1.0  0.87742  0.3464599999999999  0.5248  1.0000
  H   H174      1.0  0.11795  0.53459  0.57463  1.0000
  H   H175      1.0  0.1417  0.7575799999999998  0.58474  1.0000
  H   H176      1.0  0.9687399999999999  0.21471  0.61849  1.0000
  H   H177      1.0  0.96611  0.14297  0.6474  1.0000
  H   H178      1.0  0.9805799999999998  0.36112  0.5457  1.0000
  H   H179      1.0  0.84233  0.3776899999999999  0.59282  1.0000
  H   H180      1.0  0.99884  0.9196199999999999  0.60846  1.0000
  H   H181      1.0  0.88023  0.7433799999999999  0.62853  1.0000
  H   H182      1.0  0.086  0.29948  0.67593  1.0000
  H   H183      1.0  0.14386  0.75062  0.51561  1.0000
  H   H184      1.0  0.23132999999999998  0.35332  0.5935  1.0000
  H   H185      1.0  0.08923  0.3720499999999999  0.64701  1.0000
  H   H186      1.0  0.04603999999999999  0.4341099999999999  0.56529  1.0000
  H   H187      1.0  0.8952599999999998  0.5878  0.55939  1.0000
  H   H188      1.0  0.7534899999999999  0.75405  0.57412  1.0000
  H   H189      1.0  0.009  0.93548  0.7181  1.0000
  H   H190      1.0  0.79436  0.51327  0.55026  1.0000
  H   H191      1.0  0.65246  0.67901  0.56477  1.0000
  H   H192      1.0  0.99657  0.9717199999999999  0.6403  1.0000
  H   H193      1.0  0.97493  0.12498999999999999  0.7675  1.0000
  H   H194      1.0  0.0134  0.07451  0.74966  1.0000
  H   H195      1.0  0.9726099999999999  0.18225  0.73436  1.0000
  H   H196      1.0  0.006099999999999999  0.23492  0.75293  1.0000
  H   H197      1.0  0.29802999999999996  0.03831  0.75438  1.0000
  H   H198      1.0  0.3036  0.11579999999999997  0.74079  1.0000
  H   H199      1.0  0.24176  0.040839999999999994  0.71989  1.0000
  H   H200      1.0  0.19529  0.9982599999999998  0.73815  1.0000
  H   H201      1.0  0.97143  0.94433  0.22595  1.0000
  H   H202      1.0  0.12191  0.20378  0.16019  1.0000
  H   H203      1.0  0.85902  0.6297  0.1168  1.0000
  H   H204      1.0  0.25975999999999994  0.63981  0.07193  1.0000
  H   H205      1.0  0.7460099999999998  0.25512999999999997  0.06755  1.0000
  H   H206      1.0  0.04163999999999999  0.30803  0.05099  1.0000
  H   H207      1.0  0.9503999999999999  0.17398  0.09247  1.0000
  H   H208      1.0  0.7708299999999999  0.41354  0.06299  1.0000
  H   H209      1.0  0.96934  0.23668999999999996  0.03262  1.0000
  H   H210      1.0  0.65756  0.5945499999999999  0.08158  1.0000
  H   H211      1.0  0.16198  0.24687999999999996  0.09882  1.0000
  H   H212      1.0  0.07184  0.6869  0.10483  1.0000
  H   H213      1.0  0.12257999999999997  0.65354  0.0248  1.0000
  H   H214      1.0  0.8820499999999999  0.46541  0.07464  1.0000
  H   H215      1.0  0.8583  0.24242  0.08474  1.0000
  H   H216      1.0  0.03126  0.78529  0.11849000000000001  1.0000
  H   H217      1.0  0.03389  0.8570299999999998  0.1474  1.0000
  H   H218      1.0  0.01942  0.6388799999999998  0.0457  1.0000
  H   H219      1.0  0.15766999999999998  0.6223099999999999  0.09282  1.0000
  H   H220      1.0  0.0011599999999999998  0.08038  0.10846  1.0000
  H   H221      1.0  0.11976999999999997  0.25662  0.12853  1.0000
  H   H222      1.0  0.914  0.70052  0.17593  1.0000
  H   H223      1.0  0.8561399999999999  0.24938  0.01561  1.0000
  H   H224      1.0  0.76867  0.64668  0.0935  1.0000
  H   H225      1.0  0.9107699999999999  0.62795  0.14701  1.0000
  H   H226      1.0  0.95396  0.56589  0.06529  1.0000
  H   H227      1.0  0.10473  0.4122  0.05939  1.0000
  H   H228      1.0  0.24651  0.24594999999999997  0.07412  1.0000
  H   H229      1.0  0.991  0.06452  0.2181  1.0000
  H   H230      1.0  0.20563999999999993  0.48672999999999994  0.05026  1.0000
  H   H231      1.0  0.34753999999999996  0.32099  0.06477  1.0000
  H   H232      1.0  0.00343  0.028279999999999996  0.1403  1.0000
  H   H233      1.0  0.02507  0.8750099999999998  0.2675  1.0000
  H   H234      1.0  0.9866  0.9254899999999999  0.24965999999999997  1.0000
  H   H235      1.0  0.027389999999999998  0.81775  0.23436000000000004  1.0000
  H   H236      1.0  0.9938999999999999  0.76508  0.25293  1.0000
  H   H237      1.0  0.7019699999999999  0.96169  0.25438  1.0000
  H   H238      1.0  0.6963999999999998  0.8841999999999999  0.24079000000000003  1.0000
  H   H239      1.0  0.75824  0.9591599999999998  0.21989  1.0000
  H   H240      1.0  0.80471  0.0017399999999999998  0.23814999999999997  1.0000
  H   H241      1.0  0.55567  0.47143  0.47595  1.0000
  H   H242      1.0  0.2962199999999999  0.6219099999999999  0.41019  1.0000
  H   H243      1.0  0.8703  0.35902  0.3668  1.0000
  H   H244      1.0  0.8601899999999999  0.75976  0.32193  1.0000
  H   H245      1.0  0.24486999999999998  0.24601  0.31754  1.0000
  H   H246      1.0  0.19197  0.54164  0.30099  1.0000
  H   H247      1.0  0.32602  0.45039999999999997  0.34247  1.0000
  H   H248      1.0  0.08646  0.27083  0.31299  1.0000
  H   H249      1.0  0.26331  0.4693399999999999  0.28262  1.0000
  H   H250      1.0  0.9054499999999999  0.15756  0.33158  1.0000
  H   H251      1.0  0.25312  0.6619799999999999  0.34882  1.0000
  H   H252      1.0  0.8130999999999998  0.5718399999999999  0.35483  1.0000
  H   H253      1.0  0.8464599999999999  0.62258  0.2748  1.0000
  H   H254      1.0  0.03459  0.38205  0.32464  1.0000
  H   H255      1.0  0.25758  0.3583  0.33474  1.0000
  H   H256      1.0  0.7147099999999998  0.5312599999999998  0.36849  1.0000
  H   H257      1.0  0.64297  0.53389  0.3974  1.0000
  H   H258      1.0  0.8611199999999999  0.51942  0.2957  1.0000
  H   H259      1.0  0.8776899999999999  0.6576699999999999  0.34282  1.0000
  H   H260      1.0  0.41962  0.50116  0.35846  1.0000
  H   H261      1.0  0.24338  0.6197699999999998  0.37853  1.0000
  H   H262      1.0  0.7994799999999997  0.414  0.42593  1.0000
  H   H263      1.0  0.25061999999999995  0.3561399999999999  0.26561  1.0000
  H   H264      1.0  0.85332  0.26866999999999996  0.3435  1.0000
  H   H265      1.0  0.8720499999999999  0.41077  0.39701  1.0000
  H   H266      1.0  0.93411  0.45396  0.31529  1.0000
  H   H267      1.0  0.08779999999999998  0.60473  0.30939  1.0000
  H   H268      1.0  0.25405  0.74651  0.32412  1.0000
  H   H269      1.0  0.43548  0.49098999999999987  0.46809999999999996  1.0000
  H   H270      1.0  0.01327  0.70564  0.30026  1.0000
  H   H271      1.0  0.17901  0.84754  0.31477  1.0000
  H   H272      1.0  0.4717199999999999  0.50343  0.3903  1.0000
  H   H273      1.0  0.6249899999999999  0.52507  0.5175  1.0000
  H   H274      1.0  0.5744999999999999  0.4865999999999999  0.49966  1.0000
  H   H275      1.0  0.68225  0.52739  0.48436  1.0000
  H   H276      1.0  0.73492  0.49389999999999995  0.50293  1.0000
  H   H277      1.0  0.53831  0.20197  0.50438  1.0000
  H   H278      1.0  0.6157999999999999  0.19639999999999994  0.49078999999999995  1.0000
  H   H279      1.0  0.54084  0.25824  0.46989  1.0000
  H   H280      1.0  0.49826  0.30471  0.48815  1.0000
  H   H281      1.0  0.44433  0.52857  0.97595  1.0000
  H   H282      1.0  0.70378  0.3780899999999999  0.9101900000000002  1.0000
  H   H283      1.0  0.12969999999999998  0.64098  0.8668  1.0000
  H   H284      1.0  0.13981  0.24024  0.82193  1.0000
  H   H285      1.0  0.75513  0.75399  0.81754  1.0000
  H   H286      1.0  0.80803  0.4583599999999999  0.80099  1.0000
  H   H287      1.0  0.6739799999999998  0.5496  0.84247  1.0000
  H   H288      1.0  0.9135399999999999  0.72917  0.81299  1.0000
  H   H289      1.0  0.73669  0.53066  0.78261  1.0000
  H   H290      1.0  0.09455  0.8424399999999999  0.83158  1.0000
  H   H291      1.0  0.74688  0.3380199999999999  0.84882  1.0000
  H   H292      1.0  0.1869  0.42816  0.85483  1.0000
  H   H293      1.0  0.15354  0.37741999999999987  0.7748  1.0000
  H   H294      1.0  0.96541  0.61795  0.82463  1.0000
  H   H295      1.0  0.74242  0.6416999999999999  0.83474  1.0000
  H   H296      1.0  0.28529  0.46874  0.86849  1.0000
  H   H297      1.0  0.35703  0.46610999999999997  0.8974  1.0000
  H   H298      1.0  0.13888  0.4805799999999999  0.7957  1.0000
  H   H299      1.0  0.12230999999999999  0.3423299999999999  0.84281  1.0000
  H   H300      1.0  0.5803799999999999  0.49884  0.85846  1.0000
  H   H301      1.0  0.75662  0.38022999999999996  0.87853  1.0000
  H   H302      1.0  0.20051999999999995  0.586  0.92593  1.0000
  H   H303      1.0  0.7493799999999998  0.64386  0.76561  1.0000
  H   H304      1.0  0.14667999999999998  0.7313299999999998  0.8435  1.0000
  H   H305      1.0  0.12795  0.58923  0.89701  1.0000
  H   H306      1.0  0.06589  0.54604  0.81529  1.0000
  H   H307      1.0  0.9121999999999999  0.3952699999999999  0.80939  1.0000
  H   H308      1.0  0.7459499999999999  0.25348999999999994  0.82412  1.0000
  H   H309      1.0  0.56452  0.5090099999999999  0.9681  1.0000
  H   H310      1.0  0.9867299999999999  0.29435999999999996  0.80026  1.0000
  H   H311      1.0  0.8209899999999998  0.15246  0.81477  1.0000
  H   H312      1.0  0.52828  0.49656999999999996  0.8902999999999999  1.0000
  H   H313      1.0  0.37501  0.47493  0.0175  1.0000
  H   H314      1.0  0.4255  0.5134  0.99965  1.0000
  H   H315      1.0  0.31775  0.47261  0.98436  1.0000
  H   H316      1.0  0.26508  0.5061  0.00293  1.0000
  H   H317      1.0  0.46168999999999993  0.79803  0.00438  1.0000
  H   H318      1.0  0.38419999999999993  0.8036  0.9907899999999998  1.0000
  H   H319      1.0  0.45915999999999996  0.7417599999999998  0.96988  1.0000
  H   H320      1.0  0.50174  0.6952899999999997  0.9881499999999999  1.0000
  C   C1        1.0  0.6973999999999998  0.85124  0.70285  1.0000
  C   C2        1.0  0.56257  0.38694  0.59788  1.0000
  C   C3        1.0  0.42204  0.26003  0.6901  1.0000
  C   C4        1.0  0.5567  0.29392  0.65225  1.0000
  C   C5        1.0  0.20769  0.9984999999999999  0.67876  1.0000
  C   C6        1.0  0.47081  0.6711  0.56992  1.0000
  C   C7        1.0  0.3332  0.9397799999999998  0.66537  1.0000
  C   C8        1.0  0.4665099999999999  0.83825  0.63694  1.0000
  C   C9        1.0  0.59607  0.32282  0.60128  1.0000
  C   C10       1.0  0.40446  0.8719699999999999  0.64231  1.0000
  C   C11       1.0  0.56321  0.4173  0.57891  1.0000
  C   C12       1.0  0.7068499999999999  0.8600999999999999  0.68361  1.0000
  C   C13       1.0  0.29521  0.25017  0.68991  1.0000
  C   C14       1.0  0.5462  0.2214  0.68611  1.0000
  C   C15       1.0  0.49494999999999995  0.29663  0.66278  1.0000
  C   C16       1.0  0.3996399999999999  0.90682  0.65944  1.0000
  C   C17       1.0  0.27116  0.03513  0.68047  1.0000
  C   C18       1.0  0.52037  0.87368  0.66641  1.0000
  C   C19       1.0  0.4742099999999999  0.7170499999999999  0.58661  1.0000
  C   C20       1.0  0.42050999999999994  0.25905999999999996  0.70968  1.0000
  C   C21       1.0  0.20692  0.93333  0.66979  1.0000
  C   C22       1.0  0.29431  0.24667  0.70942  1.0000
  C   C23       1.0  0.581  0.86956  0.67918  1.0000
  C   C24       1.0  0.61371  0.25561  0.65916  1.0000
  C   C25       1.0  0.52387  0.8398699999999999  0.6491  1.0000
  C   C26       1.0  0.62947  0.8529699999999999  0.71027  1.0000
  C   C27       1.0  0.48885999999999996  0.26055  0.67972  1.0000
  C   C28       1.0  0.33314  0.005889999999999999  0.67398  1.0000
  C   C29       1.0  0.35810999999999993  0.25728  0.68039  1.0000
  C   C30       1.0  0.50654  0.7340099999999999  0.61888  1.0000
  C   C31       1.0  0.508  0.69364  0.60279  1.0000
  C   C32       1.0  0.47058  0.79833  0.61933  1.0000
  C   C33       1.0  0.57207  0.86198  0.69854  1.0000
  C   C34       1.0  0.6495599999999998  0.86953  0.672  1.0000
  C   C35       1.0  0.5271999999999999  0.39222  0.63022  1.0000
  C   C36       1.0  0.56023  0.32766  0.63375  1.0000
  C   C37       1.0  0.5950899999999999  0.29383  0.61901  1.0000
  C   C38       1.0  0.43973999999999996  0.7819199999999997  0.58674  1.0000
  C   C39       1.0  0.14328999999999995  0.029409999999999995  0.68702  1.0000
  C   C40       1.0  0.3574  0.25267  0.71927  1.0000
  C   C41       1.0  0.26904  0.90461  0.66307  1.0000
  C   C42       1.0  0.43767  0.82186  0.60296  1.0000
  C   C43       1.0  0.45796999999999993  0.90772  0.67134  1.0000
  C   C44       1.0  0.65774  0.10828  0.68965  1.0000
  C   C45       1.0  0.73763  0.20126999999999995  0.68104  1.0000
  C   C46       1.0  0.66863  0.17598  0.68249  1.0000
  C   C47       1.0  0.7140799999999998  0.06633  0.69475  1.0000
  C   C48       1.0  0.7941  0.15992  0.68636  1.0000
  C   C49       1.0  0.52855  0.42174  0.61252  1.0000
  C   C50       1.0  0.6089399999999999  0.21881  0.67601  1.0000
  C   C51       1.0  0.78275  0.09184  0.69307  1.0000
  C   C52       1.0  0.84317  0.04653999999999999  0.69756  1.0000
  C   C53       1.0  0.22771999999999998  0.22783999999999996  0.719  1.0000
  C   C54       1.0  0.76003  0.8442799999999999  0.71491  1.0000
  C   C55       1.0  0.48183  0.62405  0.49257  1.0000
  C   C56       1.0  0.48481  0.6876299999999999  0.50546  1.0000
  C   C57       1.0  0.23329  0.58039  0.50201  1.0000
  C   C58       1.0  0.284  0.54895  0.51661  1.0000
  C   C59       1.0  0.3026  0.14876  0.20285  1.0000
  C   C60       1.0  0.43742999999999993  0.61306  0.09788  1.0000
  C   C61       1.0  0.57796  0.73997  0.1901  1.0000
  C   C62       1.0  0.4433  0.7060799999999999  0.15225  1.0000
  C   C63       1.0  0.7923099999999998  0.0014999999999999998  0.17876  1.0000
  C   C64       1.0  0.52919  0.3289  0.06992  1.0000
  C   C65       1.0  0.6668  0.06022  0.16537  1.0000
  C   C66       1.0  0.53349  0.16175  0.13694  1.0000
  C   C67       1.0  0.40393  0.6771799999999998  0.10128  1.0000
  C   C68       1.0  0.59554  0.12802999999999998  0.14231  1.0000
  C   C69       1.0  0.43679  0.5826999999999998  0.07891  1.0000
  C   C70       1.0  0.29315  0.1399  0.18361  1.0000
  C   C71       1.0  0.70479  0.74983  0.18991  1.0000
  C   C72       1.0  0.4537999999999999  0.7785999999999998  0.18611  1.0000
  C   C73       1.0  0.50505  0.7033699999999998  0.16278  1.0000
  C   C74       1.0  0.60036  0.09317999999999999  0.15944  1.0000
  C   C75       1.0  0.7288399999999999  0.96487  0.18047  1.0000
  C   C76       1.0  0.47963  0.12632  0.16641  1.0000
  C   C77       1.0  0.52579  0.28295  0.08661  1.0000
  C   C78       1.0  0.57949  0.74094  0.20968  1.0000
  C   C79       1.0  0.7930799999999998  0.06667  0.16979  1.0000
  C   C80       1.0  0.70569  0.75333  0.20942  1.0000
  C   C81       1.0  0.41899999999999993  0.13044  0.17918  1.0000
  C   C82       1.0  0.38629  0.74439  0.15916  1.0000
  C   C83       1.0  0.47613  0.16013  0.1491  1.0000
  C   C84       1.0  0.37053  0.14703  0.21027  1.0000
  C   C85       1.0  0.51114  0.73945  0.17972  1.0000
  C   C86       1.0  0.66686  0.99411  0.17398  1.0000
  C   C87       1.0  0.64189  0.7427199999999999  0.18039  1.0000
  C   C88       1.0  0.4934599999999999  0.26599  0.11888  1.0000
  C   C89       1.0  0.492  0.30636  0.10279  1.0000
  C   C90       1.0  0.52942  0.20166999999999993  0.11932999999999999  1.0000
  C   C91       1.0  0.4279299999999999  0.13801999999999998  0.19854  1.0000
  C   C92       1.0  0.35044  0.13047  0.172  1.0000
  C   C93       1.0  0.4728  0.60778  0.13022  1.0000
  C   C94       1.0  0.43976999999999994  0.67234  0.13375  1.0000
  C   C95       1.0  0.4049099999999999  0.7061699999999999  0.11901  1.0000
  C   C96       1.0  0.56026  0.21808  0.08674  1.0000
  C   C97       1.0  0.85671  0.97059  0.18702  1.0000
  C   C98       1.0  0.6426  0.74733  0.21927  1.0000
  C   C99       1.0  0.7309599999999998  0.09538999999999997  0.16307  1.0000
  C   C100      1.0  0.5623299999999999  0.17814  0.10296  1.0000
  C   C101      1.0  0.54203  0.09227999999999999  0.17134  1.0000
  C   C102      1.0  0.3422599999999999  0.89172  0.18965  1.0000
  C   C103      1.0  0.26237  0.7987299999999999  0.18104  1.0000
  C   C104      1.0  0.33137  0.82402  0.18249  1.0000
  C   C105      1.0  0.28591999999999995  0.93367  0.19476  1.0000
  C   C106      1.0  0.2059  0.84008  0.18636  1.0000
  C   C107      1.0  0.47145  0.57826  0.11252  1.0000
  C   C108      1.0  0.39106  0.78119  0.17601  1.0000
  C   C109      1.0  0.21725  0.90816  0.19307  1.0000
  C   C110      1.0  0.15683  0.9534599999999999  0.19756  1.0000
  C   C111      1.0  0.77228  0.77216  0.219  1.0000
  C   C112      1.0  0.23996999999999996  0.15571999999999997  0.21491  1.0000
  C   C113      1.0  0.51817  0.37595  0.9925699999999998  1.0000
  C   C114      1.0  0.51519  0.3123699999999999  0.00546  1.0000
  C   C115      1.0  0.76671  0.41961  0.00201  1.0000
  C   C116      1.0  0.716  0.45105  0.01661  1.0000
  C   C117      1.0  0.6487599999999999  0.19739999999999994  0.9528499999999999  1.0000
  C   C118      1.0  0.11306  0.06257  0.84788  1.0000
  C   C119      1.0  0.23996999999999996  0.9220399999999999  0.9401  1.0000
  C   C120      1.0  0.20607999999999999  0.05669999999999999  0.90225  1.0000
  C   C121      1.0  0.5014999999999998  0.70769  0.9287599999999999  1.0000
  C   C122      1.0  0.8288999999999997  0.97081  0.81992  1.0000
  C   C123      1.0  0.56022  0.8332  0.9153699999999999  1.0000
  C   C124      1.0  0.66175  0.96651  0.88694  1.0000
  C   C125      1.0  0.17718  0.09607  0.85128  1.0000
  C   C126      1.0  0.62803  0.90446  0.8923100000000002  1.0000
  C   C127      1.0  0.0827  0.06321  0.82891  1.0000
  C   C128      1.0  0.6398999999999999  0.20685  0.9336099999999999  1.0000
  C   C129      1.0  0.24982999999999994  0.79521  0.93991  1.0000
  C   C130      1.0  0.2786  0.0462  0.93611  1.0000
  C   C131      1.0  0.20337  0.99495  0.9127800000000001  1.0000
  C   C132      1.0  0.5931799999999998  0.8996399999999998  0.90944  1.0000
  C   C133      1.0  0.4648699999999999  0.77116  0.93047  1.0000
  C   C134      1.0  0.62632  0.02037  0.91641  1.0000
  C   C135      1.0  0.78295  0.97421  0.8366  1.0000
  C   C136      1.0  0.24094  0.92051  0.9596800000000001  1.0000
  C   C137      1.0  0.56667  0.70692  0.9197899999999999  1.0000
  C   C138      1.0  0.25333  0.7943099999999998  0.95942  1.0000
  C   C139      1.0  0.63044  0.081  0.9291800000000001  1.0000
  C   C140      1.0  0.24438999999999997  0.11371  0.90916  1.0000
  C   C141      1.0  0.6601299999999998  0.02387  0.8991  1.0000
  C   C142      1.0  0.64703  0.12947  0.96027  1.0000
  C   C143      1.0  0.23944999999999997  0.9888599999999999  0.9297199999999999  1.0000
  C   C144      1.0  0.49410999999999994  0.83314  0.9239799999999999  1.0000
  C   C145      1.0  0.24271999999999996  0.85811  0.93039  1.0000
  C   C146      1.0  0.76599  0.006539999999999999  0.86888  1.0000
  C   C147      1.0  0.8063599999999999  0.008  0.85279  1.0000
  C   C148      1.0  0.70167  0.97058  0.86933  1.0000
  C   C149      1.0  0.6380199999999999  0.07206999999999998  0.9485400000000002  1.0000
  C   C150      1.0  0.63047  0.14956  0.9220000000000002  1.0000
  C   C151      1.0  0.10778  0.0272  0.88022  1.0000
  C   C152      1.0  0.17234  0.06023  0.88375  1.0000
  C   C153      1.0  0.20617  0.09508999999999998  0.86901  1.0000
  C   C154      1.0  0.71808  0.9397399999999999  0.83674  1.0000
  C   C155      1.0  0.47059  0.64329  0.93702  1.0000
  C   C156      1.0  0.24732999999999994  0.8573999999999999  0.96927  1.0000
  C   C157      1.0  0.59539  0.76904  0.91307  1.0000
  C   C158      1.0  0.67814  0.93767  0.85296  1.0000
  C   C159      1.0  0.59228  0.9579699999999999  0.9213400000000002  1.0000
  C   C160      1.0  0.39172  0.15774  0.9396499999999999  1.0000
  C   C161      1.0  0.29872999999999994  0.23763  0.9310399999999999  1.0000
  C   C162      1.0  0.32402  0.16862999999999997  0.9324899999999999  1.0000
  C   C163      1.0  0.43367  0.21408  0.9447499999999999  1.0000
  C   C164      1.0  0.34008  0.2941  0.93636  1.0000
  C   C165      1.0  0.07825999999999998  0.028549999999999996  0.86252  1.0000
  C   C166      1.0  0.28119  0.10893999999999998  0.9260099999999999  1.0000
  C   C167      1.0  0.40816  0.28274999999999995  0.9430699999999999  1.0000
  C   C168      1.0  0.4534599999999999  0.34317  0.9475600000000001  1.0000
  C   C169      1.0  0.27216  0.72772  0.9690000000000001  1.0000
  C   C170      1.0  0.65572  0.26003  0.96491  1.0000
  C   C171      1.0  0.8759499999999999  0.98183  0.74257  1.0000
  C   C172      1.0  0.81237  0.9848099999999997  0.75546  1.0000
  C   C173      1.0  0.91961  0.73329  0.75201  1.0000
  C   C174      1.0  0.9510499999999997  0.7839999999999998  0.76661  1.0000
  C   C175      1.0  0.35123999999999994  0.8026  0.45285  1.0000
  C   C176      1.0  0.8869399999999998  0.93743  0.34788  1.0000
  C   C177      1.0  0.76003  0.07795999999999999  0.4401  1.0000
  C   C178      1.0  0.79392  0.9432999999999999  0.40225  1.0000
  C   C179      1.0  0.4985  0.29231  0.42876  1.0000
  C   C180      1.0  0.17109999999999997  0.02919  0.31992  1.0000
  C   C181      1.0  0.4397799999999999  0.1668  0.41537  1.0000
  C   C182      1.0  0.33825  0.03349  0.38694  1.0000
  C   C183      1.0  0.82282  0.90393  0.35128  1.0000
  C   C184      1.0  0.37197  0.09553999999999997  0.39231  1.0000
  C   C185      1.0  0.9172999999999999  0.9367899999999999  0.32891  1.0000
  C   C186      1.0  0.3601  0.79315  0.43361  1.0000
  C   C187      1.0  0.75017  0.20478999999999994  0.43991  1.0000
  C   C188      1.0  0.7214  0.9537999999999999  0.43611  1.0000
  C   C189      1.0  0.79663  0.00505  0.41278  1.0000
  C   C190      1.0  0.40681999999999996  0.10036  0.40944  1.0000
  C   C191      1.0  0.53513  0.22883999999999996  0.43047  1.0000
  C   C192      1.0  0.37368  0.9796299999999999  0.41641  1.0000
  C   C193      1.0  0.21704999999999997  0.02579  0.33661  1.0000
  C   C194      1.0  0.75906  0.07949  0.45968  1.0000
  C   C195      1.0  0.43333  0.29308  0.41979  1.0000
  C   C196      1.0  0.7466699999999998  0.20569  0.45942  1.0000
  C   C197      1.0  0.36956  0.9189999999999998  0.42918  1.0000
  C   C198      1.0  0.7556099999999998  0.8862899999999999  0.40916  1.0000
  C   C199      1.0  0.33987  0.97613  0.3991  1.0000
  C   C200      1.0  0.3529699999999999  0.87053  0.46027  1.0000
  C   C201      1.0  0.7605499999999998  0.011139999999999999  0.42972  1.0000
  C   C202      1.0  0.50589  0.16685999999999995  0.42398  1.0000
  C   C203      1.0  0.75728  0.14188999999999996  0.43039  1.0000
  C   C204      1.0  0.23400999999999997  0.99346  0.36888  1.0000
  C   C205      1.0  0.19364  0.992  0.35279  1.0000
  C   C206      1.0  0.29833  0.02942  0.36933  1.0000
  C   C207      1.0  0.3619799999999999  0.92793  0.44854000000000005  1.0000
  C   C208      1.0  0.36953  0.8504399999999999  0.422  1.0000
  C   C209      1.0  0.8922199999999999  0.9727999999999999  0.38022  1.0000
  C   C210      1.0  0.82766  0.93977  0.38375  1.0000
  C   C211      1.0  0.79383  0.90491  0.36901  1.0000
  C   C212      1.0  0.28192  0.060259999999999994  0.33674  1.0000
  C   C213      1.0  0.52941  0.35670999999999997  0.43702  1.0000
  C   C214      1.0  0.7526699999999997  0.1426  0.46927  1.0000
  C   C215      1.0  0.4046099999999999  0.23096  0.41307  1.0000
  C   C216      1.0  0.32186  0.06233  0.35296  1.0000
  C   C217      1.0  0.40771999999999997  0.04203  0.42134  1.0000
  C   C218      1.0  0.60827  0.84226  0.43965  1.0000
  C   C219      1.0  0.70127  0.76237  0.43104  1.0000
  C   C220      1.0  0.6759799999999998  0.83137  0.43249  1.0000
  C   C221      1.0  0.5663299999999999  0.78592  0.44475  1.0000
  C   C222      1.0  0.65992  0.7059  0.43636  1.0000
  C   C223      1.0  0.92174  0.97145  0.36252  1.0000
  C   C224      1.0  0.71881  0.89106  0.42601  1.0000
  C   C225      1.0  0.59184  0.7172499999999998  0.44307  1.0000
  C   C226      1.0  0.54654  0.65683  0.44756  1.0000
  C   C227      1.0  0.7278399999999999  0.27228  0.469  1.0000
  C   C228      1.0  0.34428  0.73997  0.46490999999999993  1.0000
  C   C229      1.0  0.12405  0.018169999999999995  0.24256999999999998  1.0000
  C   C230      1.0  0.18763  0.015189999999999999  0.25546  1.0000
  C   C231      1.0  0.08039  0.26671  0.25201  1.0000
  C   C232      1.0  0.04894999999999999  0.216  0.26661  1.0000
  C   C233      1.0  0.8026  0.35123999999999994  0.54715  1.0000
  C   C234      1.0  0.93743  0.8869399999999998  0.65211  1.0000
  C   C235      1.0  0.07795999999999999  0.76003  0.5599  1.0000
  C   C236      1.0  0.9432999999999999  0.79392  0.59775  1.0000
  C   C237      1.0  0.29231  0.4985  0.57123  1.0000
  C   C238      1.0  0.02919  0.17109999999999997  0.68008  1.0000
  C   C239      1.0  0.1668  0.4397799999999999  0.58462  1.0000
  C   C240      1.0  0.03349  0.33825  0.61306  1.0000
  C   C241      1.0  0.90393  0.82282  0.64872  1.0000
  C   C242      1.0  0.09553999999999997  0.37197  0.60769  1.0000
  C   C243      1.0  0.9367899999999999  0.9172999999999999  0.67109  1.0000
  C   C244      1.0  0.79315  0.3601  0.56639  1.0000
  C   C245      1.0  0.20478999999999994  0.75017  0.56009  1.0000
  C   C246      1.0  0.9537999999999999  0.7214  0.56389  1.0000
  C   C247      1.0  0.00505  0.79663  0.58722  1.0000
  C   C248      1.0  0.10036  0.40681999999999996  0.59056  1.0000
  C   C249      1.0  0.22883999999999996  0.53513  0.56953  1.0000
  C   C250      1.0  0.9796299999999999  0.37368  0.58359  1.0000
  C   C251      1.0  0.02579  0.21704999999999997  0.66339  1.0000
  C   C252      1.0  0.07949  0.75906  0.54032  1.0000
  C   C253      1.0  0.29308  0.43333  0.58021  1.0000
  C   C254      1.0  0.20569  0.7466699999999998  0.54058  1.0000
  C   C255      1.0  0.9189999999999998  0.36956  0.57082  1.0000
  C   C256      1.0  0.8862899999999999  0.7556099999999998  0.59083  1.0000
  C   C257      1.0  0.97613  0.33987  0.6009  1.0000
  C   C258      1.0  0.87053  0.3529699999999999  0.53973  1.0000
  C   C259      1.0  0.011139999999999999  0.7605499999999998  0.57028  1.0000
  C   C260      1.0  0.16685999999999995  0.50589  0.57602  1.0000
  C   C261      1.0  0.14188999999999996  0.75728  0.56961  1.0000
  C   C262      1.0  0.99346  0.23400999999999997  0.63112  1.0000
  C   C263      1.0  0.992  0.19364  0.6472  1.0000
  C   C264      1.0  0.02942  0.29833  0.63067  1.0000
  C   C265      1.0  0.92793  0.3619799999999999  0.55146  1.0000
  C   C266      1.0  0.8504399999999999  0.36953  0.578  1.0000
  C   C267      1.0  0.9727999999999999  0.8922199999999999  0.61978  1.0000
  C   C268      1.0  0.93977  0.82766  0.61625  1.0000
  C   C269      1.0  0.90491  0.79383  0.63099  1.0000
  C   C270      1.0  0.060259999999999994  0.28192  0.66326  1.0000
  C   C271      1.0  0.35670999999999997  0.52941  0.56298  1.0000
  C   C272      1.0  0.1426  0.7526699999999997  0.53073  1.0000
  C   C273      1.0  0.23096  0.4046099999999999  0.58693  1.0000
  C   C274      1.0  0.06233  0.32186  0.64704  1.0000
  C   C275      1.0  0.04203  0.40771999999999997  0.57866  1.0000
  C   C276      1.0  0.84226  0.60828  0.56035  1.0000
  C   C277      1.0  0.76237  0.70127  0.56896  1.0000
  C   C278      1.0  0.83137  0.6759799999999998  0.56751  1.0000
  C   C279      1.0  0.78592  0.5663299999999999  0.55524  1.0000
  C   C280      1.0  0.7059  0.65992  0.56363  1.0000
  C   C281      1.0  0.97145  0.92174  0.63748  1.0000
  C   C282      1.0  0.89106  0.71881  0.57399  1.0000
  C   C283      1.0  0.7172499999999998  0.59184  0.55693  1.0000
  C   C284      1.0  0.65683  0.54654  0.55244  1.0000
  C   C285      1.0  0.27228  0.7278399999999999  0.53099  1.0000
  C   C286      1.0  0.73997  0.34428  0.53509  1.0000
  C   C287      1.0  0.018169999999999995  0.12405  0.75743  1.0000
  C   C288      1.0  0.015189999999999999  0.18763  0.74454  1.0000
  C   C289      1.0  0.26671  0.08039  0.74799  1.0000
  C   C290      1.0  0.216  0.04894999999999999  0.73339  1.0000
  C   C291      1.0  0.19739999999999994  0.6487599999999999  0.04715  1.0000
  C   C292      1.0  0.06257  0.11306  0.15212  1.0000
  C   C293      1.0  0.9220399999999999  0.23996999999999996  0.0599  1.0000
  C   C294      1.0  0.05669999999999999  0.20607999999999999  0.09775  1.0000
  C   C295      1.0  0.70769  0.5014999999999998  0.07124  1.0000
  C   C296      1.0  0.97081  0.8288999999999997  0.18008  1.0000
  C   C297      1.0  0.8332  0.56022  0.08462  1.0000
  C   C298      1.0  0.96651  0.66175  0.11306  1.0000
  C   C299      1.0  0.09607  0.17718  0.14872  1.0000
  C   C300      1.0  0.90446  0.62803  0.10769  1.0000
  C   C301      1.0  0.06321  0.0827  0.17109  1.0000
  C   C302      1.0  0.20685  0.6398999999999999  0.06639  1.0000
  C   C303      1.0  0.79521  0.24982999999999994  0.06009  1.0000
  C   C304      1.0  0.0462  0.2786  0.06389  1.0000
  C   C305      1.0  0.99495  0.20337  0.08722  1.0000
  C   C306      1.0  0.8996399999999998  0.5931799999999998  0.09056  1.0000
  C   C307      1.0  0.77116  0.4648699999999999  0.06953  1.0000
  C   C308      1.0  0.02037  0.62632  0.08359  1.0000
  C   C309      1.0  0.97421  0.78295  0.16339  1.0000
  C   C310      1.0  0.92051  0.24094  0.04032  1.0000
  C   C311      1.0  0.70692  0.56667  0.08021  1.0000
  C   C312      1.0  0.7943099999999998  0.25333  0.04058  1.0000
  C   C313      1.0  0.081  0.63044  0.07082  1.0000
  C   C314      1.0  0.11371  0.24438999999999997  0.09083  1.0000
  C   C315      1.0  0.02387  0.6601299999999998  0.1009  1.0000
  C   C316      1.0  0.12947  0.64703  0.03973  1.0000
  C   C317      1.0  0.9888599999999999  0.23944999999999997  0.07028  1.0000
  C   C318      1.0  0.83314  0.49410999999999994  0.07602  1.0000
  C   C319      1.0  0.85811  0.24271999999999996  0.06961  1.0000
  C   C320      1.0  0.006539999999999999  0.76599  0.13112  1.0000
  C   C321      1.0  0.008  0.8063599999999999  0.1472  1.0000
  C   C322      1.0  0.97058  0.70167  0.13067  1.0000
  C   C323      1.0  0.07206999999999998  0.6380199999999999  0.05146  1.0000
  C   C324      1.0  0.14956  0.63047  0.078  1.0000
  C   C325      1.0  0.0272  0.10778  0.11978  1.0000
  C   C326      1.0  0.06023  0.17234  0.11625000000000002  1.0000
  C   C327      1.0  0.09508999999999998  0.20617  0.13099  1.0000
  C   C328      1.0  0.9397399999999999  0.71808  0.16326  1.0000
  C   C329      1.0  0.64329  0.47059  0.06298  1.0000
  C   C330      1.0  0.8573999999999999  0.24732999999999994  0.030729999999999997  1.0000
  C   C331      1.0  0.76904  0.59539  0.08693  1.0000
  C   C332      1.0  0.93767  0.67814  0.14704  1.0000
  C   C333      1.0  0.9579699999999999  0.59228  0.07866  1.0000
  C   C334      1.0  0.15774  0.39172  0.06035000000000001  1.0000
  C   C335      1.0  0.23763  0.29872999999999994  0.06896  1.0000
  C   C336      1.0  0.16862999999999997  0.32402  0.06751  1.0000
  C   C337      1.0  0.21408  0.43367  0.05524  1.0000
  C   C338      1.0  0.2941  0.34008  0.06364  1.0000
  C   C339      1.0  0.028549999999999996  0.07825999999999998  0.13748  1.0000
  C   C340      1.0  0.10893999999999998  0.28119  0.07399  1.0000
  C   C341      1.0  0.28274999999999995  0.40816  0.056929999999999994  1.0000
  C   C342      1.0  0.34317  0.4534599999999999  0.05244  1.0000
  C   C343      1.0  0.72772  0.27216  0.030990000000000004  1.0000
  C   C344      1.0  0.26003  0.65572  0.03509  1.0000
  C   C345      1.0  0.98183  0.8759499999999999  0.25743  1.0000
  C   C346      1.0  0.9848099999999997  0.81237  0.24454  1.0000
  C   C347      1.0  0.73329  0.91961  0.24798999999999996  1.0000
  C   C348      1.0  0.7839999999999998  0.9510499999999997  0.23339  1.0000
  C   C349      1.0  0.85124  0.6973999999999998  0.29715  1.0000
  C   C350      1.0  0.38694  0.56257  0.40212  1.0000
  C   C351      1.0  0.26003  0.42204  0.3099  1.0000
  C   C352      1.0  0.29392  0.5567  0.34775  1.0000
  C   C353      1.0  0.9984999999999999  0.20769  0.32123  1.0000
  C   C354      1.0  0.6711  0.47081  0.43008  1.0000
  C   C355      1.0  0.9397799999999998  0.3332  0.33462  1.0000
  C   C356      1.0  0.83825  0.4665099999999999  0.36306  1.0000
  C   C357      1.0  0.32282  0.59607  0.39872  1.0000
  C   C358      1.0  0.8719699999999999  0.40446  0.35769  1.0000
  C   C359      1.0  0.4173  0.56321  0.42109  1.0000
  C   C360      1.0  0.8600999999999999  0.7068499999999999  0.31639  1.0000
  C   C361      1.0  0.25017  0.29521  0.31009  1.0000
  C   C362      1.0  0.2214  0.5462  0.31389  1.0000
  C   C363      1.0  0.29663  0.49494999999999995  0.33722  1.0000
  C   C364      1.0  0.90682  0.3996399999999999  0.34056  1.0000
  C   C365      1.0  0.03513  0.27116  0.31953  1.0000
  C   C366      1.0  0.87368  0.52037  0.33359  1.0000
  C   C367      1.0  0.7170499999999999  0.4742099999999999  0.41339  1.0000
  C   C368      1.0  0.25905999999999996  0.42050999999999994  0.29032  1.0000
  C   C369      1.0  0.93333  0.20692  0.33021  1.0000
  C   C370      1.0  0.24667  0.29431  0.29058  1.0000
  C   C371      1.0  0.86956  0.581  0.32082  1.0000
  C   C372      1.0  0.25561  0.61371  0.34083  1.0000
  C   C373      1.0  0.8398699999999999  0.52387  0.3509  1.0000
  C   C374      1.0  0.8529699999999999  0.62947  0.28973  1.0000
  C   C375      1.0  0.26055  0.48885999999999996  0.32028  1.0000
  C   C376      1.0  0.005889999999999999  0.33314  0.32602  1.0000
  C   C377      1.0  0.25728  0.35810999999999993  0.31961  1.0000
  C   C378      1.0  0.7340099999999999  0.50654  0.38112  1.0000
  C   C379      1.0  0.69364  0.508  0.3972  1.0000
  C   C380      1.0  0.79833  0.47058  0.38067  1.0000
  C   C381      1.0  0.86198  0.57207  0.30146  1.0000
  C   C382      1.0  0.86953  0.6495599999999998  0.328  1.0000
  C   C383      1.0  0.39222  0.5271999999999999  0.36978  1.0000
  C   C384      1.0  0.32766  0.56023  0.36625  1.0000
  C   C385      1.0  0.29383  0.5950899999999999  0.38099  1.0000
  C   C386      1.0  0.7819199999999997  0.43973999999999996  0.41326  1.0000
  C   C387      1.0  0.029409999999999995  0.14328999999999995  0.31298  1.0000
  C   C388      1.0  0.25267  0.3574  0.28073  1.0000
  C   C389      1.0  0.90461  0.26904  0.33693  1.0000
  C   C390      1.0  0.82186  0.43767  0.39704  1.0000
  C   C391      1.0  0.90772  0.45796999999999993  0.32866  1.0000
  C   C392      1.0  0.10828  0.65774  0.31035  1.0000
  C   C393      1.0  0.20126999999999995  0.73763  0.31896  1.0000
  C   C394      1.0  0.17598  0.66863  0.31751  1.0000
  C   C395      1.0  0.06633  0.7140799999999998  0.30524  1.0000
  C   C396      1.0  0.15992  0.7941  0.31363  1.0000
  C   C397      1.0  0.42174  0.52855  0.38748  1.0000
  C   C398      1.0  0.21881  0.6089399999999999  0.32399  1.0000
  C   C399      1.0  0.09184  0.78275  0.30693  1.0000
  C   C400      1.0  0.04653999999999999  0.84317  0.30244  1.0000
  C   C401      1.0  0.22783999999999996  0.22771999999999998  0.28099  1.0000
  C   C402      1.0  0.8442799999999999  0.76003  0.28509  1.0000
  C   C403      1.0  0.62405  0.48183  0.50743  1.0000
  C   C404      1.0  0.6876299999999999  0.48481  0.49454  1.0000
  C   C405      1.0  0.58039  0.23329  0.49799  1.0000
  C   C406      1.0  0.54895  0.284  0.48339  1.0000
  C   C407      1.0  0.14876  0.3026  0.79715  1.0000
  C   C408      1.0  0.61306  0.43742999999999993  0.9021099999999999  1.0000
  C   C409      1.0  0.73997  0.57796  0.8099  1.0000
  C   C410      1.0  0.7060799999999999  0.4433  0.84775  1.0000
  C   C411      1.0  0.0014999999999999998  0.7923099999999998  0.82123  1.0000
  C   C412      1.0  0.3289  0.52919  0.9300799999999999  1.0000
  C   C413      1.0  0.06022  0.6668  0.83462  1.0000
  C   C414      1.0  0.16175  0.53349  0.86306  1.0000
  C   C415      1.0  0.6771799999999998  0.40393  0.89872  1.0000
  C   C416      1.0  0.12802999999999998  0.59554  0.85769  1.0000
  C   C417      1.0  0.5826999999999998  0.43679  0.92109  1.0000
  C   C418      1.0  0.1399  0.29315  0.81639  1.0000
  C   C419      1.0  0.74983  0.70479  0.81009  1.0000
  C   C420      1.0  0.7785999999999998  0.4537999999999999  0.81389  1.0000
  C   C421      1.0  0.7033699999999998  0.50505  0.83722  1.0000
  C   C422      1.0  0.09317999999999999  0.60036  0.84056  1.0000
  C   C423      1.0  0.96487  0.7288399999999999  0.81953  1.0000
  C   C424      1.0  0.12632  0.47963  0.83359  1.0000
  C   C425      1.0  0.28295  0.52579  0.9133900000000001  1.0000
  C   C426      1.0  0.74094  0.57949  0.79032  1.0000
  C   C427      1.0  0.06667  0.7930799999999998  0.83021  1.0000
  C   C428      1.0  0.75333  0.70569  0.79058  1.0000
  C   C429      1.0  0.13044  0.41899999999999993  0.82082  1.0000
  C   C430      1.0  0.74439  0.38629  0.84083  1.0000
  C   C431      1.0  0.16013  0.47613  0.8509  1.0000
  C   C432      1.0  0.14703  0.37053  0.78972  1.0000
  C   C433      1.0  0.73945  0.51114  0.82028  1.0000
  C   C434      1.0  0.99411  0.66686  0.82602  1.0000
  C   C435      1.0  0.7427199999999999  0.64189  0.81961  1.0000
  C   C436      1.0  0.26599  0.4934599999999999  0.88112  1.0000
  C   C437      1.0  0.30636  0.492  0.8972  1.0000
  C   C438      1.0  0.20166999999999993  0.52942  0.88067  1.0000
  C   C439      1.0  0.13801999999999998  0.4279299999999999  0.80146  1.0000
  C   C440      1.0  0.13047  0.35044  0.828  1.0000
  C   C441      1.0  0.60778  0.4728  0.86978  1.0000
  C   C442      1.0  0.67234  0.43976999999999994  0.86625  1.0000
  C   C443      1.0  0.7061699999999999  0.4049099999999999  0.88098  1.0000
  C   C444      1.0  0.21808  0.56026  0.9132599999999998  1.0000
  C   C445      1.0  0.97059  0.85671  0.81298  1.0000
  C   C446      1.0  0.74733  0.6426  0.78073  1.0000
  C   C447      1.0  0.09538999999999997  0.7309599999999998  0.83693  1.0000
  C   C448      1.0  0.17814  0.5623299999999999  0.89704  1.0000
  C   C449      1.0  0.09227999999999999  0.54203  0.82866  1.0000
  C   C450      1.0  0.89172  0.3422599999999999  0.81035  1.0000
  C   C451      1.0  0.7987299999999999  0.26237  0.81896  1.0000
  C   C452      1.0  0.82402  0.33137  0.81751  1.0000
  C   C453      1.0  0.93367  0.28591999999999995  0.80524  1.0000
  C   C454      1.0  0.84008  0.2059  0.81363  1.0000
  C   C455      1.0  0.57826  0.47145  0.88748  1.0000
  C   C456      1.0  0.78119  0.39106  0.82399  1.0000
  C   C457      1.0  0.90816  0.21725  0.80693  1.0000
  C   C458      1.0  0.9534599999999999  0.15683  0.80244  1.0000
  C   C459      1.0  0.77216  0.77228  0.78099  1.0000
  C   C460      1.0  0.15571999999999997  0.23996999999999996  0.78509  1.0000
  C   C461      1.0  0.37595  0.51817  0.00743  1.0000
  C   C462      1.0  0.3123699999999999  0.51519  0.99454  1.0000
  C   C463      1.0  0.41961  0.76671  0.9979899999999999  1.0000
  C   C464      1.0  0.45105  0.716  0.98339  1.0000
  O   O1        1.0  0.46871  0.5798399999999999  0.53584  1.0000
  O   O2        1.0  0.41516  0.62518  0.48342  1.0000
  O   O3        1.0  0.44756999999999997  0.69684  0.55475  1.0000
  O   O4        1.0  0.54132  0.47993  0.57687  1.0000
  O   O5        1.0  0.48967  0.60738  0.57234  1.0000
  O   O6        1.0  0.14942999999999998  0.09094  0.6936  1.0000
  O   O7        1.0  0.08672  0.99304  0.68711  1.0000
  O   O8        1.0  0.5875  0.37838  0.56585  1.0000
  O   O9        1.0  0.7532599999999999  0.8437999999999998  0.73244  1.0000
  O   O10       1.0  0.52565  0.45221  0.54064  1.0000
  O   O11       1.0  0.8298599999999999  0.98145  0.70083  1.0000
  O   O12       1.0  0.9041299999999999  0.07276  0.69796  1.0000
  O   O13       1.0  0.2256  0.22543  0.73667  1.0000
  O   O14       1.0  0.17691  0.21106999999999998  0.70828  1.0000
  O   O15       1.0  0.81968  0.8411199999999999  0.70645  1.0000
  O   O16       1.0  0.34118  0.59717  0.51839  1.0000
  O   O17       1.0  0.4191  0.69489  0.51476  1.0000
  O   O18       1.0  0.2715  0.6169999999999999  0.48827000000000004  1.0000
  O   O19       1.0  0.53129  0.42016  0.03584  1.0000
  O   O20       1.0  0.5848399999999998  0.37481999999999993  0.9834200000000001  1.0000
  O   O21       1.0  0.55243  0.30315999999999993  0.05475  1.0000
  O   O22       1.0  0.4586799999999999  0.52007  0.07688  1.0000
  O   O23       1.0  0.51033  0.39262  0.07234  1.0000
  O   O24       1.0  0.8505699999999999  0.90906  0.1936  1.0000
  O   O25       1.0  0.9132799999999999  0.006959999999999999  0.18712  1.0000
  O   O26       1.0  0.4125  0.62162  0.06585  1.0000
  O   O27       1.0  0.24673999999999996  0.1562  0.23244  1.0000
  O   O28       1.0  0.47434999999999994  0.54779  0.04064  1.0000
  O   O29       1.0  0.17014  0.01855  0.20083  1.0000
  O   O30       1.0  0.09587  0.92724  0.19797  1.0000
  O   O31       1.0  0.7743999999999999  0.7745699999999999  0.23666999999999996  1.0000
  O   O32       1.0  0.82309  0.7889399999999999  0.20828  1.0000
  O   O33       1.0  0.18032  0.15888  0.20645  1.0000
  O   O34       1.0  0.65882  0.40283  0.01839  1.0000
  O   O35       1.0  0.5808999999999999  0.30511  0.01476  1.0000
  O   O36       1.0  0.7284999999999999  0.38299999999999995  0.98827  1.0000
  O   O37       1.0  0.92016  0.9687099999999998  0.78584  1.0000
  O   O38       1.0  0.8748199999999999  0.91516  0.73342  1.0000
  O   O39       1.0  0.8031599999999999  0.9475699999999999  0.80475  1.0000
  O   O40       1.0  0.02007  0.04132  0.82687  1.0000
  O   O41       1.0  0.8926199999999999  0.9896699999999999  0.82234  1.0000
  O   O42       1.0  0.40906  0.64943  0.9436  1.0000
  O   O43       1.0  0.50696  0.5867199999999999  0.9371099999999999  1.0000
  O   O44       1.0  0.12162  0.08749999999999998  0.81584  1.0000
  O   O45       1.0  0.6562  0.25326  0.9824399999999999  1.0000
  O   O46       1.0  0.04779  0.02565  0.79064  1.0000
  O   O47       1.0  0.5185499999999998  0.32986  0.95083  1.0000
  O   O48       1.0  0.42724  0.40413  0.94796  1.0000
  O   O49       1.0  0.2745699999999999  0.7256  0.98667  1.0000
  O   O50       1.0  0.28894  0.67691  0.95828  1.0000
  O   O51       1.0  0.65888  0.31967999999999996  0.95645  1.0000
  O   O52       1.0  0.90283  0.84118  0.76839  1.0000
  O   O53       1.0  0.8051099999999998  0.9191  0.76476  1.0000
  O   O54       1.0  0.883  0.7715  0.73827  1.0000
  O   O55       1.0  0.07984  0.03128999999999999  0.28584  1.0000
  O   O56       1.0  0.12517999999999999  0.08483999999999998  0.23342  1.0000
  O   O57       1.0  0.19684  0.05243  0.30475  1.0000
  O   O58       1.0  0.97993  0.95869  0.32688  1.0000
  O   O59       1.0  0.10737999999999999  0.01033  0.32234  1.0000
  O   O60       1.0  0.59094  0.35056999999999994  0.4436  1.0000
  O   O61       1.0  0.49304  0.41327999999999987  0.43711  1.0000
  O   O62       1.0  0.8783799999999999  0.9125  0.31585  1.0000
  O   O63       1.0  0.34379999999999994  0.74674  0.48244000000000004  1.0000
  O   O64       1.0  0.9522099999999999  0.9743499999999998  0.29064  1.0000
  O   O65       1.0  0.48145  0.67014  0.45082999999999995  1.0000
  O   O66       1.0  0.57276  0.59587  0.44797  1.0000
  O   O67       1.0  0.72543  0.2744  0.48667000000000005  1.0000
  O   O68       1.0  0.71106  0.32309  0.45828  1.0000
  O   O69       1.0  0.34112  0.6803199999999998  0.45645  1.0000
  O   O70       1.0  0.09717  0.15881999999999996  0.26839  1.0000
  O   O71       1.0  0.19489  0.0809  0.26476  1.0000
  O   O72       1.0  0.11699999999999999  0.2285  0.23827  1.0000
  O   O73       1.0  0.03128999999999999  0.07984  0.71416  1.0000
  O   O74       1.0  0.08483999999999998  0.12517999999999999  0.76657  1.0000
  O   O75       1.0  0.05243  0.19684  0.69525  1.0000
  O   O76       1.0  0.95868  0.97993  0.67312  1.0000
  O   O77       1.0  0.01033  0.10737999999999999  0.67766  1.0000
  O   O78       1.0  0.35056999999999994  0.59094  0.5564  1.0000
  O   O79       1.0  0.41327999999999987  0.49304  0.56288  1.0000
  O   O80       1.0  0.9125  0.8783799999999999  0.68415  1.0000
  O   O81       1.0  0.74674  0.34379999999999994  0.51756  1.0000
  O   O82       1.0  0.9743499999999998  0.9522099999999999  0.70936  1.0000
  O   O83       1.0  0.67014  0.48145  0.54917  1.0000
  O   O84       1.0  0.59587  0.57276  0.55203  1.0000
  O   O85       1.0  0.2744  0.72543  0.51333  1.0000
  O   O86       1.0  0.32309  0.71106  0.54172  1.0000
  O   O87       1.0  0.6803199999999998  0.34112  0.54355  1.0000
  O   O88       1.0  0.15881999999999996  0.09717  0.73161  1.0000
  O   O89       1.0  0.0809  0.19489  0.73524  1.0000
  O   O90       1.0  0.2285  0.11699999999999999  0.76172  1.0000
  O   O91       1.0  0.9687099999999998  0.92016  0.21416  1.0000
  O   O92       1.0  0.91516  0.8748199999999999  0.26658  1.0000
  O   O93       1.0  0.9475699999999999  0.8031599999999999  0.19525  1.0000
  O   O94       1.0  0.04132  0.02007  0.17312  1.0000
  O   O95       1.0  0.9896699999999999  0.8926199999999999  0.17766  1.0000
  O   O96       1.0  0.64943  0.40906  0.0564  1.0000
  O   O97       1.0  0.5867199999999999  0.50696  0.06288  1.0000
  O   O98       1.0  0.08749999999999998  0.12162  0.18415  1.0000
  O   O99       1.0  0.25326  0.6562  0.01756  1.0000
  O   O100      1.0  0.02565  0.04779  0.20936  1.0000
  O   O101      1.0  0.32986  0.5185499999999998  0.04917  1.0000
  O   O102      1.0  0.40413  0.42724  0.05203  1.0000
  O   O103      1.0  0.7256  0.2745699999999999  0.01333  1.0000
  O   O104      1.0  0.67691  0.28894  0.04172  1.0000
  O   O105      1.0  0.31967999999999996  0.65888  0.04355  1.0000
  O   O106      1.0  0.84118  0.90283  0.23161  1.0000
  O   O107      1.0  0.9191  0.8051099999999998  0.23524  1.0000
  O   O108      1.0  0.7715  0.883  0.26172  1.0000
  O   O109      1.0  0.5798399999999999  0.46871  0.4641600000000001  1.0000
  O   O110      1.0  0.62518  0.41516  0.51658  1.0000
  O   O111      1.0  0.69684  0.44756999999999997  0.4452499999999999  1.0000
  O   O112      1.0  0.47993  0.54132  0.42312  1.0000
  O   O113      1.0  0.60738  0.48967  0.42766  1.0000
  O   O114      1.0  0.09094  0.14942999999999998  0.3064  1.0000
  O   O115      1.0  0.99304  0.08672  0.31288  1.0000
  O   O116      1.0  0.37838  0.5875  0.43415  1.0000
  O   O117      1.0  0.8437999999999998  0.7532599999999999  0.26756  1.0000
  O   O118      1.0  0.45221  0.52565  0.45935999999999994  1.0000
  O   O119      1.0  0.98145  0.8298599999999999  0.29917  1.0000
  O   O120      1.0  0.07276  0.9041299999999999  0.30203  1.0000
  O   O121      1.0  0.22543  0.2256  0.26333  1.0000
  O   O122      1.0  0.21106  0.17691  0.29172  1.0000
  O   O123      1.0  0.8411199999999999  0.81968  0.29355  1.0000
  O   O124      1.0  0.59717  0.34118  0.48161  1.0000
  O   O125      1.0  0.69489  0.4191  0.48523999999999995  1.0000
  O   O126      1.0  0.6169999999999999  0.2715  0.51172  1.0000
  O   O127      1.0  0.42016  0.53129  0.9641599999999999  1.0000
  O   O128      1.0  0.37481999999999993  0.5848399999999998  0.01658  1.0000
  O   O129      1.0  0.30315999999999993  0.55243  0.94525  1.0000
  O   O130      1.0  0.52007  0.4586799999999999  0.9231199999999999  1.0000
  O   O131      1.0  0.39262  0.51033  0.9276600000000002  1.0000
  O   O132      1.0  0.90906  0.8505699999999999  0.8064  1.0000
  O   O133      1.0  0.006959999999999999  0.9132799999999999  0.81288  1.0000
  O   O134      1.0  0.62162  0.4125  0.93415  1.0000
  O   O135      1.0  0.1562  0.24673999999999996  0.76756  1.0000
  O   O136      1.0  0.54779  0.47434999999999994  0.95936  1.0000
  O   O137      1.0  0.01855  0.17014  0.79917  1.0000
  O   O138      1.0  0.92724  0.09587  0.80203  1.0000
  O   O139      1.0  0.7745699999999999  0.7743999999999999  0.76333  1.0000
  O   O140      1.0  0.78893  0.82309  0.79172  1.0000
  O   O141      1.0  0.15888  0.18032  0.79355  1.0000
  O   O142      1.0  0.40283  0.65882  0.98161  1.0000
  O   O143      1.0  0.30511  0.5808999999999999  0.98524  1.0000
  O   O144      1.0  0.38299999999999995  0.7284999999999999  0.01172  1.0000
