data_image0
_chemical_formula_structural       Cu48H312C696N24O216
_chemical_formula_sum              "Cu48 H312 C696 N24 O216"
_cell_length_a       31.20224
_cell_length_b       31.20224
_cell_length_c       46.4183
_cell_angle_alpha    90.0
_cell_angle_beta     90.0
_cell_angle_gamma    90.0

_space_group_name_H-M_alt    "P 1"
_space_group_IT_number       1

loop_
  _space_group_symop_operation_xyz
  'x, y, z'

loop_
  _atom_site_type_symbol
  _atom_site_label
  _atom_site_symmetry_multiplicity
  _atom_site_fract_x
  _atom_site_fract_y
  _atom_site_fract_z
  _atom_site_occupancy
  Cu  Cu1       1.0  0.10496000000000001  0.14770000000000005  0.12954000000000002  1.0000
  Cu  Cu2       1.0  0.13749000000000006  0.19384  0.16603  1.0000
  Cu  Cu3       1.0  0.89503  0.8523  0.12954000000000002  1.0000
  Cu  Cu4       1.0  0.86251  0.80616  0.16603  1.0000
  Cu  Cu5       1.0  0.8523  0.10496000000000001  0.12954000000000002  1.0000
  Cu  Cu6       1.0  0.80616  0.13749000000000006  0.16603  1.0000
  Cu  Cu7       1.0  0.14770000000000005  0.89503  0.12954000000000002  1.0000
  Cu  Cu8       1.0  0.19384  0.86251  0.16603  1.0000
  Cu  Cu9       1.0  0.39504  0.6476300000000003  0.3702200000000001  1.0000
  Cu  Cu10      1.0  0.3626200000000001  0.69399  0.33382  1.0000
  Cu  Cu11      1.0  0.6049600000000003  0.35236  0.3702200000000001  1.0000
  Cu  Cu12      1.0  0.63737  0.30601  0.33382  1.0000
  Cu  Cu13      1.0  0.6476300000000003  0.6049600000000003  0.3702200000000001  1.0000
  Cu  Cu14      1.0  0.69399  0.63737  0.33382  1.0000
  Cu  Cu15      1.0  0.35236  0.39504  0.3702200000000001  1.0000
  Cu  Cu16      1.0  0.30601  0.3626200000000001  0.33382  1.0000
  Cu  Cu17      1.0  0.89503  0.8523  0.8704500000000001  1.0000
  Cu  Cu18      1.0  0.86251  0.80616  0.83397  1.0000
  Cu  Cu19      1.0  0.10496000000000001  0.14770000000000005  0.8704500000000001  1.0000
  Cu  Cu20      1.0  0.13749000000000006  0.19384  0.83397  1.0000
  Cu  Cu21      1.0  0.14770000000000005  0.89503  0.8704500000000001  1.0000
  Cu  Cu22      1.0  0.19384  0.86251  0.83397  1.0000
  Cu  Cu23      1.0  0.8523  0.10496000000000001  0.8704500000000001  1.0000
  Cu  Cu24      1.0  0.80616  0.13749000000000006  0.83397  1.0000
  Cu  Cu25      1.0  0.6049600000000003  0.35236  0.62978  1.0000
  Cu  Cu26      1.0  0.63737  0.30601  0.66617  1.0000
  Cu  Cu27      1.0  0.39504  0.6476300000000003  0.62978  1.0000
  Cu  Cu28      1.0  0.3626200000000001  0.69399  0.66617  1.0000
  Cu  Cu29      1.0  0.35236  0.39504  0.62978  1.0000
  Cu  Cu30      1.0  0.30601  0.3626200000000001  0.66617  1.0000
  Cu  Cu31      1.0  0.6476300000000003  0.6049600000000003  0.62978  1.0000
  Cu  Cu32      1.0  0.69399  0.63737  0.66617  1.0000
  Cu  Cu33      1.0  0.3276100000000001  0.05842  0.0  1.0000
  Cu  Cu34      1.0  0.25025  0.04462  0.0  1.0000
  Cu  Cu35      1.0  0.67239  0.94158  0.0  1.0000
  Cu  Cu36      1.0  0.74975  0.95538  0.0  1.0000
  Cu  Cu37      1.0  0.94158  0.3276100000000001  0.0  1.0000
  Cu  Cu38      1.0  0.95538  0.25025  0.0  1.0000
  Cu  Cu39      1.0  0.05842  0.67239  0.0  1.0000
  Cu  Cu40      1.0  0.04462  0.74975  0.0  1.0000
  Cu  Cu41      1.0  0.17247  0.55831  0.5  1.0000
  Cu  Cu42      1.0  0.24977  0.54466  0.5  1.0000
  Cu  Cu43      1.0  0.82753  0.44168000000000013  0.5  1.0000
  Cu  Cu44      1.0  0.7502300000000001  0.45534  0.5  1.0000
  Cu  Cu45      1.0  0.55831  0.82753  0.5  1.0000
  Cu  Cu46      1.0  0.54466  0.7502300000000001  0.5  1.0000
  Cu  Cu47      1.0  0.44168000000000013  0.17247  0.5  1.0000
  Cu  Cu48      1.0  0.45534  0.24977  0.5  1.0000
  H   H1        1.0  0.47895  0.2782700000000001  0.13193  1.0000
  H   H2        1.0  0.20804  0.12355  0.07024  1.0000
  H   H3        1.0  0.34119000000000005  0.15688  0.06363  1.0000
  H   H4        1.0  0.26245  0.21271000000000007  0.13046  1.0000
  H   H5        1.0  0.37693  0.21999  0.06898  1.0000
  H   H6        1.0  0.44111  0.25461  0.08943000000000001  1.0000
  H   H7        1.0  0.3228500000000001  0.2099  0.15443  1.0000
  H   H8        1.0  0.52178  0.30756  0.17043  1.0000
  H   H9        1.0  0.52714  0.32579  0.22194000000000003  1.0000
  H   H10       1.0  0.40222000000000013  0.26995  0.23657  1.0000
  H   H11       1.0  0.53679  0.30427  0.26769  1.0000
  H   H12       1.0  0.47516  0.35249  0.34376  1.0000
  H   H13       1.0  0.3994200000000001  0.3229  0.26907  1.0000
  H   H14       1.0  0.05025  0.23710000000000006  0.06974  1.0000
  H   H15       1.0  0.00241  0.36572  0.07455  1.0000
  H   H16       1.0  0.07962  0.3144400000000001  0.14379  1.0000
  H   H17       1.0  0.02354  0.4257  0.08925  1.0000
  H   H18       1.0  0.02058  0.42475  0.19618000000000005  1.0000
  H   H19       1.0  0.03841  0.3585  0.17006  1.0000
  H   H20       1.0  0.52104  0.72172  0.13193  1.0000
  H   H21       1.0  0.79195  0.8764500000000002  0.07024  1.0000
  H   H22       1.0  0.6588  0.84312  0.06363  1.0000
  H   H23       1.0  0.73755  0.78728  0.13046  1.0000
  H   H24       1.0  0.62307  0.78  0.06898  1.0000
  H   H25       1.0  0.55889  0.74538  0.08943000000000001  1.0000
  H   H26       1.0  0.67715  0.7901  0.15443  1.0000
  H   H27       1.0  0.47822  0.69244  0.17043  1.0000
  H   H28       1.0  0.4728500000000001  0.6742100000000002  0.22194000000000003  1.0000
  H   H29       1.0  0.59777  0.73004  0.23657  1.0000
  H   H30       1.0  0.4632  0.69572  0.26769  1.0000
  H   H31       1.0  0.52484  0.64751  0.34376  1.0000
  H   H32       1.0  0.60057  0.6771  0.26907  1.0000
  H   H33       1.0  0.94974  0.7628900000000002  0.06974  1.0000
  H   H34       1.0  0.99759  0.63427  0.07455  1.0000
  H   H35       1.0  0.9203700000000002  0.6855600000000002  0.14379  1.0000
  H   H36       1.0  0.97646  0.5743  0.08925  1.0000
  H   H37       1.0  0.97942  0.5752400000000002  0.19618000000000005  1.0000
  H   H38       1.0  0.96158  0.6415  0.17006  1.0000
  H   H39       1.0  0.72172  0.47895  0.13193  1.0000
  H   H40       1.0  0.8764500000000002  0.20804  0.07024  1.0000
  H   H41       1.0  0.84312  0.34119000000000005  0.06363  1.0000
  H   H42       1.0  0.78728  0.26245  0.13046  1.0000
  H   H43       1.0  0.78  0.37693  0.06898  1.0000
  H   H44       1.0  0.74538  0.44111  0.08943000000000001  1.0000
  H   H45       1.0  0.7901  0.3228500000000001  0.15443  1.0000
  H   H46       1.0  0.69244  0.52178  0.17043  1.0000
  H   H47       1.0  0.6742100000000002  0.52714  0.22194000000000003  1.0000
  H   H48       1.0  0.73004  0.40222000000000013  0.23657  1.0000
  H   H49       1.0  0.69572  0.53679  0.26769  1.0000
  H   H50       1.0  0.64751  0.47516  0.34376  1.0000
  H   H51       1.0  0.6771  0.3994200000000001  0.26907  1.0000
  H   H52       1.0  0.7628900000000002  0.05025  0.06974  1.0000
  H   H53       1.0  0.63427  0.00241  0.07455  1.0000
  H   H54       1.0  0.6855600000000002  0.07962  0.14379  1.0000
  H   H55       1.0  0.5743  0.02354  0.08925  1.0000
  H   H56       1.0  0.5752400000000002  0.02058  0.19618000000000005  1.0000
  H   H57       1.0  0.6415  0.03841  0.17006  1.0000
  H   H58       1.0  0.2782700000000001  0.52104  0.13193  1.0000
  H   H59       1.0  0.12355  0.79195  0.07024  1.0000
  H   H60       1.0  0.15688  0.6588  0.06363  1.0000
  H   H61       1.0  0.21271000000000007  0.73755  0.13046  1.0000
  H   H62       1.0  0.21999  0.62307  0.06898  1.0000
  H   H63       1.0  0.25461  0.55889  0.08943000000000001  1.0000
  H   H64       1.0  0.2099  0.67715  0.15443  1.0000
  H   H65       1.0  0.30756  0.47822  0.17043  1.0000
  H   H66       1.0  0.32579  0.4728500000000001  0.22194000000000003  1.0000
  H   H67       1.0  0.26995  0.59777  0.23657  1.0000
  H   H68       1.0  0.30427  0.4632  0.26769  1.0000
  H   H69       1.0  0.35249  0.52484  0.34376  1.0000
  H   H70       1.0  0.3229  0.60057  0.26907  1.0000
  H   H71       1.0  0.23710000000000006  0.94974  0.06974  1.0000
  H   H72       1.0  0.36572  0.99759  0.07455  1.0000
  H   H73       1.0  0.3144400000000001  0.9203700000000002  0.14379  1.0000
  H   H74       1.0  0.4257  0.97646  0.08925  1.0000
  H   H75       1.0  0.42475  0.97942  0.19618000000000005  1.0000
  H   H76       1.0  0.3585  0.96158  0.17006  1.0000
  H   H77       1.0  0.02092  0.77834  0.36806000000000005  1.0000
  H   H78       1.0  0.29199000000000014  0.62362  0.42954  1.0000
  H   H79       1.0  0.15884  0.65695  0.43636  1.0000
  H   H80       1.0  0.23737  0.71279  0.3694  1.0000
  H   H81       1.0  0.12307000000000001  0.71999  0.43107000000000006  1.0000
  H   H82       1.0  0.05882  0.75464  0.41068000000000005  1.0000
  H   H83       1.0  0.17697  0.70996  0.34556  1.0000
  H   H84       1.0  0.9782  0.8075800000000002  0.32952  1.0000
  H   H85       1.0  0.97289  0.82582  0.27803000000000005  1.0000
  H   H86       1.0  0.0978  0.76997  0.26342000000000004  1.0000
  H   H87       1.0  0.96316  0.8043000000000002  0.23226  1.0000
  H   H88       1.0  0.02475  0.8525300000000002  0.15617  1.0000
  H   H89       1.0  0.10054  0.8230000000000002  0.23083000000000004  1.0000
  H   H90       1.0  0.4498200000000001  0.7371  0.43024000000000007  1.0000
  H   H91       1.0  0.4975700000000001  0.86571  0.42536  1.0000
  H   H92       1.0  0.42029  0.81434  0.35619  1.0000
  H   H93       1.0  0.4764000000000001  0.92562  0.4107700000000001  1.0000
  H   H94       1.0  0.47945  0.92483  0.30385  1.0000
  H   H95       1.0  0.46156  0.85854  0.3299  1.0000
  H   H96       1.0  0.97908  0.22166000000000005  0.36806000000000005  1.0000
  H   H97       1.0  0.708  0.37638  0.42954  1.0000
  H   H98       1.0  0.84115  0.3430500000000001  0.43636  1.0000
  H   H99       1.0  0.76263  0.2872100000000001  0.3694  1.0000
  H   H100      1.0  0.8769300000000002  0.28001000000000004  0.43107000000000006  1.0000
  H   H101      1.0  0.94118  0.24536  0.41068000000000005  1.0000
  H   H102      1.0  0.82303  0.29004  0.34556  1.0000
  H   H103      1.0  0.021800000000000007  0.19242  0.32952  1.0000
  H   H104      1.0  0.02711  0.17418  0.27803000000000005  1.0000
  H   H105      1.0  0.9022000000000002  0.23003  0.26342000000000004  1.0000
  H   H106      1.0  0.03683  0.19569  0.23226  1.0000
  H   H107      1.0  0.97525  0.14746  0.15617  1.0000
  H   H108      1.0  0.89946  0.177  0.23083000000000004  1.0000
  H   H109      1.0  0.55018  0.26290000000000013  0.43024000000000007  1.0000
  H   H110      1.0  0.50242  0.13429000000000005  0.42536  1.0000
  H   H111      1.0  0.57971  0.18566000000000005  0.35619  1.0000
  H   H112      1.0  0.5236  0.07438  0.4107700000000001  1.0000
  H   H113      1.0  0.52054  0.07517  0.30385  1.0000
  H   H114      1.0  0.53843  0.14146  0.3299  1.0000
  H   H115      1.0  0.77834  0.97908  0.36806000000000005  1.0000
  H   H116      1.0  0.62362  0.708  0.42954  1.0000
  H   H117      1.0  0.65695  0.84115  0.43636  1.0000
  H   H118      1.0  0.71279  0.76263  0.3694  1.0000
  H   H119      1.0  0.71999  0.8769300000000002  0.43107000000000006  1.0000
  H   H120      1.0  0.75464  0.94118  0.41068000000000005  1.0000
  H   H121      1.0  0.70996  0.82303  0.34556  1.0000
  H   H122      1.0  0.8075800000000002  0.021800000000000007  0.32952  1.0000
  H   H123      1.0  0.82582  0.02711  0.27803000000000005  1.0000
  H   H124      1.0  0.76997  0.9022000000000002  0.26342000000000004  1.0000
  H   H125      1.0  0.8043000000000002  0.03683  0.23226  1.0000
  H   H126      1.0  0.8525300000000002  0.97525  0.15617  1.0000
  H   H127      1.0  0.8230000000000002  0.89946  0.23083000000000004  1.0000
  H   H128      1.0  0.7371  0.55018  0.43024000000000007  1.0000
  H   H129      1.0  0.86571  0.50242  0.42536  1.0000
  H   H130      1.0  0.81434  0.57971  0.35619  1.0000
  H   H131      1.0  0.92562  0.5236  0.4107700000000001  1.0000
  H   H132      1.0  0.92483  0.52054  0.30385  1.0000
  H   H133      1.0  0.85854  0.53843  0.3299  1.0000
  H   H134      1.0  0.22166000000000005  0.02092  0.36806000000000005  1.0000
  H   H135      1.0  0.37638  0.29199000000000014  0.42954  1.0000
  H   H136      1.0  0.3430500000000001  0.15884  0.43636  1.0000
  H   H137      1.0  0.2872100000000001  0.23737  0.3694  1.0000
  H   H138      1.0  0.28001000000000004  0.12307000000000001  0.43107000000000006  1.0000
  H   H139      1.0  0.24536  0.05882  0.41068000000000005  1.0000
  H   H140      1.0  0.29004  0.17697  0.34556  1.0000
  H   H141      1.0  0.19242  0.9782  0.32952  1.0000
  H   H142      1.0  0.17418  0.97289  0.27803000000000005  1.0000
  H   H143      1.0  0.23003  0.0978  0.26342000000000004  1.0000
  H   H144      1.0  0.19569  0.96316  0.23226  1.0000
  H   H145      1.0  0.14746  0.02475  0.15617  1.0000
  H   H146      1.0  0.177  0.10054  0.23083000000000004  1.0000
  H   H147      1.0  0.26290000000000013  0.4498200000000001  0.43024000000000007  1.0000
  H   H148      1.0  0.13429000000000005  0.4975700000000001  0.42536  1.0000
  H   H149      1.0  0.18566000000000005  0.42029  0.35619  1.0000
  H   H150      1.0  0.07438  0.4764000000000001  0.4107700000000001  1.0000
  H   H151      1.0  0.07517  0.47945  0.30385  1.0000
  H   H152      1.0  0.14146  0.46156  0.3299  1.0000
  H   H153      1.0  0.52104  0.72172  0.8680600000000002  1.0000
  H   H154      1.0  0.79195  0.8764500000000002  0.9297600000000003  1.0000
  H   H155      1.0  0.6588  0.84312  0.93637  1.0000
  H   H156      1.0  0.73755  0.78728  0.86953  1.0000
  H   H157      1.0  0.62307  0.78  0.9310200000000002  1.0000
  H   H158      1.0  0.55889  0.74538  0.9105700000000001  1.0000
  H   H159      1.0  0.67715  0.7901  0.84557  1.0000
  H   H160      1.0  0.47822  0.69244  0.82957  1.0000
  H   H161      1.0  0.4728500000000001  0.6742100000000002  0.77805  1.0000
  H   H162      1.0  0.59777  0.73004  0.7634300000000003  1.0000
  H   H163      1.0  0.4632  0.69572  0.7323  1.0000
  H   H164      1.0  0.52484  0.64751  0.65624  1.0000
  H   H165      1.0  0.60057  0.6771  0.73093  1.0000
  H   H166      1.0  0.94974  0.7628900000000002  0.9302500000000001  1.0000
  H   H167      1.0  0.99759  0.63427  0.9254500000000001  1.0000
  H   H168      1.0  0.9203700000000002  0.6855600000000002  0.8562100000000001  1.0000
  H   H169      1.0  0.97646  0.5743  0.9107500000000002  1.0000
  H   H170      1.0  0.97942  0.5752400000000002  0.8038200000000001  1.0000
  H   H171      1.0  0.96158  0.6415  0.82993  1.0000
  H   H172      1.0  0.47895  0.2782700000000001  0.8680600000000002  1.0000
  H   H173      1.0  0.20804  0.12355  0.9297600000000003  1.0000
  H   H174      1.0  0.34119000000000005  0.15688  0.93637  1.0000
  H   H175      1.0  0.26245  0.21271000000000007  0.86953  1.0000
  H   H176      1.0  0.37693  0.21999  0.9310200000000002  1.0000
  H   H177      1.0  0.44111  0.25461  0.9105700000000001  1.0000
  H   H178      1.0  0.3228500000000001  0.2099  0.84557  1.0000
  H   H179      1.0  0.52178  0.30756  0.82957  1.0000
  H   H180      1.0  0.52714  0.32579  0.77805  1.0000
  H   H181      1.0  0.40222000000000013  0.26995  0.7634300000000003  1.0000
  H   H182      1.0  0.53679  0.30427  0.7323  1.0000
  H   H183      1.0  0.47516  0.35249  0.65624  1.0000
  H   H184      1.0  0.3994200000000001  0.3229  0.73093  1.0000
  H   H185      1.0  0.05025  0.23710000000000006  0.9302500000000001  1.0000
  H   H186      1.0  0.00241  0.36572  0.9254500000000001  1.0000
  H   H187      1.0  0.07962  0.3144400000000001  0.8562100000000001  1.0000
  H   H188      1.0  0.02354  0.4257  0.9107500000000002  1.0000
  H   H189      1.0  0.02058  0.42475  0.8038200000000001  1.0000
  H   H190      1.0  0.03841  0.3585  0.82993  1.0000
  H   H191      1.0  0.2782700000000001  0.52104  0.8680600000000002  1.0000
  H   H192      1.0  0.12355  0.79195  0.9297600000000003  1.0000
  H   H193      1.0  0.15688  0.6588  0.93637  1.0000
  H   H194      1.0  0.21271000000000007  0.73755  0.86953  1.0000
  H   H195      1.0  0.21999  0.62307  0.9310200000000002  1.0000
  H   H196      1.0  0.25461  0.55889  0.9105700000000001  1.0000
  H   H197      1.0  0.2099  0.67715  0.84557  1.0000
  H   H198      1.0  0.30756  0.47822  0.82957  1.0000
  H   H199      1.0  0.32579  0.4728500000000001  0.77805  1.0000
  H   H200      1.0  0.26995  0.59777  0.7634300000000003  1.0000
  H   H201      1.0  0.30427  0.4632  0.7323  1.0000
  H   H202      1.0  0.35249  0.52484  0.65624  1.0000
  H   H203      1.0  0.3229  0.60057  0.73093  1.0000
  H   H204      1.0  0.23710000000000006  0.94974  0.9302500000000001  1.0000
  H   H205      1.0  0.36572  0.99759  0.9254500000000001  1.0000
  H   H206      1.0  0.3144400000000001  0.9203700000000002  0.8562100000000001  1.0000
  H   H207      1.0  0.4257  0.97646  0.9107500000000002  1.0000
  H   H208      1.0  0.42475  0.97942  0.8038200000000001  1.0000
  H   H209      1.0  0.3585  0.96158  0.82993  1.0000
  H   H210      1.0  0.72172  0.47895  0.8680600000000002  1.0000
  H   H211      1.0  0.8764500000000002  0.20804  0.9297600000000003  1.0000
  H   H212      1.0  0.84312  0.34119000000000005  0.93637  1.0000
  H   H213      1.0  0.78728  0.26245  0.86953  1.0000
  H   H214      1.0  0.78  0.37693  0.9310200000000002  1.0000
  H   H215      1.0  0.74538  0.44111  0.9105700000000001  1.0000
  H   H216      1.0  0.7901  0.3228500000000001  0.84557  1.0000
  H   H217      1.0  0.69244  0.52178  0.82957  1.0000
  H   H218      1.0  0.6742100000000002  0.52714  0.77805  1.0000
  H   H219      1.0  0.73004  0.40222000000000013  0.7634300000000003  1.0000
  H   H220      1.0  0.69572  0.53679  0.7323  1.0000
  H   H221      1.0  0.64751  0.47516  0.65624  1.0000
  H   H222      1.0  0.6771  0.3994200000000001  0.73093  1.0000
  H   H223      1.0  0.7628900000000002  0.05025  0.9302500000000001  1.0000
  H   H224      1.0  0.63427  0.00241  0.9254500000000001  1.0000
  H   H225      1.0  0.6855600000000002  0.07962  0.8562100000000001  1.0000
  H   H226      1.0  0.5743  0.02354  0.9107500000000002  1.0000
  H   H227      1.0  0.5752400000000002  0.02058  0.8038200000000001  1.0000
  H   H228      1.0  0.6415  0.03841  0.82993  1.0000
  H   H229      1.0  0.97908  0.22166000000000005  0.6319400000000001  1.0000
  H   H230      1.0  0.708  0.37638  0.57046  1.0000
  H   H231      1.0  0.84115  0.3430500000000001  0.56364  1.0000
  H   H232      1.0  0.76263  0.2872100000000001  0.6306  1.0000
  H   H233      1.0  0.8769300000000002  0.28001000000000004  0.56893  1.0000
  H   H234      1.0  0.94118  0.24536  0.5893200000000001  1.0000
  H   H235      1.0  0.82303  0.29004  0.65444  1.0000
  H   H236      1.0  0.021800000000000007  0.19242  0.67047  1.0000
  H   H237      1.0  0.02711  0.17418  0.72197  1.0000
  H   H238      1.0  0.9022000000000002  0.23003  0.73657  1.0000
  H   H239      1.0  0.03683  0.19569  0.76773  1.0000
  H   H240      1.0  0.97525  0.14746  0.8438300000000001  1.0000
  H   H241      1.0  0.89946  0.177  0.76917  1.0000
  H   H242      1.0  0.55018  0.26290000000000013  0.56975  1.0000
  H   H243      1.0  0.50242  0.13429000000000005  0.57464  1.0000
  H   H244      1.0  0.57971  0.18566000000000005  0.64381  1.0000
  H   H245      1.0  0.5236  0.07438  0.58923  1.0000
  H   H246      1.0  0.52054  0.07517  0.69614  1.0000
  H   H247      1.0  0.53843  0.14146  0.6701  1.0000
  H   H248      1.0  0.02092  0.77834  0.6319400000000001  1.0000
  H   H249      1.0  0.29199000000000014  0.62362  0.57046  1.0000
  H   H250      1.0  0.15884  0.65695  0.56364  1.0000
  H   H251      1.0  0.23737  0.71279  0.6306  1.0000
  H   H252      1.0  0.12307000000000001  0.71999  0.56893  1.0000
  H   H253      1.0  0.05882  0.75464  0.5893200000000001  1.0000
  H   H254      1.0  0.17697  0.70996  0.65444  1.0000
  H   H255      1.0  0.9782  0.8075800000000002  0.67047  1.0000
  H   H256      1.0  0.97289  0.82582  0.72197  1.0000
  H   H257      1.0  0.0978  0.76997  0.73657  1.0000
  H   H258      1.0  0.96316  0.8043000000000002  0.76773  1.0000
  H   H259      1.0  0.02475  0.8525300000000002  0.8438300000000001  1.0000
  H   H260      1.0  0.10054  0.8230000000000002  0.76917  1.0000
  H   H261      1.0  0.4498200000000001  0.7371  0.56975  1.0000
  H   H262      1.0  0.4975700000000001  0.86571  0.57464  1.0000
  H   H263      1.0  0.42029  0.81434  0.64381  1.0000
  H   H264      1.0  0.4764000000000001  0.92562  0.58923  1.0000
  H   H265      1.0  0.47945  0.92483  0.69614  1.0000
  H   H266      1.0  0.46156  0.85854  0.6701  1.0000
  H   H267      1.0  0.22166000000000005  0.02092  0.6319400000000001  1.0000
  H   H268      1.0  0.37638  0.29199000000000014  0.57046  1.0000
  H   H269      1.0  0.3430500000000001  0.15884  0.56364  1.0000
  H   H270      1.0  0.2872100000000001  0.23737  0.6306  1.0000
  H   H271      1.0  0.28001000000000004  0.12307000000000001  0.56893  1.0000
  H   H272      1.0  0.24536  0.05882  0.5893200000000001  1.0000
  H   H273      1.0  0.29004  0.17697  0.65444  1.0000
  H   H274      1.0  0.19242  0.9782  0.67047  1.0000
  H   H275      1.0  0.17418  0.97289  0.72197  1.0000
  H   H276      1.0  0.23003  0.0978  0.73657  1.0000
  H   H277      1.0  0.19569  0.96316  0.76773  1.0000
  H   H278      1.0  0.14746  0.02475  0.8438300000000001  1.0000
  H   H279      1.0  0.177  0.10054  0.76917  1.0000
  H   H280      1.0  0.26290000000000013  0.4498200000000001  0.56975  1.0000
  H   H281      1.0  0.13429000000000005  0.4975700000000001  0.57464  1.0000
  H   H282      1.0  0.18566000000000005  0.42029  0.64381  1.0000
  H   H283      1.0  0.07438  0.4764000000000001  0.58923  1.0000
  H   H284      1.0  0.07517  0.47945  0.69614  1.0000
  H   H285      1.0  0.14146  0.46156  0.6701  1.0000
  H   H286      1.0  0.77834  0.97908  0.6319400000000001  1.0000
  H   H287      1.0  0.62362  0.708  0.57046  1.0000
  H   H288      1.0  0.65695  0.84115  0.56364  1.0000
  H   H289      1.0  0.71279  0.76263  0.6306  1.0000
  H   H290      1.0  0.71999  0.8769300000000002  0.56893  1.0000
  H   H291      1.0  0.75464  0.94118  0.5893200000000001  1.0000
  H   H292      1.0  0.70996  0.82303  0.65444  1.0000
  H   H293      1.0  0.8075800000000002  0.021800000000000007  0.67047  1.0000
  H   H294      1.0  0.82582  0.02711  0.72197  1.0000
  H   H295      1.0  0.76997  0.9022000000000002  0.73657  1.0000
  H   H296      1.0  0.8043000000000002  0.03683  0.76773  1.0000
  H   H297      1.0  0.8525300000000002  0.97525  0.8438300000000001  1.0000
  H   H298      1.0  0.8230000000000002  0.89946  0.76917  1.0000
  H   H299      1.0  0.7371  0.55018  0.56975  1.0000
  H   H300      1.0  0.86571  0.50242  0.57464  1.0000
  H   H301      1.0  0.81434  0.57971  0.64381  1.0000
  H   H302      1.0  0.92562  0.5236  0.58923  1.0000
  H   H303      1.0  0.92483  0.52054  0.69614  1.0000
  H   H304      1.0  0.85854  0.53843  0.6701  1.0000
  H   H305      1.0  0.0  0.5  0.19352  1.0000
  H   H306      1.0  0.5  0.0  0.19352  1.0000
  H   H307      1.0  0.5  0.0  0.30655  1.0000
  H   H308      1.0  0.0  0.5  0.30655  1.0000
  H   H309      1.0  0.0  0.5  0.8064800000000001  1.0000
  H   H310      1.0  0.5  0.0  0.8064800000000001  1.0000
  H   H311      1.0  0.5  0.0  0.69345  1.0000
  H   H312      1.0  0.0  0.5  0.69345  1.0000
  C   C1        1.0  0.18987  0.17065  0.11788  1.0000
  C   C2        1.0  0.23142  0.16862  0.10195000000000003  1.0000
  C   C3        1.0  0.23534  0.14193  0.07785  1.0000
  C   C4        1.0  0.27507  0.13835  0.06411  1.0000
  C   C5        1.0  0.31049  0.16153  0.07426  1.0000
  C   C6        1.0  0.30689  0.18871  0.09826000000000003  1.0000
  C   C7        1.0  0.26676  0.192  0.11185000000000002  1.0000
  C   C8        1.0  0.28035  0.1077  0.03963  1.0000
  C   C9        1.0  0.3446400000000001  0.21151  0.11  1.0000
  C   C10       1.0  0.3790000000000001  0.22485000000000005  0.09215000000000001  1.0000
  C   C11       1.0  0.41512  0.2445  0.10350000000000001  1.0000
  C   C12       1.0  0.41819  0.25184  0.13340000000000002  1.0000
  C   C13       1.0  0.38383  0.23981  0.15153000000000003  1.0000
  C   C14       1.0  0.34786  0.21971  0.13946  1.0000
  C   C15       1.0  0.38527  0.24794000000000002  0.18284  1.0000
  C   C16       1.0  0.42468  0.26901  0.19334  1.0000
  C   C17       1.0  0.45843  0.27953  0.17425000000000002  1.0000
  C   C18       1.0  0.49574  0.29938  0.18503  1.0000
  C   C19       1.0  0.49871  0.30932  0.21407  1.0000
  C   C20       1.0  0.46503  0.2997500000000001  0.23351000000000005  1.0000
  C   C21       1.0  0.42876  0.27919  0.22265000000000001  1.0000
  C   C22       1.0  0.46783  0.31244  0.26415  1.0000
  C   C23       1.0  0.50747  0.31421  0.27846  1.0000
  C   C24       1.0  0.51009  0.32836  0.30704  1.0000
  C   C25       1.0  0.47305  0.34094  0.32174  1.0000
  C   C26       1.0  0.4332200000000001  0.3380700000000001  0.30803  1.0000
  C   C27       1.0  0.4306400000000001  0.32385  0.27949  1.0000
  C   C28       1.0  0.5520900000000002  0.3296  0.32242  1.0000
  C   C29       1.0  0.3940300000000001  0.35176  0.32406  1.0000
  C   C30       1.0  0.09019000000000003  0.23564000000000004  0.12160000000000003  1.0000
  C   C31       1.0  0.04824  0.26761  0.08094  1.0000
  C   C32       1.0  0.02556  0.30192  0.06887  1.0000
  C   C33       1.0  0.021720000000000007  0.34045  0.08406  1.0000
  C   C34       1.0  0.040320000000000016  0.34593  0.11138  1.0000
  C   C35       1.0  0.06402  0.31169  0.12291  1.0000
  C   C36       1.0  0.06768  0.27277  0.10795  1.0000
  C   C37       1.0  0.0016600000000000005  0.29716  0.0411  1.0000
  C   C38       1.0  0.03255  0.38623  0.12739  1.0000
  C   C39       1.0  0.02297  0.424  0.11266  1.0000
  C   C40       1.0  0.01179  0.46187  0.12702  1.0000
  C   C41       1.0  0.01112  0.46256  0.15747  1.0000
  C   C42       1.0  0.02155  0.4248600000000001  0.17273  1.0000
  C   C43       1.0  0.03185  0.38761  0.15791000000000002  1.0000
  C   C44       1.0  0.81013  0.82935  0.11788  1.0000
  C   C45       1.0  0.76857  0.83138  0.10195000000000003  1.0000
  C   C46       1.0  0.76465  0.85807  0.07785  1.0000
  C   C47       1.0  0.72493  0.86165  0.06411  1.0000
  C   C48       1.0  0.6895  0.8384700000000003  0.07426  1.0000
  C   C49       1.0  0.69311  0.81129  0.09826000000000003  1.0000
  C   C50       1.0  0.73324  0.808  0.11185000000000002  1.0000
  C   C51       1.0  0.71965  0.8923000000000002  0.03963  1.0000
  C   C52       1.0  0.65535  0.78849  0.11  1.0000
  C   C53       1.0  0.6210000000000002  0.77515  0.09215000000000001  1.0000
  C   C54       1.0  0.58488  0.7555  0.10350000000000001  1.0000
  C   C55       1.0  0.5818100000000003  0.7481500000000002  0.13340000000000002  1.0000
  C   C56       1.0  0.6161700000000002  0.76019  0.15153000000000003  1.0000
  C   C57       1.0  0.65214  0.78029  0.13946  1.0000
  C   C58       1.0  0.61473  0.7520600000000002  0.18284  1.0000
  C   C59       1.0  0.57532  0.73098  0.19334  1.0000
  C   C60       1.0  0.54157  0.72047  0.17425000000000002  1.0000
  C   C61       1.0  0.50426  0.70062  0.18503  1.0000
  C   C62       1.0  0.50129  0.69068  0.21407  1.0000
  C   C63       1.0  0.53497  0.7002500000000003  0.23351000000000005  1.0000
  C   C64       1.0  0.5712300000000002  0.7208  0.22265000000000001  1.0000
  C   C65       1.0  0.53217  0.68756  0.26415  1.0000
  C   C66       1.0  0.49253  0.68579  0.27846  1.0000
  C   C67       1.0  0.4899100000000001  0.67164  0.30704  1.0000
  C   C68       1.0  0.52695  0.65906  0.32174  1.0000
  C   C69       1.0  0.56677  0.6619300000000002  0.30803  1.0000
  C   C70       1.0  0.56936  0.6761400000000002  0.27949  1.0000
  C   C71       1.0  0.4479  0.6704  0.32242  1.0000
  C   C72       1.0  0.6059700000000002  0.64824  0.32406  1.0000
  C   C73       1.0  0.9098  0.76436  0.12160000000000003  1.0000
  C   C74       1.0  0.95176  0.7323900000000002  0.08094  1.0000
  C   C75       1.0  0.97444  0.6980800000000003  0.06887  1.0000
  C   C76       1.0  0.97828  0.65955  0.08406  1.0000
  C   C77       1.0  0.9596700000000002  0.65407  0.11138  1.0000
  C   C78       1.0  0.9359800000000003  0.68831  0.12291  1.0000
  C   C79       1.0  0.93232  0.72723  0.10795  1.0000
  C   C80       1.0  0.99834  0.70284  0.0411  1.0000
  C   C81       1.0  0.9674500000000003  0.61376  0.12739  1.0000
  C   C82       1.0  0.97703  0.576  0.11266  1.0000
  C   C83       1.0  0.98821  0.53813  0.12702  1.0000
  C   C84       1.0  0.98888  0.53744  0.15747  1.0000
  C   C85       1.0  0.97845  0.57513  0.17273  1.0000
  C   C86       1.0  0.96815  0.61239  0.15791000000000002  1.0000
  C   C87       1.0  0.82935  0.18987  0.11788  1.0000
  C   C88       1.0  0.83138  0.23142  0.10195000000000003  1.0000
  C   C89       1.0  0.85807  0.23534  0.07785  1.0000
  C   C90       1.0  0.86165  0.27507  0.06411  1.0000
  C   C91       1.0  0.8384700000000003  0.31049  0.07426  1.0000
  C   C92       1.0  0.81129  0.30689  0.09826000000000003  1.0000
  C   C93       1.0  0.808  0.26676  0.11185000000000002  1.0000
  C   C94       1.0  0.8923000000000002  0.28035  0.03963  1.0000
  C   C95       1.0  0.78849  0.3446400000000001  0.11  1.0000
  C   C96       1.0  0.77515  0.3790000000000001  0.09215000000000001  1.0000
  C   C97       1.0  0.7555  0.41512  0.10350000000000001  1.0000
  C   C98       1.0  0.7481500000000002  0.41819  0.13340000000000002  1.0000
  C   C99       1.0  0.76019  0.38383  0.15153000000000003  1.0000
  C   C100      1.0  0.78029  0.34786  0.13946  1.0000
  C   C101      1.0  0.7520600000000002  0.38527  0.18284  1.0000
  C   C102      1.0  0.73098  0.42468  0.19334  1.0000
  C   C103      1.0  0.72047  0.45843  0.17425000000000002  1.0000
  C   C104      1.0  0.70062  0.49574  0.18503  1.0000
  C   C105      1.0  0.69068  0.49871  0.21407  1.0000
  C   C106      1.0  0.7002500000000003  0.46503  0.23351000000000005  1.0000
  C   C107      1.0  0.7208  0.42876  0.22265000000000001  1.0000
  C   C108      1.0  0.68756  0.46783  0.26415  1.0000
  C   C109      1.0  0.68579  0.50747  0.27846  1.0000
  C   C110      1.0  0.67164  0.51009  0.30704  1.0000
  C   C111      1.0  0.65906  0.47305  0.32174  1.0000
  C   C112      1.0  0.6619300000000002  0.4332200000000001  0.30803  1.0000
  C   C113      1.0  0.6761400000000002  0.4306400000000001  0.27949  1.0000
  C   C114      1.0  0.6704  0.5520900000000002  0.32242  1.0000
  C   C115      1.0  0.64824  0.3940300000000001  0.32406  1.0000
  C   C116      1.0  0.76436  0.09019000000000003  0.12160000000000003  1.0000
  C   C117      1.0  0.7323900000000002  0.04824  0.08094  1.0000
  C   C118      1.0  0.6980800000000003  0.02556  0.06887  1.0000
  C   C119      1.0  0.65955  0.021720000000000007  0.08406  1.0000
  C   C120      1.0  0.65407  0.040320000000000016  0.11138  1.0000
  C   C121      1.0  0.68831  0.06402  0.12291  1.0000
  C   C122      1.0  0.72723  0.06768  0.10795  1.0000
  C   C123      1.0  0.70284  0.0016600000000000005  0.0411  1.0000
  C   C124      1.0  0.61376  0.03255  0.12739  1.0000
  C   C125      1.0  0.576  0.02297  0.11266  1.0000
  C   C126      1.0  0.53813  0.01179  0.12702  1.0000
  C   C127      1.0  0.53744  0.01112  0.15747  1.0000
  C   C128      1.0  0.57513  0.02155  0.17273  1.0000
  C   C129      1.0  0.61239  0.03185  0.15791000000000002  1.0000
  C   C130      1.0  0.17065  0.81013  0.11788  1.0000
  C   C131      1.0  0.16862  0.76857  0.10195000000000003  1.0000
  C   C132      1.0  0.14193  0.76465  0.07785  1.0000
  C   C133      1.0  0.13835  0.72493  0.06411  1.0000
  C   C134      1.0  0.16153  0.6895  0.07426  1.0000
  C   C135      1.0  0.18871  0.69311  0.09826000000000003  1.0000
  C   C136      1.0  0.192  0.73324  0.11185000000000002  1.0000
  C   C137      1.0  0.1077  0.71965  0.03963  1.0000
  C   C138      1.0  0.21151  0.65535  0.11  1.0000
  C   C139      1.0  0.22485000000000005  0.6210000000000002  0.09215000000000001  1.0000
  C   C140      1.0  0.2445  0.58488  0.10350000000000001  1.0000
  C   C141      1.0  0.25184  0.5818100000000003  0.13340000000000002  1.0000
  C   C142      1.0  0.23981  0.6161700000000002  0.15153000000000003  1.0000
  C   C143      1.0  0.21971  0.65214  0.13946  1.0000
  C   C144      1.0  0.24794000000000002  0.61473  0.18284  1.0000
  C   C145      1.0  0.26901  0.57532  0.19334  1.0000
  C   C146      1.0  0.27953  0.54157  0.17425000000000002  1.0000
  C   C147      1.0  0.29938  0.50426  0.18503  1.0000
  C   C148      1.0  0.30932  0.50129  0.21407  1.0000
  C   C149      1.0  0.2997500000000001  0.53497  0.23351000000000005  1.0000
  C   C150      1.0  0.27919  0.5712300000000002  0.22265000000000001  1.0000
  C   C151      1.0  0.31244  0.53217  0.26415  1.0000
  C   C152      1.0  0.31421  0.49253  0.27846  1.0000
  C   C153      1.0  0.32836  0.4899100000000001  0.30704  1.0000
  C   C154      1.0  0.34094  0.52695  0.32174  1.0000
  C   C155      1.0  0.3380700000000001  0.56677  0.30803  1.0000
  C   C156      1.0  0.32385  0.56936  0.27949  1.0000
  C   C157      1.0  0.3296  0.4479  0.32242  1.0000
  C   C158      1.0  0.35176  0.6059700000000002  0.32406  1.0000
  C   C159      1.0  0.23564000000000004  0.9098  0.12160000000000003  1.0000
  C   C160      1.0  0.26761  0.95176  0.08094  1.0000
  C   C161      1.0  0.30192  0.97444  0.06887  1.0000
  C   C162      1.0  0.34045  0.97828  0.08406  1.0000
  C   C163      1.0  0.34593  0.9596700000000002  0.11138  1.0000
  C   C164      1.0  0.31169  0.9359800000000003  0.12291  1.0000
  C   C165      1.0  0.27277  0.93232  0.10795  1.0000
  C   C166      1.0  0.29716  0.99834  0.0411  1.0000
  C   C167      1.0  0.38623  0.9674500000000003  0.12739  1.0000
  C   C168      1.0  0.424  0.97703  0.11266  1.0000
  C   C169      1.0  0.46187  0.98821  0.12702  1.0000
  C   C170      1.0  0.46256  0.98888  0.15747  1.0000
  C   C171      1.0  0.4248600000000001  0.97845  0.17273  1.0000
  C   C172      1.0  0.38761  0.96815  0.15791000000000002  1.0000
  C   C173      1.0  0.30994  0.6706800000000003  0.38168  1.0000
  C   C174      1.0  0.26849  0.6686500000000002  0.3978  1.0000
  C   C175      1.0  0.26465  0.6419700000000003  0.42195  1.0000
  C   C176      1.0  0.22497000000000006  0.63839  0.43582000000000004  1.0000
  C   C177      1.0  0.18953  0.66156  0.4257000000000001  1.0000
  C   C178      1.0  0.19307  0.6887500000000002  0.40170000000000006  1.0000
  C   C179      1.0  0.23313  0.69206  0.38802  1.0000
  C   C180      1.0  0.21974000000000005  0.60782  0.46039  1.0000
  C   C181      1.0  0.15527  0.71154  0.39003  1.0000
  C   C182      1.0  0.12094  0.72487  0.40790000000000004  1.0000
  C   C183      1.0  0.08478  0.74451  0.3965700000000001  1.0000
  C   C184      1.0  0.08168  0.75185  0.36667000000000005  1.0000
  C   C185      1.0  0.11602000000000003  0.7398300000000002  0.34855000000000014  1.0000
  C   C186      1.0  0.15200000000000005  0.7197300000000002  0.36057  1.0000
  C   C187      1.0  0.11467  0.74801  0.31726  1.0000
  C   C188      1.0  0.07530000000000003  0.76903  0.30666  1.0000
  C   C189      1.0  0.041540000000000014  0.77953  0.32576  1.0000
  C   C190      1.0  0.00427  0.79939  0.31494  1.0000
  C   C191      1.0  0.00133  0.80935  0.28591  1.0000
  C   C192      1.0  0.03499  0.79978  0.26645  1.0000
  C   C193      1.0  0.07125  0.77921  0.2773300000000001  1.0000
  C   C194      1.0  0.03212  0.8125  0.2358  1.0000
  C   C195      1.0  0.99245  0.8142600000000001  0.22146  1.0000
  C   C196      1.0  0.98984  0.8284100000000002  0.19286000000000003  1.0000
  C   C197      1.0  0.0269  0.84101  0.17819  1.0000
  C   C198      1.0  0.06671000000000003  0.83819  0.19191  1.0000
  C   C199      1.0  0.06929  0.82395  0.22045  1.0000
  C   C200      1.0  0.94795  0.82966  0.17728  1.0000
  C   C201      1.0  0.10599  0.85178  0.17593  1.0000
  C   C202      1.0  0.40979  0.73554  0.37844  1.0000
  C   C203      1.0  0.45176  0.76758  0.41902  1.0000
  C   C204      1.0  0.4744700000000001  0.80191  0.43099  1.0000
  C   C205      1.0  0.4782400000000001  0.8404500000000003  0.41584000000000004  1.0000
  C   C206      1.0  0.45959  0.8459100000000003  0.38855  1.0000
  C   C207      1.0  0.43591  0.81163  0.37705  1.0000
  C   C208      1.0  0.43227  0.77271  0.39204000000000006  1.0000
  C   C209      1.0  0.49853  0.79712  0.45863  1.0000
  C   C210      1.0  0.46738  0.88624  0.37258  1.0000
  C   C211      1.0  0.4769800000000001  0.92397  0.3873500000000001  1.0000
  C   C212      1.0  0.4882  0.96188  0.37306  1.0000
  C   C213      1.0  0.48888  0.96258  0.3426  1.0000
  C   C214      1.0  0.47846  0.92491  0.3273  1.0000
  C   C215      1.0  0.46812  0.88764  0.34207  1.0000
  C   C216      1.0  0.6900600000000002  0.32932  0.38168  1.0000
  C   C217      1.0  0.7315  0.33135  0.3978  1.0000
  C   C218      1.0  0.7353400000000002  0.3580300000000001  0.42195  1.0000
  C   C219      1.0  0.77503  0.36161  0.43582000000000004  1.0000
  C   C220      1.0  0.81047  0.33844  0.4257000000000001  1.0000
  C   C221      1.0  0.80693  0.31124  0.40170000000000006  1.0000
  C   C222      1.0  0.76687  0.30793  0.38802  1.0000
  C   C223      1.0  0.78026  0.39217000000000013  0.46039  1.0000
  C   C224      1.0  0.84473  0.28846  0.39003  1.0000
  C   C225      1.0  0.8790600000000002  0.27513  0.40790000000000004  1.0000
  C   C226      1.0  0.91522  0.25548  0.3965700000000001  1.0000
  C   C227      1.0  0.91832  0.24815  0.36667000000000005  1.0000
  C   C228      1.0  0.88398  0.2601700000000001  0.34855000000000014  1.0000
  C   C229      1.0  0.8479900000000002  0.28027  0.36057  1.0000
  C   C230      1.0  0.88533  0.25199  0.31726  1.0000
  C   C231      1.0  0.9247  0.23096  0.30666  1.0000
  C   C232      1.0  0.9584600000000002  0.22047  0.32576  1.0000
  C   C233      1.0  0.99573  0.20061  0.31494  1.0000
  C   C234      1.0  0.9986700000000002  0.19065000000000004  0.28591  1.0000
  C   C235      1.0  0.96501  0.20022  0.26645  1.0000
  C   C236      1.0  0.9287400000000002  0.22079000000000004  0.2773300000000001  1.0000
  C   C237      1.0  0.9678800000000002  0.1875  0.2358  1.0000
  C   C238      1.0  0.0075400000000000016  0.18573  0.22146  1.0000
  C   C239      1.0  0.010160000000000004  0.17159  0.19286000000000003  1.0000
  C   C240      1.0  0.9731000000000002  0.15898  0.17819  1.0000
  C   C241      1.0  0.93329  0.16181000000000006  0.19191  1.0000
  C   C242      1.0  0.93071  0.17604  0.22045  1.0000
  C   C243      1.0  0.05204  0.17034000000000005  0.17728  1.0000
  C   C244      1.0  0.89401  0.14822000000000005  0.17593  1.0000
  C   C245      1.0  0.59021  0.26445  0.37844  1.0000
  C   C246      1.0  0.54824  0.23242  0.41902  1.0000
  C   C247      1.0  0.52553  0.19809000000000004  0.43099  1.0000
  C   C248      1.0  0.52176  0.15955  0.41584000000000004  1.0000
  C   C249      1.0  0.54041  0.15408  0.38855  1.0000
  C   C250      1.0  0.56408  0.18837  0.37705  1.0000
  C   C251      1.0  0.56773  0.22729000000000005  0.39204000000000006  1.0000
  C   C252      1.0  0.50146  0.20288  0.45863  1.0000
  C   C253      1.0  0.53262  0.11376000000000003  0.37258  1.0000
  C   C254      1.0  0.52301  0.07603000000000003  0.3873500000000001  1.0000
  C   C255      1.0  0.5118  0.03812  0.37306  1.0000
  C   C256      1.0  0.51112  0.037420000000000016  0.3426  1.0000
  C   C257      1.0  0.52154  0.07509  0.3273  1.0000
  C   C258      1.0  0.53188  0.11236  0.34207  1.0000
  C   C259      1.0  0.6706800000000003  0.6900600000000002  0.38168  1.0000
  C   C260      1.0  0.6686500000000002  0.7315  0.3978  1.0000
  C   C261      1.0  0.6419700000000003  0.7353400000000002  0.42195  1.0000
  C   C262      1.0  0.63839  0.77503  0.43582000000000004  1.0000
  C   C263      1.0  0.66156  0.81047  0.4257000000000001  1.0000
  C   C264      1.0  0.6887500000000002  0.80693  0.40170000000000006  1.0000
  C   C265      1.0  0.69206  0.76687  0.38802  1.0000
  C   C266      1.0  0.60782  0.78026  0.46039  1.0000
  C   C267      1.0  0.71154  0.84473  0.39003  1.0000
  C   C268      1.0  0.72487  0.8790600000000002  0.40790000000000004  1.0000
  C   C269      1.0  0.74451  0.91522  0.3965700000000001  1.0000
  C   C270      1.0  0.75185  0.91832  0.36667000000000005  1.0000
  C   C271      1.0  0.7398300000000002  0.88398  0.34855000000000014  1.0000
  C   C272      1.0  0.7197300000000002  0.8479900000000002  0.36057  1.0000
  C   C273      1.0  0.74801  0.88533  0.31726  1.0000
  C   C274      1.0  0.76903  0.9247  0.30666  1.0000
  C   C275      1.0  0.77953  0.9584600000000002  0.32576  1.0000
  C   C276      1.0  0.79939  0.99573  0.31494  1.0000
  C   C277      1.0  0.80935  0.9986700000000002  0.28591  1.0000
  C   C278      1.0  0.79978  0.96501  0.26645  1.0000
  C   C279      1.0  0.77921  0.9287400000000002  0.2773300000000001  1.0000
  C   C280      1.0  0.8125  0.9678800000000002  0.2358  1.0000
  C   C281      1.0  0.8142600000000001  0.0075400000000000016  0.22146  1.0000
  C   C282      1.0  0.8284100000000002  0.010160000000000004  0.19286000000000003  1.0000
  C   C283      1.0  0.84101  0.9731000000000002  0.17819  1.0000
  C   C284      1.0  0.83819  0.93329  0.19191  1.0000
  C   C285      1.0  0.82395  0.93071  0.22045  1.0000
  C   C286      1.0  0.82966  0.05204  0.17728  1.0000
  C   C287      1.0  0.85178  0.89401  0.17593  1.0000
  C   C288      1.0  0.73554  0.59021  0.37844  1.0000
  C   C289      1.0  0.76758  0.54824  0.41902  1.0000
  C   C290      1.0  0.80191  0.52553  0.43099  1.0000
  C   C291      1.0  0.8404500000000003  0.52176  0.41584000000000004  1.0000
  C   C292      1.0  0.8459100000000003  0.54041  0.38855  1.0000
  C   C293      1.0  0.81163  0.56408  0.37705  1.0000
  C   C294      1.0  0.77271  0.56773  0.39204000000000006  1.0000
  C   C295      1.0  0.79712  0.50146  0.45863  1.0000
  C   C296      1.0  0.88624  0.53262  0.37258  1.0000
  C   C297      1.0  0.92397  0.52301  0.3873500000000001  1.0000
  C   C298      1.0  0.96188  0.5118  0.37306  1.0000
  C   C299      1.0  0.96258  0.51112  0.3426  1.0000
  C   C300      1.0  0.92491  0.52154  0.3273  1.0000
  C   C301      1.0  0.88764  0.53188  0.34207  1.0000
  C   C302      1.0  0.32932  0.30994  0.38168  1.0000
  C   C303      1.0  0.33135  0.26849  0.3978  1.0000
  C   C304      1.0  0.3580300000000001  0.26465  0.42195  1.0000
  C   C305      1.0  0.36161  0.22497000000000006  0.43582000000000004  1.0000
  C   C306      1.0  0.33844  0.18953  0.4257000000000001  1.0000
  C   C307      1.0  0.31124  0.19307  0.40170000000000006  1.0000
  C   C308      1.0  0.30793  0.23313  0.38802  1.0000
  C   C309      1.0  0.39217000000000013  0.21974000000000005  0.46039  1.0000
  C   C310      1.0  0.28846  0.15527  0.39003  1.0000
  C   C311      1.0  0.27513  0.12094  0.40790000000000004  1.0000
  C   C312      1.0  0.25548  0.08478  0.3965700000000001  1.0000
  C   C313      1.0  0.24815  0.08168  0.36667000000000005  1.0000
  C   C314      1.0  0.2601700000000001  0.11602000000000003  0.34855000000000014  1.0000
  C   C315      1.0  0.28027  0.15200000000000005  0.36057  1.0000
  C   C316      1.0  0.25199  0.11467  0.31726  1.0000
  C   C317      1.0  0.23096  0.07530000000000003  0.30666  1.0000
  C   C318      1.0  0.22047  0.041540000000000014  0.32576  1.0000
  C   C319      1.0  0.20061  0.00427  0.31494  1.0000
  C   C320      1.0  0.19065000000000004  0.00133  0.28591  1.0000
  C   C321      1.0  0.20022  0.03499  0.26645  1.0000
  C   C322      1.0  0.22079000000000004  0.07125  0.2773300000000001  1.0000
  C   C323      1.0  0.1875  0.03212  0.2358  1.0000
  C   C324      1.0  0.18573  0.99245  0.22146  1.0000
  C   C325      1.0  0.17159  0.98984  0.19286000000000003  1.0000
  C   C326      1.0  0.15898  0.0269  0.17819  1.0000
  C   C327      1.0  0.16181000000000006  0.06671000000000003  0.19191  1.0000
  C   C328      1.0  0.17604  0.06929  0.22045  1.0000
  C   C329      1.0  0.17034000000000005  0.94795  0.17728  1.0000
  C   C330      1.0  0.14822000000000005  0.10599  0.17593  1.0000
  C   C331      1.0  0.26445  0.40979  0.37844  1.0000
  C   C332      1.0  0.23242  0.45176  0.41902  1.0000
  C   C333      1.0  0.19809000000000004  0.4744700000000001  0.43099  1.0000
  C   C334      1.0  0.15955  0.4782400000000001  0.41584000000000004  1.0000
  C   C335      1.0  0.15408  0.45959  0.38855  1.0000
  C   C336      1.0  0.18837  0.43591  0.37705  1.0000
  C   C337      1.0  0.22729000000000005  0.43227  0.39204000000000006  1.0000
  C   C338      1.0  0.20288  0.49853  0.45863  1.0000
  C   C339      1.0  0.11376000000000003  0.46738  0.37258  1.0000
  C   C340      1.0  0.07603000000000003  0.4769800000000001  0.3873500000000001  1.0000
  C   C341      1.0  0.03812  0.4882  0.37306  1.0000
  C   C342      1.0  0.037420000000000016  0.48888  0.3426  1.0000
  C   C343      1.0  0.07509  0.47846  0.3273  1.0000
  C   C344      1.0  0.11236  0.46812  0.34207  1.0000
  C   C345      1.0  0.81013  0.82935  0.8821200000000001  1.0000
  C   C346      1.0  0.76857  0.83138  0.89804  1.0000
  C   C347      1.0  0.76465  0.85807  0.9221400000000001  1.0000
  C   C348      1.0  0.72493  0.86165  0.9358900000000001  1.0000
  C   C349      1.0  0.6895  0.8384700000000003  0.9257300000000003  1.0000
  C   C350      1.0  0.69311  0.81129  0.9017400000000001  1.0000
  C   C351      1.0  0.73324  0.808  0.88814  1.0000
  C   C352      1.0  0.71965  0.8923000000000002  0.9603600000000001  1.0000
  C   C353      1.0  0.65535  0.78849  0.8900000000000001  1.0000
  C   C354      1.0  0.6210000000000002  0.77515  0.9078400000000002  1.0000
  C   C355      1.0  0.58488  0.7555  0.89649  1.0000
  C   C356      1.0  0.5818100000000003  0.7481500000000002  0.8665900000000001  1.0000
  C   C357      1.0  0.6161700000000002  0.76019  0.84846  1.0000
  C   C358      1.0  0.65214  0.78029  0.8605300000000002  1.0000
  C   C359      1.0  0.61473  0.7520600000000002  0.8171500000000002  1.0000
  C   C360      1.0  0.57532  0.73098  0.80665  1.0000
  C   C361      1.0  0.54157  0.72047  0.8257400000000001  1.0000
  C   C362      1.0  0.50426  0.70062  0.8149600000000001  1.0000
  C   C363      1.0  0.50129  0.69068  0.78593  1.0000
  C   C364      1.0  0.53497  0.7002500000000003  0.76648  1.0000
  C   C365      1.0  0.5712300000000002  0.7208  0.77734  1.0000
  C   C366      1.0  0.53217  0.68756  0.73585  1.0000
  C   C367      1.0  0.49253  0.68579  0.7215300000000002  1.0000
  C   C368      1.0  0.4899100000000001  0.67164  0.6929600000000001  1.0000
  C   C369      1.0  0.52695  0.65906  0.6782600000000001  1.0000
  C   C370      1.0  0.56677  0.6619300000000002  0.6919700000000001  1.0000
  C   C371      1.0  0.56936  0.6761400000000002  0.72051  1.0000
  C   C372      1.0  0.4479  0.6704  0.67757  1.0000
  C   C373      1.0  0.6059700000000002  0.64824  0.67594  1.0000
  C   C374      1.0  0.9098  0.76436  0.8784  1.0000
  C   C375      1.0  0.95176  0.7323900000000002  0.91906  1.0000
  C   C376      1.0  0.97444  0.6980800000000003  0.9311300000000002  1.0000
  C   C377      1.0  0.97828  0.65955  0.91594  1.0000
  C   C378      1.0  0.9596700000000002  0.65407  0.88861  1.0000
  C   C379      1.0  0.9359800000000003  0.68831  0.8770800000000001  1.0000
  C   C380      1.0  0.93232  0.72723  0.89205  1.0000
  C   C381      1.0  0.99834  0.70284  0.9589  1.0000
  C   C382      1.0  0.9674500000000003  0.61376  0.8726  1.0000
  C   C383      1.0  0.97703  0.576  0.8873300000000002  1.0000
  C   C384      1.0  0.98821  0.53813  0.87298  1.0000
  C   C385      1.0  0.98888  0.53744  0.8425300000000001  1.0000
  C   C386      1.0  0.97845  0.57513  0.82726  1.0000
  C   C387      1.0  0.96815  0.61239  0.84209  1.0000
  C   C388      1.0  0.18987  0.17065  0.8821200000000001  1.0000
  C   C389      1.0  0.23142  0.16862  0.89804  1.0000
  C   C390      1.0  0.23534  0.14193  0.9221400000000001  1.0000
  C   C391      1.0  0.27507  0.13835  0.9358900000000001  1.0000
  C   C392      1.0  0.31049  0.16153  0.9257300000000003  1.0000
  C   C393      1.0  0.30689  0.18871  0.9017400000000001  1.0000
  C   C394      1.0  0.26676  0.192  0.88814  1.0000
  C   C395      1.0  0.28035  0.1077  0.9603600000000001  1.0000
  C   C396      1.0  0.3446400000000001  0.21151  0.8900000000000001  1.0000
  C   C397      1.0  0.3790000000000001  0.22485000000000005  0.9078400000000002  1.0000
  C   C398      1.0  0.41512  0.2445  0.89649  1.0000
  C   C399      1.0  0.41819  0.25184  0.8665900000000001  1.0000
  C   C400      1.0  0.38383  0.23981  0.84846  1.0000
  C   C401      1.0  0.34786  0.21971  0.8605300000000002  1.0000
  C   C402      1.0  0.38527  0.24794000000000002  0.8171500000000002  1.0000
  C   C403      1.0  0.42468  0.26901  0.80665  1.0000
  C   C404      1.0  0.45843  0.27953  0.8257400000000001  1.0000
  C   C405      1.0  0.49574  0.29938  0.8149600000000001  1.0000
  C   C406      1.0  0.49871  0.30932  0.78593  1.0000
  C   C407      1.0  0.46503  0.2997500000000001  0.76648  1.0000
  C   C408      1.0  0.42876  0.27919  0.77734  1.0000
  C   C409      1.0  0.46783  0.31244  0.73585  1.0000
  C   C410      1.0  0.50747  0.31421  0.7215300000000002  1.0000
  C   C411      1.0  0.51009  0.32836  0.6929600000000001  1.0000
  C   C412      1.0  0.47305  0.34094  0.6782600000000001  1.0000
  C   C413      1.0  0.4332200000000001  0.3380700000000001  0.6919700000000001  1.0000
  C   C414      1.0  0.4306400000000001  0.32385  0.72051  1.0000
  C   C415      1.0  0.5520900000000002  0.3296  0.67757  1.0000
  C   C416      1.0  0.3940300000000001  0.35176  0.67594  1.0000
  C   C417      1.0  0.09019000000000003  0.23564000000000004  0.8784  1.0000
  C   C418      1.0  0.04824  0.26761  0.91906  1.0000
  C   C419      1.0  0.02556  0.30192  0.9311300000000002  1.0000
  C   C420      1.0  0.021720000000000007  0.34045  0.91594  1.0000
  C   C421      1.0  0.040320000000000016  0.34593  0.88861  1.0000
  C   C422      1.0  0.06402  0.31169  0.8770800000000001  1.0000
  C   C423      1.0  0.06768  0.27277  0.89205  1.0000
  C   C424      1.0  0.0016600000000000005  0.29716  0.9589  1.0000
  C   C425      1.0  0.03255  0.38623  0.8726  1.0000
  C   C426      1.0  0.02297  0.424  0.8873300000000002  1.0000
  C   C427      1.0  0.01179  0.46187  0.87298  1.0000
  C   C428      1.0  0.01112  0.46256  0.8425300000000001  1.0000
  C   C429      1.0  0.02155  0.4248600000000001  0.82726  1.0000
  C   C430      1.0  0.03185  0.38761  0.84209  1.0000
  C   C431      1.0  0.17065  0.81013  0.8821200000000001  1.0000
  C   C432      1.0  0.16862  0.76857  0.89804  1.0000
  C   C433      1.0  0.14193  0.76465  0.9221400000000001  1.0000
  C   C434      1.0  0.13835  0.72493  0.9358900000000001  1.0000
  C   C435      1.0  0.16153  0.6895  0.9257300000000003  1.0000
  C   C436      1.0  0.18871  0.69311  0.9017400000000001  1.0000
  C   C437      1.0  0.192  0.73324  0.88814  1.0000
  C   C438      1.0  0.1077  0.71965  0.9603600000000001  1.0000
  C   C439      1.0  0.21151  0.65535  0.8900000000000001  1.0000
  C   C440      1.0  0.22485000000000005  0.6210000000000002  0.9078400000000002  1.0000
  C   C441      1.0  0.2445  0.58488  0.89649  1.0000
  C   C442      1.0  0.25184  0.5818100000000003  0.8665900000000001  1.0000
  C   C443      1.0  0.23981  0.6161700000000002  0.84846  1.0000
  C   C444      1.0  0.21971  0.65214  0.8605300000000002  1.0000
  C   C445      1.0  0.24794000000000002  0.61473  0.8171500000000002  1.0000
  C   C446      1.0  0.26901  0.57532  0.80665  1.0000
  C   C447      1.0  0.27953  0.54157  0.8257400000000001  1.0000
  C   C448      1.0  0.29938  0.50426  0.8149600000000001  1.0000
  C   C449      1.0  0.30932  0.50129  0.78593  1.0000
  C   C450      1.0  0.2997500000000001  0.53497  0.76648  1.0000
  C   C451      1.0  0.27919  0.5712300000000002  0.77734  1.0000
  C   C452      1.0  0.31244  0.53217  0.73585  1.0000
  C   C453      1.0  0.31421  0.49253  0.7215300000000002  1.0000
  C   C454      1.0  0.32836  0.4899100000000001  0.6929600000000001  1.0000
  C   C455      1.0  0.34094  0.52695  0.6782600000000001  1.0000
  C   C456      1.0  0.3380700000000001  0.56677  0.6919700000000001  1.0000
  C   C457      1.0  0.32385  0.56936  0.72051  1.0000
  C   C458      1.0  0.3296  0.4479  0.67757  1.0000
  C   C459      1.0  0.35176  0.6059700000000002  0.67594  1.0000
  C   C460      1.0  0.23564000000000004  0.9098  0.8784  1.0000
  C   C461      1.0  0.26761  0.95176  0.91906  1.0000
  C   C462      1.0  0.30192  0.97444  0.9311300000000002  1.0000
  C   C463      1.0  0.34045  0.97828  0.91594  1.0000
  C   C464      1.0  0.34593  0.9596700000000002  0.88861  1.0000
  C   C465      1.0  0.31169  0.9359800000000003  0.8770800000000001  1.0000
  C   C466      1.0  0.27277  0.93232  0.89205  1.0000
  C   C467      1.0  0.29716  0.99834  0.9589  1.0000
  C   C468      1.0  0.38623  0.9674500000000003  0.8726  1.0000
  C   C469      1.0  0.424  0.97703  0.8873300000000002  1.0000
  C   C470      1.0  0.46187  0.98821  0.87298  1.0000
  C   C471      1.0  0.46256  0.98888  0.8425300000000001  1.0000
  C   C472      1.0  0.4248600000000001  0.97845  0.82726  1.0000
  C   C473      1.0  0.38761  0.96815  0.84209  1.0000
  C   C474      1.0  0.82935  0.18987  0.8821200000000001  1.0000
  C   C475      1.0  0.83138  0.23142  0.89804  1.0000
  C   C476      1.0  0.85807  0.23534  0.9221400000000001  1.0000
  C   C477      1.0  0.86165  0.27507  0.9358900000000001  1.0000
  C   C478      1.0  0.8384700000000003  0.31049  0.9257300000000003  1.0000
  C   C479      1.0  0.81129  0.30689  0.9017400000000001  1.0000
  C   C480      1.0  0.808  0.26676  0.88814  1.0000
  C   C481      1.0  0.8923000000000002  0.28035  0.9603600000000001  1.0000
  C   C482      1.0  0.78849  0.3446400000000001  0.8900000000000001  1.0000
  C   C483      1.0  0.77515  0.3790000000000001  0.9078400000000002  1.0000
  C   C484      1.0  0.7555  0.41512  0.89649  1.0000
  C   C485      1.0  0.7481500000000002  0.41819  0.8665900000000001  1.0000
  C   C486      1.0  0.76019  0.38383  0.84846  1.0000
  C   C487      1.0  0.78029  0.34786  0.8605300000000002  1.0000
  C   C488      1.0  0.7520600000000002  0.38527  0.8171500000000002  1.0000
  C   C489      1.0  0.73098  0.42468  0.80665  1.0000
  C   C490      1.0  0.72047  0.45843  0.8257400000000001  1.0000
  C   C491      1.0  0.70062  0.49574  0.8149600000000001  1.0000
  C   C492      1.0  0.69068  0.49871  0.78593  1.0000
  C   C493      1.0  0.7002500000000003  0.46503  0.76648  1.0000
  C   C494      1.0  0.7208  0.42876  0.77734  1.0000
  C   C495      1.0  0.68756  0.46783  0.73585  1.0000
  C   C496      1.0  0.68579  0.50747  0.7215300000000002  1.0000
  C   C497      1.0  0.67164  0.51009  0.6929600000000001  1.0000
  C   C498      1.0  0.65906  0.47305  0.6782600000000001  1.0000
  C   C499      1.0  0.6619300000000002  0.4332200000000001  0.6919700000000001  1.0000
  C   C500      1.0  0.6761400000000002  0.4306400000000001  0.72051  1.0000
  C   C501      1.0  0.6704  0.5520900000000002  0.67757  1.0000
  C   C502      1.0  0.64824  0.3940300000000001  0.67594  1.0000
  C   C503      1.0  0.76436  0.09019000000000003  0.8784  1.0000
  C   C504      1.0  0.7323900000000002  0.04824  0.91906  1.0000
  C   C505      1.0  0.6980800000000003  0.02556  0.9311300000000002  1.0000
  C   C506      1.0  0.65955  0.021720000000000007  0.91594  1.0000
  C   C507      1.0  0.65407  0.040320000000000016  0.88861  1.0000
  C   C508      1.0  0.68831  0.06402  0.8770800000000001  1.0000
  C   C509      1.0  0.72723  0.06768  0.89205  1.0000
  C   C510      1.0  0.70284  0.0016600000000000005  0.9589  1.0000
  C   C511      1.0  0.61376  0.03255  0.8726  1.0000
  C   C512      1.0  0.576  0.02297  0.8873300000000002  1.0000
  C   C513      1.0  0.53813  0.01179  0.87298  1.0000
  C   C514      1.0  0.53744  0.01112  0.8425300000000001  1.0000
  C   C515      1.0  0.57513  0.02155  0.82726  1.0000
  C   C516      1.0  0.61239  0.03185  0.84209  1.0000
  C   C517      1.0  0.6900600000000002  0.32932  0.61832  1.0000
  C   C518      1.0  0.7315  0.33135  0.60219  1.0000
  C   C519      1.0  0.7353400000000002  0.3580300000000001  0.57805  1.0000
  C   C520      1.0  0.77503  0.36161  0.56418  1.0000
  C   C521      1.0  0.81047  0.33844  0.5743  1.0000
  C   C522      1.0  0.80693  0.31124  0.59829  1.0000
  C   C523      1.0  0.76687  0.30793  0.61198  1.0000
  C   C524      1.0  0.78026  0.39217000000000013  0.53961  1.0000
  C   C525      1.0  0.84473  0.28846  0.6099700000000001  1.0000
  C   C526      1.0  0.8790600000000002  0.27513  0.5921  1.0000
  C   C527      1.0  0.91522  0.25548  0.60342  1.0000
  C   C528      1.0  0.91832  0.24815  0.63333  1.0000
  C   C529      1.0  0.88398  0.2601700000000001  0.65145  1.0000
  C   C530      1.0  0.8479900000000002  0.28027  0.63943  1.0000
  C   C531      1.0  0.88533  0.25199  0.68274  1.0000
  C   C532      1.0  0.9247  0.23096  0.6933300000000001  1.0000
  C   C533      1.0  0.9584600000000002  0.22047  0.67424  1.0000
  C   C534      1.0  0.99573  0.20061  0.68506  1.0000
  C   C535      1.0  0.9986700000000002  0.19065000000000004  0.71409  1.0000
  C   C536      1.0  0.96501  0.20022  0.73355  1.0000
  C   C537      1.0  0.9287400000000002  0.22079000000000004  0.7226600000000002  1.0000
  C   C538      1.0  0.9678800000000002  0.1875  0.7642  1.0000
  C   C539      1.0  0.0075400000000000016  0.18573  0.77854  1.0000
  C   C540      1.0  0.010160000000000004  0.17159  0.8071400000000001  1.0000
  C   C541      1.0  0.9731000000000002  0.15898  0.82181  1.0000
  C   C542      1.0  0.93329  0.16181000000000006  0.8080900000000001  1.0000
  C   C543      1.0  0.93071  0.17604  0.77955  1.0000
  C   C544      1.0  0.05204  0.17034000000000005  0.8227100000000002  1.0000
  C   C545      1.0  0.89401  0.14822000000000005  0.82407  1.0000
  C   C546      1.0  0.59021  0.26445  0.62155  1.0000
  C   C547      1.0  0.54824  0.23242  0.58098  1.0000
  C   C548      1.0  0.52553  0.19809000000000004  0.5690100000000001  1.0000
  C   C549      1.0  0.52176  0.15955  0.58415  1.0000
  C   C550      1.0  0.54041  0.15408  0.61145  1.0000
  C   C551      1.0  0.56408  0.18837  0.62294  1.0000
  C   C552      1.0  0.56773  0.22729000000000005  0.60796  1.0000
  C   C553      1.0  0.50146  0.20288  0.54137  1.0000
  C   C554      1.0  0.53262  0.11376000000000003  0.62742  1.0000
  C   C555      1.0  0.52301  0.07603000000000003  0.61265  1.0000
  C   C556      1.0  0.5118  0.03812  0.62693  1.0000
  C   C557      1.0  0.51112  0.037420000000000016  0.6574  1.0000
  C   C558      1.0  0.52154  0.07509  0.6727  1.0000
  C   C559      1.0  0.53188  0.11236  0.65793  1.0000
  C   C560      1.0  0.30994  0.6706800000000003  0.61832  1.0000
  C   C561      1.0  0.26849  0.6686500000000002  0.60219  1.0000
  C   C562      1.0  0.26465  0.6419700000000003  0.57805  1.0000
  C   C563      1.0  0.22497000000000006  0.63839  0.56418  1.0000
  C   C564      1.0  0.18953  0.66156  0.5743  1.0000
  C   C565      1.0  0.19307  0.6887500000000002  0.59829  1.0000
  C   C566      1.0  0.23313  0.69206  0.61198  1.0000
  C   C567      1.0  0.21974000000000005  0.60782  0.53961  1.0000
  C   C568      1.0  0.15527  0.71154  0.6099700000000001  1.0000
  C   C569      1.0  0.12094  0.72487  0.5921  1.0000
  C   C570      1.0  0.08478  0.74451  0.60342  1.0000
  C   C571      1.0  0.08168  0.75185  0.63333  1.0000
  C   C572      1.0  0.11602000000000003  0.7398300000000002  0.65145  1.0000
  C   C573      1.0  0.15200000000000005  0.7197300000000002  0.63943  1.0000
  C   C574      1.0  0.11467  0.74801  0.68274  1.0000
  C   C575      1.0  0.07530000000000003  0.76903  0.6933300000000001  1.0000
  C   C576      1.0  0.041540000000000014  0.77953  0.67424  1.0000
  C   C577      1.0  0.00427  0.79939  0.68506  1.0000
  C   C578      1.0  0.00133  0.80935  0.71409  1.0000
  C   C579      1.0  0.03499  0.79978  0.73355  1.0000
  C   C580      1.0  0.07125  0.77921  0.7226600000000002  1.0000
  C   C581      1.0  0.03212  0.8125  0.7642  1.0000
  C   C582      1.0  0.99245  0.8142600000000001  0.77854  1.0000
  C   C583      1.0  0.98984  0.8284100000000002  0.8071400000000001  1.0000
  C   C584      1.0  0.0269  0.84101  0.82181  1.0000
  C   C585      1.0  0.06671000000000003  0.83819  0.8080900000000001  1.0000
  C   C586      1.0  0.06929  0.82395  0.77955  1.0000
  C   C587      1.0  0.94795  0.82966  0.8227100000000002  1.0000
  C   C588      1.0  0.10599  0.85178  0.82407  1.0000
  C   C589      1.0  0.40979  0.73554  0.62155  1.0000
  C   C590      1.0  0.45176  0.76758  0.58098  1.0000
  C   C591      1.0  0.4744700000000001  0.80191  0.5690100000000001  1.0000
  C   C592      1.0  0.4782400000000001  0.8404500000000003  0.58415  1.0000
  C   C593      1.0  0.45959  0.8459100000000003  0.61145  1.0000
  C   C594      1.0  0.43591  0.81163  0.62294  1.0000
  C   C595      1.0  0.43227  0.77271  0.60796  1.0000
  C   C596      1.0  0.49853  0.79712  0.54137  1.0000
  C   C597      1.0  0.46738  0.88624  0.62742  1.0000
  C   C598      1.0  0.4769800000000001  0.92397  0.61265  1.0000
  C   C599      1.0  0.4882  0.96188  0.62693  1.0000
  C   C600      1.0  0.48888  0.96258  0.6574  1.0000
  C   C601      1.0  0.47846  0.92491  0.6727  1.0000
  C   C602      1.0  0.46812  0.88764  0.65793  1.0000
  C   C603      1.0  0.32932  0.30994  0.61832  1.0000
  C   C604      1.0  0.33135  0.26849  0.60219  1.0000
  C   C605      1.0  0.3580300000000001  0.26465  0.57805  1.0000
  C   C606      1.0  0.36161  0.22497000000000006  0.56418  1.0000
  C   C607      1.0  0.33844  0.18953  0.5743  1.0000
  C   C608      1.0  0.31124  0.19307  0.59829  1.0000
  C   C609      1.0  0.30793  0.23313  0.61198  1.0000
  C   C610      1.0  0.39217000000000013  0.21974000000000005  0.53961  1.0000
  C   C611      1.0  0.28846  0.15527  0.6099700000000001  1.0000
  C   C612      1.0  0.27513  0.12094  0.5921  1.0000
  C   C613      1.0  0.25548  0.08478  0.60342  1.0000
  C   C614      1.0  0.24815  0.08168  0.63333  1.0000
  C   C615      1.0  0.2601700000000001  0.11602000000000003  0.65145  1.0000
  C   C616      1.0  0.28027  0.15200000000000005  0.63943  1.0000
  C   C617      1.0  0.25199  0.11467  0.68274  1.0000
  C   C618      1.0  0.23096  0.07530000000000003  0.6933300000000001  1.0000
  C   C619      1.0  0.22047  0.041540000000000014  0.67424  1.0000
  C   C620      1.0  0.20061  0.00427  0.68506  1.0000
  C   C621      1.0  0.19065000000000004  0.00133  0.71409  1.0000
  C   C622      1.0  0.20022  0.03499  0.73355  1.0000
  C   C623      1.0  0.22079000000000004  0.07125  0.7226600000000002  1.0000
  C   C624      1.0  0.1875  0.03212  0.7642  1.0000
  C   C625      1.0  0.18573  0.99245  0.77854  1.0000
  C   C626      1.0  0.17159  0.98984  0.8071400000000001  1.0000
  C   C627      1.0  0.15898  0.0269  0.82181  1.0000
  C   C628      1.0  0.16181000000000006  0.06671000000000003  0.8080900000000001  1.0000
  C   C629      1.0  0.17604  0.06929  0.77955  1.0000
  C   C630      1.0  0.17034000000000005  0.94795  0.8227100000000002  1.0000
  C   C631      1.0  0.14822000000000005  0.10599  0.82407  1.0000
  C   C632      1.0  0.26445  0.40979  0.62155  1.0000
  C   C633      1.0  0.23242  0.45176  0.58098  1.0000
  C   C634      1.0  0.19809000000000004  0.4744700000000001  0.5690100000000001  1.0000
  C   C635      1.0  0.15955  0.4782400000000001  0.58415  1.0000
  C   C636      1.0  0.15408  0.45959  0.61145  1.0000
  C   C637      1.0  0.18837  0.43591  0.62294  1.0000
  C   C638      1.0  0.22729000000000005  0.43227  0.60796  1.0000
  C   C639      1.0  0.20288  0.49853  0.54137  1.0000
  C   C640      1.0  0.11376000000000003  0.46738  0.62742  1.0000
  C   C641      1.0  0.07603000000000003  0.4769800000000001  0.61265  1.0000
  C   C642      1.0  0.03812  0.4882  0.62693  1.0000
  C   C643      1.0  0.037420000000000016  0.48888  0.6574  1.0000
  C   C644      1.0  0.07509  0.47846  0.6727  1.0000
  C   C645      1.0  0.11236  0.46812  0.65793  1.0000
  C   C646      1.0  0.6706800000000003  0.6900600000000002  0.61832  1.0000
  C   C647      1.0  0.6686500000000002  0.7315  0.60219  1.0000
  C   C648      1.0  0.6419700000000003  0.7353400000000002  0.57805  1.0000
  C   C649      1.0  0.63839  0.77503  0.56418  1.0000
  C   C650      1.0  0.66156  0.81047  0.5743  1.0000
  C   C651      1.0  0.6887500000000002  0.80693  0.59829  1.0000
  C   C652      1.0  0.69206  0.76687  0.61198  1.0000
  C   C653      1.0  0.60782  0.78026  0.53961  1.0000
  C   C654      1.0  0.71154  0.84473  0.6099700000000001  1.0000
  C   C655      1.0  0.72487  0.8790600000000002  0.5921  1.0000
  C   C656      1.0  0.74451  0.91522  0.60342  1.0000
  C   C657      1.0  0.75185  0.91832  0.63333  1.0000
  C   C658      1.0  0.7398300000000002  0.88398  0.65145  1.0000
  C   C659      1.0  0.7197300000000002  0.8479900000000002  0.63943  1.0000
  C   C660      1.0  0.74801  0.88533  0.68274  1.0000
  C   C661      1.0  0.76903  0.9247  0.6933300000000001  1.0000
  C   C662      1.0  0.77953  0.9584600000000002  0.67424  1.0000
  C   C663      1.0  0.79939  0.99573  0.68506  1.0000
  C   C664      1.0  0.80935  0.9986700000000002  0.71409  1.0000
  C   C665      1.0  0.79978  0.96501  0.73355  1.0000
  C   C666      1.0  0.77921  0.9287400000000002  0.7226600000000002  1.0000
  C   C667      1.0  0.8125  0.9678800000000002  0.7642  1.0000
  C   C668      1.0  0.8142600000000001  0.0075400000000000016  0.77854  1.0000
  C   C669      1.0  0.8284100000000002  0.010160000000000004  0.8071400000000001  1.0000
  C   C670      1.0  0.84101  0.9731000000000002  0.82181  1.0000
  C   C671      1.0  0.83819  0.93329  0.8080900000000001  1.0000
  C   C672      1.0  0.82395  0.93071  0.77955  1.0000
  C   C673      1.0  0.82966  0.05204  0.8227100000000002  1.0000
  C   C674      1.0  0.85178  0.89401  0.82407  1.0000
  C   C675      1.0  0.73554  0.59021  0.62155  1.0000
  C   C676      1.0  0.76758  0.54824  0.58098  1.0000
  C   C677      1.0  0.80191  0.52553  0.5690100000000001  1.0000
  C   C678      1.0  0.8404500000000003  0.52176  0.58415  1.0000
  C   C679      1.0  0.8459100000000003  0.54041  0.61145  1.0000
  C   C680      1.0  0.81163  0.56408  0.62294  1.0000
  C   C681      1.0  0.77271  0.56773  0.60796  1.0000
  C   C682      1.0  0.79712  0.50146  0.54137  1.0000
  C   C683      1.0  0.88624  0.53262  0.62742  1.0000
  C   C684      1.0  0.92397  0.52301  0.61265  1.0000
  C   C685      1.0  0.96188  0.5118  0.62693  1.0000
  C   C686      1.0  0.96258  0.51112  0.6574  1.0000
  C   C687      1.0  0.92491  0.52154  0.6727  1.0000
  C   C688      1.0  0.88764  0.53188  0.65793  1.0000
  C   C689      1.0  0.0  0.5  0.11002000000000002  1.0000
  C   C690      1.0  0.5  0.0  0.11002000000000002  1.0000
  C   C691      1.0  0.5  0.0  0.39011000000000007  1.0000
  C   C692      1.0  0.0  0.5  0.39011000000000007  1.0000
  C   C693      1.0  0.0  0.5  0.88997  1.0000
  C   C694      1.0  0.5  0.0  0.88997  1.0000
  C   C695      1.0  0.5  0.0  0.60989  1.0000
  C   C696      1.0  0.0  0.5  0.60989  1.0000
  N   N1        1.0  0.45426  0.27069  0.1452  1.0000
  N   N2        1.0  0.54574  0.7293000000000002  0.1452  1.0000
  N   N3        1.0  0.7293000000000002  0.45426  0.1452  1.0000
  N   N4        1.0  0.27069  0.54574  0.1452  1.0000
  N   N5        1.0  0.04564  0.7707  0.35482  1.0000
  N   N6        1.0  0.95436  0.2293  0.35482  1.0000
  N   N7        1.0  0.7707  0.95436  0.35482  1.0000
  N   N8        1.0  0.2293  0.04564  0.35482  1.0000
  N   N9        1.0  0.54574  0.7293000000000002  0.8548000000000001  1.0000
  N   N10       1.0  0.45426  0.27069  0.8548000000000001  1.0000
  N   N11       1.0  0.27069  0.54574  0.8548000000000001  1.0000
  N   N12       1.0  0.7293000000000002  0.45426  0.8548000000000001  1.0000
  N   N13       1.0  0.95436  0.2293  0.64517  1.0000
  N   N14       1.0  0.04564  0.7707  0.64517  1.0000
  N   N15       1.0  0.2293  0.04564  0.64517  1.0000
  N   N16       1.0  0.7707  0.95436  0.64517  1.0000
  N   N17       1.0  0.0  0.5  0.17166000000000003  1.0000
  N   N18       1.0  0.5  0.0  0.17166000000000003  1.0000
  N   N19       1.0  0.5  0.0  0.3284  1.0000
  N   N20       1.0  0.0  0.5  0.3284  1.0000
  N   N21       1.0  0.0  0.5  0.82833  1.0000
  N   N22       1.0  0.5  0.0  0.82833  1.0000
  N   N23       1.0  0.5  0.0  0.67159  1.0000
  N   N24       1.0  0.0  0.5  0.67159  1.0000
  O   O1        1.0  0.15939  0.14724000000000007  0.10824000000000003  1.0000
  O   O2        1.0  0.18817  0.19489000000000006  0.14015  1.0000
  O   O3        1.0  0.24657  0.08900000000000002  0.03031  1.0000
  O   O4        1.0  0.3185000000000001  0.10193  0.030200000000000005  1.0000
  O   O5        1.0  0.40049  0.37475000000000014  0.34647  1.0000
  O   O6        1.0  0.35748  0.33985  0.31437  1.0000
  O   O7        1.0  0.5522  0.34842  0.34692  1.0000
  O   O8        1.0  0.58436  0.3116600000000001  0.3103  1.0000
  O   O9        1.0  0.08665000000000003  0.19945  0.10877  1.0000
  O   O10       1.0  0.11034  0.24244000000000004  0.14527  1.0000
  O   O11       1.0  0.99824  0.2594200000000001  0.03054  1.0000
  O   O12       1.0  0.9850800000000002  0.33128000000000013  0.030510000000000002  1.0000
  O   O13       1.0  0.35523  0.23815  0.19911  1.0000
  O   O14       1.0  0.84061  0.85276  0.10824000000000003  1.0000
  O   O15       1.0  0.81183  0.8051  0.14015  1.0000
  O   O16       1.0  0.75342  0.9110000000000003  0.03031  1.0000
  O   O17       1.0  0.68149  0.89807  0.030200000000000005  1.0000
  O   O18       1.0  0.59951  0.62524  0.34647  1.0000
  O   O19       1.0  0.6425100000000002  0.6601500000000001  0.31437  1.0000
  O   O20       1.0  0.4478  0.65158  0.34692  1.0000
  O   O21       1.0  0.4156300000000001  0.68834  0.3103  1.0000
  O   O22       1.0  0.91334  0.80054  0.10877  1.0000
  O   O23       1.0  0.88966  0.75756  0.14527  1.0000
  O   O24       1.0  0.00175  0.74057  0.03054  1.0000
  O   O25       1.0  0.014920000000000003  0.66872  0.030510000000000002  1.0000
  O   O26       1.0  0.64477  0.76185  0.19911  1.0000
  O   O27       1.0  0.85276  0.15939  0.10824000000000003  1.0000
  O   O28       1.0  0.8051  0.18817  0.14015  1.0000
  O   O29       1.0  0.9110000000000003  0.24657  0.03031  1.0000
  O   O30       1.0  0.89807  0.3185000000000001  0.030200000000000005  1.0000
  O   O31       1.0  0.62524  0.40049  0.34647  1.0000
  O   O32       1.0  0.6601500000000001  0.35748  0.31437  1.0000
  O   O33       1.0  0.65158  0.5522  0.34692  1.0000
  O   O34       1.0  0.68834  0.58436  0.3103  1.0000
  O   O35       1.0  0.80054  0.08665000000000003  0.10877  1.0000
  O   O36       1.0  0.75756  0.11034  0.14527  1.0000
  O   O37       1.0  0.74057  0.99824  0.03054  1.0000
  O   O38       1.0  0.66872  0.9850800000000002  0.030510000000000002  1.0000
  O   O39       1.0  0.76185  0.35523  0.19911  1.0000
  O   O40       1.0  0.14724000000000007  0.84061  0.10824000000000003  1.0000
  O   O41       1.0  0.19489000000000006  0.81183  0.14015  1.0000
  O   O42       1.0  0.08900000000000002  0.75342  0.03031  1.0000
  O   O43       1.0  0.10193  0.68149  0.030200000000000005  1.0000
  O   O44       1.0  0.37475000000000014  0.59951  0.34647  1.0000
  O   O45       1.0  0.33985  0.6425100000000002  0.31437  1.0000
  O   O46       1.0  0.34842  0.4478  0.34692  1.0000
  O   O47       1.0  0.3116600000000001  0.4156300000000001  0.3103  1.0000
  O   O48       1.0  0.19945  0.91334  0.10877  1.0000
  O   O49       1.0  0.24244000000000004  0.88966  0.14527  1.0000
  O   O50       1.0  0.2594200000000001  0.00175  0.03054  1.0000
  O   O51       1.0  0.33128000000000013  0.014920000000000003  0.030510000000000002  1.0000
  O   O52       1.0  0.23815  0.64477  0.19911  1.0000
  O   O53       1.0  0.34039000000000014  0.64714  0.39117000000000013  1.0000
  O   O54       1.0  0.31168  0.69497  0.35942  1.0000
  O   O55       1.0  0.25354  0.58889  0.46944  1.0000
  O   O56       1.0  0.18171  0.6023000000000002  0.47015  1.0000
  O   O57       1.0  0.09968000000000003  0.87436  0.15326  1.0000
  O   O58       1.0  0.14243  0.8401  0.18599000000000002  1.0000
  O   O59       1.0  0.9478800000000002  0.84864  0.15284  1.0000
  O   O60       1.0  0.91567  0.8115000000000002  0.18920000000000003  1.0000
  O   O61       1.0  0.41343  0.69927  0.39111  1.0000
  O   O62       1.0  0.38951000000000013  0.7424400000000002  0.35486  1.0000
  O   O63       1.0  0.50197  0.75937  0.46913000000000005  1.0000
  O   O64       1.0  0.51518  0.8312700000000002  0.46912  1.0000
  O   O65       1.0  0.14487  0.73825  0.30114  1.0000
  O   O66       1.0  0.6596100000000003  0.3528600000000001  0.39117000000000013  1.0000
  O   O67       1.0  0.6883200000000003  0.30503  0.35942  1.0000
  O   O68       1.0  0.7464600000000001  0.4111  0.46944  1.0000
  O   O69       1.0  0.81829  0.3977  0.47015  1.0000
  O   O70       1.0  0.9003200000000002  0.12564  0.15326  1.0000
  O   O71       1.0  0.85757  0.1599  0.18599000000000002  1.0000
  O   O72       1.0  0.05211  0.15135  0.15284  1.0000
  O   O73       1.0  0.08433000000000003  0.1885  0.18920000000000003  1.0000
  O   O74       1.0  0.58656  0.30072  0.39111  1.0000
  O   O75       1.0  0.61049  0.2575600000000001  0.35486  1.0000
  O   O76       1.0  0.49802  0.24062  0.46913000000000005  1.0000
  O   O77       1.0  0.48481000000000013  0.16873  0.46912  1.0000
  O   O78       1.0  0.85513  0.2617400000000001  0.30114  1.0000
  O   O79       1.0  0.64714  0.6596100000000003  0.39117000000000013  1.0000
  O   O80       1.0  0.69497  0.6883200000000003  0.35942  1.0000
  O   O81       1.0  0.58889  0.7464600000000001  0.46944  1.0000
  O   O82       1.0  0.6023000000000002  0.81829  0.47015  1.0000
  O   O83       1.0  0.87436  0.9003200000000002  0.15326  1.0000
  O   O84       1.0  0.8401  0.85757  0.18599000000000002  1.0000
  O   O85       1.0  0.84864  0.05211  0.15284  1.0000
  O   O86       1.0  0.8115000000000002  0.08433000000000003  0.18920000000000003  1.0000
  O   O87       1.0  0.69927  0.58656  0.39111  1.0000
  O   O88       1.0  0.7424400000000002  0.61049  0.35486  1.0000
  O   O89       1.0  0.75937  0.49802  0.46913000000000005  1.0000
  O   O90       1.0  0.8312700000000002  0.48481000000000013  0.46912  1.0000
  O   O91       1.0  0.73825  0.85513  0.30114  1.0000
  O   O92       1.0  0.3528600000000001  0.34039000000000014  0.39117000000000013  1.0000
  O   O93       1.0  0.30503  0.31168  0.35942  1.0000
  O   O94       1.0  0.4111  0.25354  0.46944  1.0000
  O   O95       1.0  0.3977  0.18171  0.47015  1.0000
  O   O96       1.0  0.12564  0.09968000000000003  0.15326  1.0000
  O   O97       1.0  0.1599  0.14243  0.18599000000000002  1.0000
  O   O98       1.0  0.15135  0.9478800000000002  0.15284  1.0000
  O   O99       1.0  0.1885  0.91567  0.18920000000000003  1.0000
  O   O100      1.0  0.30072  0.41343  0.39111  1.0000
  O   O101      1.0  0.2575600000000001  0.38951000000000013  0.35486  1.0000
  O   O102      1.0  0.24062  0.50197  0.46913000000000005  1.0000
  O   O103      1.0  0.16873  0.51518  0.46912  1.0000
  O   O104      1.0  0.2617400000000001  0.14487  0.30114  1.0000
  O   O105      1.0  0.84061  0.85276  0.89175  1.0000
  O   O106      1.0  0.81183  0.8051  0.85985  1.0000
  O   O107      1.0  0.75342  0.9110000000000003  0.9696800000000001  1.0000
  O   O108      1.0  0.68149  0.89807  0.9697900000000002  1.0000
  O   O109      1.0  0.59951  0.62524  0.6535300000000002  1.0000
  O   O110      1.0  0.6425100000000002  0.6601500000000001  0.68563  1.0000
  O   O111      1.0  0.4478  0.65158  0.65307  1.0000
  O   O112      1.0  0.4156300000000001  0.68834  0.6897000000000002  1.0000
  O   O113      1.0  0.91334  0.80054  0.89122  1.0000
  O   O114      1.0  0.88966  0.75756  0.8547200000000003  1.0000
  O   O115      1.0  0.00175  0.74057  0.96946  1.0000
  O   O116      1.0  0.014920000000000003  0.66872  0.9694800000000002  1.0000
  O   O117      1.0  0.64477  0.76185  0.80089  1.0000
  O   O118      1.0  0.15939  0.14724000000000007  0.89175  1.0000
  O   O119      1.0  0.18817  0.19489000000000006  0.85985  1.0000
  O   O120      1.0  0.24657  0.08900000000000002  0.9696800000000001  1.0000
  O   O121      1.0  0.3185000000000001  0.10193  0.9697900000000002  1.0000
  O   O122      1.0  0.40049  0.37475000000000014  0.6535300000000002  1.0000
  O   O123      1.0  0.35748  0.33985  0.68563  1.0000
  O   O124      1.0  0.5522  0.34842  0.65307  1.0000
  O   O125      1.0  0.58436  0.3116600000000001  0.6897000000000002  1.0000
  O   O126      1.0  0.08665000000000003  0.19945  0.89122  1.0000
  O   O127      1.0  0.11034  0.24244000000000004  0.8547200000000003  1.0000
  O   O128      1.0  0.99824  0.2594200000000001  0.96946  1.0000
  O   O129      1.0  0.9850800000000002  0.33128000000000013  0.9694800000000002  1.0000
  O   O130      1.0  0.35523  0.23815  0.80089  1.0000
  O   O131      1.0  0.14724000000000007  0.84061  0.89175  1.0000
  O   O132      1.0  0.19489000000000006  0.81183  0.85985  1.0000
  O   O133      1.0  0.08900000000000002  0.75342  0.9696800000000001  1.0000
  O   O134      1.0  0.10193  0.68149  0.9697900000000002  1.0000
  O   O135      1.0  0.37475000000000014  0.59951  0.6535300000000002  1.0000
  O   O136      1.0  0.33985  0.6425100000000002  0.68563  1.0000
  O   O137      1.0  0.34842  0.4478  0.65307  1.0000
  O   O138      1.0  0.3116600000000001  0.4156300000000001  0.6897000000000002  1.0000
  O   O139      1.0  0.19945  0.91334  0.89122  1.0000
  O   O140      1.0  0.24244000000000004  0.88966  0.8547200000000003  1.0000
  O   O141      1.0  0.2594200000000001  0.00175  0.96946  1.0000
  O   O142      1.0  0.33128000000000013  0.014920000000000003  0.9694800000000002  1.0000
  O   O143      1.0  0.23815  0.64477  0.80089  1.0000
  O   O144      1.0  0.85276  0.15939  0.89175  1.0000
  O   O145      1.0  0.8051  0.18817  0.85985  1.0000
  O   O146      1.0  0.9110000000000003  0.24657  0.9696800000000001  1.0000
  O   O147      1.0  0.89807  0.3185000000000001  0.9697900000000002  1.0000
  O   O148      1.0  0.62524  0.40049  0.6535300000000002  1.0000
  O   O149      1.0  0.6601500000000001  0.35748  0.68563  1.0000
  O   O150      1.0  0.65158  0.5522  0.65307  1.0000
  O   O151      1.0  0.68834  0.58436  0.6897000000000002  1.0000
  O   O152      1.0  0.80054  0.08665000000000003  0.89122  1.0000
  O   O153      1.0  0.75756  0.11034  0.8547200000000003  1.0000
  O   O154      1.0  0.74057  0.99824  0.96946  1.0000
  O   O155      1.0  0.66872  0.9850800000000002  0.9694800000000002  1.0000
  O   O156      1.0  0.76185  0.35523  0.80089  1.0000
  O   O157      1.0  0.6596100000000003  0.3528600000000001  0.60882  1.0000
  O   O158      1.0  0.6883200000000003  0.30503  0.64058  1.0000
  O   O159      1.0  0.7464600000000001  0.4111  0.53056  1.0000
  O   O160      1.0  0.81829  0.3977  0.52985  1.0000
  O   O161      1.0  0.9003200000000002  0.12564  0.84674  1.0000
  O   O162      1.0  0.85757  0.1599  0.814  1.0000
  O   O163      1.0  0.05211  0.15135  0.8471500000000001  1.0000
  O   O164      1.0  0.08433000000000003  0.1885  0.8108  1.0000
  O   O165      1.0  0.58656  0.30072  0.60889  1.0000
  O   O166      1.0  0.61049  0.2575600000000001  0.64514  1.0000
  O   O167      1.0  0.49802  0.24062  0.53086  1.0000
  O   O168      1.0  0.48481000000000013  0.16873  0.53088  1.0000
  O   O169      1.0  0.85513  0.2617400000000001  0.69885  1.0000
  O   O170      1.0  0.34039000000000014  0.64714  0.60882  1.0000
  O   O171      1.0  0.31168  0.69497  0.64058  1.0000
  O   O172      1.0  0.25354  0.58889  0.53056  1.0000
  O   O173      1.0  0.18171  0.6023000000000002  0.52985  1.0000
  O   O174      1.0  0.09968000000000003  0.87436  0.84674  1.0000
  O   O175      1.0  0.14243  0.8401  0.814  1.0000
  O   O176      1.0  0.9478800000000002  0.84864  0.8471500000000001  1.0000
  O   O177      1.0  0.91567  0.8115000000000002  0.8108  1.0000
  O   O178      1.0  0.41343  0.69927  0.60889  1.0000
  O   O179      1.0  0.38951000000000013  0.7424400000000002  0.64514  1.0000
  O   O180      1.0  0.50197  0.75937  0.53086  1.0000
  O   O181      1.0  0.51518  0.8312700000000002  0.53088  1.0000
  O   O182      1.0  0.14487  0.73825  0.69885  1.0000
  O   O183      1.0  0.3528600000000001  0.34039000000000014  0.60882  1.0000
  O   O184      1.0  0.30503  0.31168  0.64058  1.0000
  O   O185      1.0  0.4111  0.25354  0.53056  1.0000
  O   O186      1.0  0.3977  0.18171  0.52985  1.0000
  O   O187      1.0  0.12564  0.09968000000000003  0.84674  1.0000
  O   O188      1.0  0.1599  0.14243  0.814  1.0000
  O   O189      1.0  0.15135  0.9478800000000002  0.8471500000000001  1.0000
  O   O190      1.0  0.1885  0.91567  0.8108  1.0000
  O   O191      1.0  0.30072  0.41343  0.60889  1.0000
  O   O192      1.0  0.2575600000000001  0.38951000000000013  0.64514  1.0000
  O   O193      1.0  0.24062  0.50197  0.53086  1.0000
  O   O194      1.0  0.16873  0.51518  0.53088  1.0000
  O   O195      1.0  0.2617400000000001  0.14487  0.69885  1.0000
  O   O196      1.0  0.64714  0.6596100000000003  0.60882  1.0000
  O   O197      1.0  0.69497  0.6883200000000003  0.64058  1.0000
  O   O198      1.0  0.58889  0.7464600000000001  0.53056  1.0000
  O   O199      1.0  0.6023000000000002  0.81829  0.52985  1.0000
  O   O200      1.0  0.87436  0.9003200000000002  0.84674  1.0000
  O   O201      1.0  0.8401  0.85757  0.814  1.0000
  O   O202      1.0  0.84864  0.05211  0.8471500000000001  1.0000
  O   O203      1.0  0.8115000000000002  0.08433000000000003  0.8108  1.0000
  O   O204      1.0  0.69927  0.58656  0.60889  1.0000
  O   O205      1.0  0.7424400000000002  0.61049  0.64514  1.0000
  O   O206      1.0  0.75937  0.49802  0.53086  1.0000
  O   O207      1.0  0.8312700000000002  0.48481000000000013  0.53088  1.0000
  O   O208      1.0  0.73825  0.85513  0.69885  1.0000
  O   O209      1.0  0.0  0.5  0.08329  1.0000
  O   O210      1.0  0.5  0.0  0.08329  1.0000
  O   O211      1.0  0.5  0.0  0.4168700000000001  1.0000
  O   O212      1.0  0.0  0.5  0.4168700000000001  1.0000
  O   O213      1.0  0.0  0.5  0.9167  1.0000
  O   O214      1.0  0.5  0.0  0.9167  1.0000
  O   O215      1.0  0.5  0.0  0.58313  1.0000
  O   O216      1.0  0.0  0.5  0.58313  1.0000
