data_image0
_chemical_formula_structural       Cu16H240C352O80
_chemical_formula_sum              "Cu16 H240 C352 O80"
_cell_length_a       29.55273
_cell_length_b       29.54769
_cell_length_c       31.15877
_cell_angle_alpha    103.65785
_cell_angle_beta     103.68943
_cell_angle_gamma    89.86545

_space_group_name_H-M_alt    "P 1"
_space_group_IT_number       1

loop_
  _space_group_symop_operation_xyz
  'x, y, z'

loop_
  _atom_site_type_symbol
  _atom_site_label
  _atom_site_symmetry_multiplicity
  _atom_site_fract_x
  _atom_site_fract_y
  _atom_site_fract_z
  _atom_site_occupancy
  Cu  Cu1       1.0  0.50611  0.29015  0.02563  1.0000
  Cu  Cu2       1.0  0.006159999999999997  0.4727900000000002  0.02456  1.0000
  Cu  Cu3       1.0  0.4937699999999999  0.21175  0.97613  1.0000
  Cu  Cu4       1.0  0.006559999999999999  0.97261  0.02443  1.0000
  Cu  Cu5       1.0  0.20985  0.9938900000000003  0.47435  1.0000
  Cu  Cu6       1.0  0.027209999999999998  0.4938300000000001  0.47545  1.0000
  Cu  Cu7       1.0  0.28824  0.006229999999999993  0.52388  1.0000
  Cu  Cu8       1.0  0.5274  0.49346  0.47558  1.0000
  Cu  Cu9       1.0  0.4938899999999999  0.70985  0.97437  1.0000
  Cu  Cu10      1.0  0.99384  0.52721  0.97544  1.0000
  Cu  Cu11      1.0  0.5062399999999999  0.7882600000000002  0.02387  1.0000
  Cu  Cu12      1.0  0.9934499999999998  0.027400000000000018  0.97557  1.0000
  Cu  Cu13      1.0  0.7901499999999998  0.006120000000000001  0.52565  1.0000
  Cu  Cu14      1.0  0.9727899999999997  0.50618  0.52455  1.0000
  Cu  Cu15      1.0  0.71176  0.99378  0.47612  1.0000
  Cu  Cu16      1.0  0.4726  0.50654  0.52442  1.0000
  H   H1        1.0  0.72669  0.3493600000000001  0.908  1.0000
  H   H2        1.0  0.6465799999999999  0.27345  0.59259  1.0000
  H   H3        1.0  0.6644299999999997  0.3475  0.578  1.0000
  H   H4        1.0  0.6210899999999999  0.39977  0.53237  1.0000
  H   H5        1.0  0.53162  0.43197000000000013  0.62443  1.0000
  H   H6        1.0  0.57476  0.38015000000000004  0.6705800000000001  1.0000
  H   H7        1.0  0.8093  0.3365800000000001  0.92558  1.0000
  H   H8        1.0  0.88379  0.38116  0.96944  1.0000
  H   H9        1.0  0.86776  0.46688  0.87387  1.0000
  H   H10       1.0  0.7932699999999999  0.42256000000000005  0.82969  1.0000
  H   H11       1.0  0.61787  0.24128  0.82822  1.0000
  H   H12       1.0  0.56573  0.22142  0.87396  1.0000
  H   H13       1.0  0.6011999999999997  0.35505  0.96825  1.0000
  H   H14       1.0  0.65411  0.37511  0.92314  1.0000
  H   H15       1.0  0.3071899999999999  0.37535  0.92241  1.0000
  H   H16       1.0  0.38238999999999995  0.3552  0.96797  1.0000
  H   H17       1.0  0.3715499999999999  0.22172000000000003  0.8731  1.0000
  H   H18       1.0  0.29625  0.24142000000000008  0.82755  1.0000
  H   H19       1.0  0.22734  0.35306  0.90762  1.0000
  H   H20       1.0  0.19059  0.16454  0.07696  1.0000
  H   H21       1.0  0.11557  0.12131  0.03206  1.0000
  H   H22       1.0  0.13004  0.03286  0.12506  1.0000
  H   H23       1.0  0.20473  0.07597000000000002  0.17046  1.0000
  H   H24       1.0  0.2721099999999999  0.14650000000000005  0.09193  1.0000
  H   H25       1.0  0.34335999999999994  0.12576  0.07386  1.0000
  H   H26       1.0  0.39771  0.14659000000000005  0.030639999999999997  1.0000
  H   H27       1.0  0.43582  0.27734  0.12913  1.0000
  H   H28       1.0  0.38162  0.25707  0.1728  1.0000
  H   H29       1.0  0.7596300000000001  0.20568000000000003  0.6719600000000001  1.0000
  H   H30       1.0  0.7805  0.13036  0.62756  1.0000
  H   H31       1.0  0.6476099999999998  0.11715  0.53163  1.0000
  H   H32       1.0  0.62607  0.19238  0.57567  1.0000
  H   H33       1.0  0.15325  0.33526  0.92287  1.0000
  H   H34       1.0  0.09986  0.3774500000000001  0.96782  1.0000
  H   H35       1.0  0.06686  0.46664  0.87536  1.0000
  H   H36       1.0  0.11954000000000002  0.42424  0.82979  1.0000
  H   H37       1.0  0.7647799999999999  0.34543  0.78225  1.0000
  H   H38       1.0  0.70873  0.23782  0.71908  1.0000
  H   H39       1.0  0.26221  0.29416  0.78039  1.0000
  H   H40       1.0  0.37135  0.2063  0.21829  1.0000
  H   H41       1.0  0.08665999999999997  0.27853  0.74602  1.0000
  H   H42       1.0  0.08500999999999996  0.29914  0.80428  1.0000
  H   H43       1.0  0.032749999999999946  0.34369  0.72817  1.0000
  H   H44       1.0  0.027120000000000005  0.35639000000000004  0.78541  1.0000
  H   H45       1.0  0.005970000000000013  0.30109  0.74763  1.0000
  H   H46       1.0  0.2122899999999999  0.22455  0.23216  1.0000
  H   H47       1.0  0.17083999999999994  0.18363  0.19012  1.0000
  H   H48       1.0  0.14199  0.21311  0.26168  1.0000
  H   H49       1.0  0.19227999999999995  0.19226  0.29367  1.0000
  H   H50       1.0  0.1499  0.15206000000000006  0.2519  1.0000
  H   H51       1.0  0.57418  0.33874  0.80099  1.0000
  H   H52       1.0  0.5989099999999998  0.35421000000000014  0.75904  1.0000
  H   H53       1.0  0.52636  0.27265000000000006  0.74145  1.0000
  H   H54       1.0  0.55343  0.2853700000000001  0.69994  1.0000
  H   H55       1.0  0.51578  0.32563  0.72384  1.0000
  H   H56       1.0  0.7235699999999998  0.40025  0.74724  1.0000
  H   H57       1.0  0.69185  0.4271300000000001  0.70462  1.0000
  H   H58       1.0  0.7110599999999998  0.48409  0.78167  1.0000
  H   H59       1.0  0.68241  0.44512  0.80384  1.0000
  H   H60       1.0  0.64961  0.47225000000000017  0.76191  1.0000
  H   H61       1.0  0.15066999999999994  0.7733600000000003  0.59198  1.0000
  H   H62       1.0  0.22666  0.85333  0.90741  1.0000
  H   H63       1.0  0.15253999999999993  0.8355299999999999  0.92199  1.0000
  H   H64       1.0  0.10029  0.87881  0.96756  1.0000
  H   H65       1.0  0.06806999999999998  0.96838  0.8754999999999998  1.0000
  H   H66       1.0  0.11986  0.92526  0.8294  1.0000
  H   H67       1.0  0.16343  0.6907300000000002  0.57439  1.0000
  H   H68       1.0  0.11882  0.61624  0.53057  1.0000
  H   H69       1.0  0.03315  0.63229  0.62612  1.0000
  H   H70       1.0  0.07750000000000003  0.70677  0.67027  1.0000
  H   H71       1.0  0.25874  0.88213  0.67179  1.0000
  H   H72       1.0  0.2786099999999999  0.93428  0.62603  1.0000
  H   H73       1.0  0.14499  0.89887  0.53169  1.0000
  H   H74       1.0  0.12492000000000003  0.84595  0.57682  1.0000
  H   H75       1.0  0.12462999999999999  0.19287999999999997  0.57751  1.0000
  H   H76       1.0  0.14472  0.11765000000000003  0.53202  1.0000
  H   H77       1.0  0.27824  0.12846  0.62687  1.0000
  H   H78       1.0  0.25861  0.20379  0.67237  1.0000
  H   H79       1.0  0.14682999999999993  0.27276  0.59233  1.0000
  H   H80       1.0  0.3354699999999999  0.30937  0.42303  1.0000
  H   H81       1.0  0.37869999999999987  0.38441  0.4679  1.0000
  H   H82       1.0  0.4671399999999999  0.3699700000000001  0.37495  1.0000
  H   H83       1.0  0.4240299999999999  0.29527  0.32957999999999993  1.0000
  H   H84       1.0  0.35342  0.22788  0.40811  1.0000
  H   H85       1.0  0.3742099999999999  0.15661000000000003  0.42616  1.0000
  H   H86       1.0  0.35338999999999987  0.10223  0.46939  1.0000
  H   H87       1.0  0.22265  0.06417  0.37087  1.0000
  H   H88       1.0  0.24290999999999993  0.11840000000000002  0.3272  1.0000
  H   H89       1.0  0.2943899999999999  0.74037  0.82802  1.0000
  H   H90       1.0  0.3697199999999999  0.7195  0.87248  1.0000
  H   H91       1.0  0.38291  0.85235  0.9684000000000001  1.0000
  H   H92       1.0  0.30769  0.8739099999999999  0.92429  1.0000
  H   H93       1.0  0.16464999999999994  0.34684  0.5771  1.0000
  H   H94       1.0  0.12234999999999997  0.40026  0.53213  1.0000
  H   H95       1.0  0.03331  0.43317  0.62465  1.0000
  H   H96       1.0  0.0758  0.3804600000000001  0.67024  1.0000
  H   H97       1.0  0.15466999999999995  0.73518  0.71773  1.0000
  H   H98       1.0  0.26216  0.79128  0.78091  1.0000
  H   H99       1.0  0.20594  0.23781000000000005  0.71957  1.0000
  H   H100      1.0  0.2936699999999999  0.12866  0.28175  1.0000
  H   H101      1.0  0.22149  0.41338  0.754  1.0000
  H   H102      1.0  0.20089  0.41507  0.69574  1.0000
  H   H103      1.0  0.15634  0.46725000000000005  0.77182  1.0000
  H   H104      1.0  0.14361  0.47293  0.71459  1.0000
  H   H105      1.0  0.19891  0.49409  0.75238  1.0000
  H   H106      1.0  0.27546  0.2876800000000001  0.26785  1.0000
  H   H107      1.0  0.3163799999999999  0.3291300000000001  0.30989  1.0000
  H   H108      1.0  0.2869  0.35802  0.23829  1.0000
  H   H109      1.0  0.3077299999999999  0.30772000000000005  0.20636  1.0000
  H   H110      1.0  0.3479399999999999  0.35009  0.24813  1.0000
  H   H111      1.0  0.16124  0.92581  0.69897  1.0000
  H   H112      1.0  0.14583  0.9010300000000002  0.74092  1.0000
  H   H113      1.0  0.22735999999999998  0.97362  0.75853  1.0000
  H   H114      1.0  0.21464  0.9465200000000005  0.80003  1.0000
  H   H115      1.0  0.17437  0.9841700000000002  0.7761  1.0000
  H   H116      1.0  0.09983999999999997  0.77648  0.75281  1.0000
  H   H117      1.0  0.07295999999999997  0.80816  0.7954  1.0000
  H   H118      1.0  0.015949999999999995  0.78897  0.71838  1.0000
  H   H119      1.0  0.05490000000000002  0.81762  0.69617  1.0000
  H   H120      1.0  0.027810000000000005  0.85043  0.73808  1.0000
  H   H121      1.0  0.27331  0.65064  0.092  1.0000
  H   H122      1.0  0.35342  0.72655  0.40741  1.0000
  H   H123      1.0  0.33556999999999987  0.65251  0.422  1.0000
  H   H124      1.0  0.3789099999999999  0.60024  0.46763  1.0000
  H   H125      1.0  0.46838999999999986  0.56804  0.37556999999999996  1.0000
  H   H126      1.0  0.42524  0.61985  0.32942  1.0000
  H   H127      1.0  0.19071  0.66343  0.07442  1.0000
  H   H128      1.0  0.11621  0.61885  0.03056  1.0000
  H   H129      1.0  0.13224  0.53313  0.12613  1.0000
  H   H130      1.0  0.20672999999999994  0.57745  0.17031  1.0000
  H   H131      1.0  0.38213  0.7587300000000001  0.17178  1.0000
  H   H132      1.0  0.4342799999999999  0.77859  0.12604  1.0000
  H   H133      1.0  0.3988  0.64496  0.03174  1.0000
  H   H134      1.0  0.34589  0.6249000000000001  0.07686  1.0000
  H   H135      1.0  0.69282  0.6246600000000001  0.07759  1.0000
  H   H136      1.0  0.61761  0.64481  0.03203  1.0000
  H   H137      1.0  0.62845  0.77828  0.12689  1.0000
  H   H138      1.0  0.7037599999999999  0.75859  0.17245  1.0000
  H   H139      1.0  0.77267  0.64695  0.09238  1.0000
  H   H140      1.0  0.80941  0.83546  0.92304  1.0000
  H   H141      1.0  0.8844299999999998  0.8786899999999999  0.9679399999999999  1.0000
  H   H142      1.0  0.86996  0.9671500000000002  0.87494  1.0000
  H   H143      1.0  0.79528  0.92403  0.82954  1.0000
  H   H144      1.0  0.72789  0.85351  0.90807  1.0000
  H   H145      1.0  0.6566399999999998  0.8742400000000002  0.92614  1.0000
  H   H146      1.0  0.60229  0.85341  0.96935  1.0000
  H   H147      1.0  0.56418  0.7226700000000003  0.87087  1.0000
  H   H148      1.0  0.61839  0.7429400000000002  0.8272  1.0000
  H   H149      1.0  0.24037  0.79432  0.32804  1.0000
  H   H150      1.0  0.2195  0.86964  0.37244  1.0000
  H   H151      1.0  0.3524  0.8828600000000002  0.46837  1.0000
  H   H152      1.0  0.37393  0.80763  0.42433  1.0000
  H   H153      1.0  0.8467599999999997  0.66474  0.07713  1.0000
  H   H154      1.0  0.9001499999999999  0.62255  0.03218  1.0000
  H   H155      1.0  0.9331399999999997  0.53336  0.12464  1.0000
  H   H156      1.0  0.8804599999999998  0.5757700000000002  0.17021  1.0000
  H   H157      1.0  0.23521999999999998  0.65458  0.21775  1.0000
  H   H158      1.0  0.29127  0.76219  0.28092  1.0000
  H   H159      1.0  0.7378  0.70585  0.21961  1.0000
  H   H160      1.0  0.62865  0.79371  0.78171  1.0000
  H   H161      1.0  0.9133399999999998  0.7214799999999999  0.25397  1.0000
  H   H162      1.0  0.91499  0.70087  0.19572  1.0000
  H   H163      1.0  0.9672599999999999  0.6563100000000002  0.27183  1.0000
  H   H164      1.0  0.9728799999999997  0.64361  0.21459  1.0000
  H   H165      1.0  0.99404  0.69892  0.25237  1.0000
  H   H166      1.0  0.7877099999999999  0.77546  0.76784  1.0000
  H   H167      1.0  0.82916  0.81638  0.80987  1.0000
  H   H168      1.0  0.85801  0.7869  0.73832  1.0000
  H   H169      1.0  0.80773  0.8077399999999999  0.70633  1.0000
  H   H170      1.0  0.8501099999999998  0.84795  0.7481  1.0000
  H   H171      1.0  0.4258199999999998  0.6612700000000001  0.19901  1.0000
  H   H172      1.0  0.40110000000000007  0.6458  0.24096000000000004  1.0000
  H   H173      1.0  0.4736399999999999  0.72736  0.25855  1.0000
  H   H174      1.0  0.44657  0.7146300000000002  0.30006  1.0000
  H   H175      1.0  0.48422000000000004  0.67438  0.27616  1.0000
  H   H176      1.0  0.27644  0.59976  0.25276  1.0000
  H   H177      1.0  0.3081599999999999  0.57288  0.29538  1.0000
  H   H178      1.0  0.28894  0.51591  0.21833  1.0000
  H   H179      1.0  0.31759  0.55489  0.19616  1.0000
  H   H180      1.0  0.3503899999999999  0.52776  0.23809  1.0000
  H   H181      1.0  0.84933  0.22665  0.40802  1.0000
  H   H182      1.0  0.7733399999999998  0.14668000000000006  0.09259  1.0000
  H   H183      1.0  0.84746  0.16448  0.07801  1.0000
  H   H184      1.0  0.8997199999999997  0.12119  0.03243  1.0000
  H   H185      1.0  0.93193  0.03163  0.12449999999999999  1.0000
  H   H186      1.0  0.88014  0.07474  0.1706  1.0000
  H   H187      1.0  0.83658  0.30927  0.42561  1.0000
  H   H188      1.0  0.88118  0.38377000000000006  0.46943  1.0000
  H   H189      1.0  0.96685  0.36772  0.37388  1.0000
  H   H190      1.0  0.9224999999999998  0.29323000000000005  0.32972  1.0000
  H   H191      1.0  0.74126  0.11788  0.32821  1.0000
  H   H192      1.0  0.7213899999999999  0.06572000000000001  0.37397  1.0000
  H   H193      1.0  0.8550099999999998  0.10113  0.46831  1.0000
  H   H194      1.0  0.87508  0.15406  0.42318  1.0000
  H   H195      1.0  0.8753799999999998  0.8071299999999999  0.42249  1.0000
  H   H196      1.0  0.8552799999999998  0.88236  0.46797  1.0000
  H   H197      1.0  0.72177  0.87155  0.37313  1.0000
  H   H198      1.0  0.74139  0.79622  0.32763  1.0000
  H   H199      1.0  0.8531799999999999  0.72725  0.40767  1.0000
  H   H200      1.0  0.66453  0.69063  0.57697  1.0000
  H   H201      1.0  0.6213  0.61559  0.5321  1.0000
  H   H202      1.0  0.53286  0.63004  0.62505  1.0000
  H   H203      1.0  0.57597  0.7047400000000001  0.67042  1.0000
  H   H204      1.0  0.6465799999999999  0.77213  0.59189  1.0000
  H   H205      1.0  0.6257899999999998  0.84339  0.57383  1.0000
  H   H206      1.0  0.64661  0.89777  0.5306  1.0000
  H   H207      1.0  0.7773499999999998  0.9358400000000001  0.62913  1.0000
  H   H208      1.0  0.75709  0.8815999999999999  0.6728  1.0000
  H   H209      1.0  0.7056099999999995  0.25963  0.17197999999999997  1.0000
  H   H210      1.0  0.63028  0.2805  0.12752  1.0000
  H   H211      1.0  0.6170899999999998  0.14766  0.0316  1.0000
  H   H212      1.0  0.69231  0.1261  0.0757  1.0000
  H   H213      1.0  0.8353499999999998  0.65316  0.4229  1.0000
  H   H214      1.0  0.87765  0.59975  0.46787  1.0000
  H   H215      1.0  0.96669  0.56683  0.37535  1.0000
  H   H216      1.0  0.9241999999999998  0.61955  0.32976  1.0000
  H   H217      1.0  0.8453299999999998  0.26483  0.28227  1.0000
  H   H218      1.0  0.73784  0.20873  0.21909  1.0000
  H   H219      1.0  0.7940599999999998  0.76219  0.28043  1.0000
  H   H220      1.0  0.70633  0.8713499999999998  0.71825  1.0000
  H   H221      1.0  0.77851  0.58662  0.24599  1.0000
  H   H222      1.0  0.7991099999999998  0.5849400000000002  0.30426  1.0000
  H   H223      1.0  0.84366  0.53276  0.22817  1.0000
  H   H224      1.0  0.85639  0.52708  0.28541  1.0000
  H   H225      1.0  0.80109  0.50592  0.24762  1.0000
  H   H226      1.0  0.7245400000000001  0.7123200000000002  0.73215  1.0000
  H   H227      1.0  0.68362  0.67088  0.69011  1.0000
  H   H228      1.0  0.7131  0.64198  0.76171  1.0000
  H   H229      1.0  0.69227  0.69229  0.79364  1.0000
  H   H230      1.0  0.65206  0.64992  0.75187  1.0000
  H   H231      1.0  0.8387600000000001  0.07419  0.30102  1.0000
  H   H232      1.0  0.8541699999999999  0.09898  0.25908  1.0000
  H   H233      1.0  0.7726499999999997  0.026380000000000008  0.24147000000000002  1.0000
  H   H234      1.0  0.7853599999999997  0.05349  0.19997  1.0000
  H   H235      1.0  0.82563  0.01583  0.2239  1.0000
  H   H236      1.0  0.9001699999999998  0.22353000000000006  0.24719  1.0000
  H   H237      1.0  0.9270499999999998  0.19185  0.2046  1.0000
  H   H238      1.0  0.9840499999999998  0.21103000000000002  0.28162  1.0000
  H   H239      1.0  0.9450999999999998  0.18238  0.30383  1.0000
  H   H240      1.0  0.97219  0.14957  0.26192  1.0000
  C   C1        1.0  0.07404  0.04791  0.0485  1.0000
  C   C2        1.0  0.04946000000000002  0.45116  0.95159  1.0000
  C   C3        1.0  0.69514  0.3189000000000001  0.77563  1.0000
  C   C4        1.0  0.7390699999999999  0.33932  0.80046  1.0000
  C   C5        1.0  0.7506699999999997  0.3515400000000001  0.84831  1.0000
  C   C6        1.0  0.7178599999999998  0.34095  0.8709500000000001  1.0000
  C   C7        1.0  0.67351  0.32018  0.8472099999999999  1.0000
  C   C8        1.0  0.66214  0.31012  0.79914  1.0000
  C   C9        1.0  0.6828  0.30641  0.72482  1.0000
  C   C10       1.0  0.69242  0.26281  0.70041  1.0000
  C   C11       1.0  0.67997  0.25042  0.65253  1.0000
  C   C12       1.0  0.65685  0.28263  0.62962  1.0000
  C   C13       1.0  0.6467699999999997  0.32678  0.65294  1.0000
  C   C14       1.0  0.66069  0.33847000000000005  0.70093  1.0000
  C   C15       1.0  0.6222999999999997  0.3595900000000001  0.6272199999999999  1.0000
  C   C16       1.0  0.63506  0.36557  0.58804  1.0000
  C   C17       1.0  0.6111999999999997  0.39498  0.56255  1.0000
  C   C18       1.0  0.57383  0.4190300000000001  0.57578  1.0000
  C   C19       1.0  0.5608399999999998  0.4133400000000001  0.61478  1.0000
  C   C20       1.0  0.58495  0.38424  0.64037  1.0000
  C   C21       1.0  0.7959  0.37623  0.8742  1.0000
  C   C22       1.0  0.82179  0.36513  0.91411  1.0000
  C   C23       1.0  0.8636599999999998  0.38972  0.93867  1.0000
  C   C24       1.0  0.88062  0.42642000000000013  0.92425  1.0000
  C   C25       1.0  0.8550299999999997  0.43792  0.88458  1.0000
  C   C26       1.0  0.8134599999999997  0.41288000000000014  0.85986  1.0000
  C   C27       1.0  0.64023  0.3093  0.87272  1.0000
  C   C28       1.0  0.6144199999999997  0.26613  0.8589  1.0000
  C   C29       1.0  0.58508  0.25502  0.88432  1.0000
  C   C30       1.0  0.5801499999999998  0.28711  0.92387  1.0000
  C   C31       1.0  0.6053499999999998  0.3303800000000001  0.93768  1.0000
  C   C32       1.0  0.63506  0.3412600000000001  0.91242  1.0000
  C   C33       1.0  0.29582  0.30949  0.87235  1.0000
  C   C34       1.0  0.3209  0.3414  0.91196  1.0000
  C   C35       1.0  0.3631099999999999  0.3304400000000001  0.9374  1.0000
  C   C36       1.0  0.38124999999999987  0.28689  0.92374  1.0000
  C   C37       1.0  0.35716  0.25528  0.8836  1.0000
  C   C38       1.0  0.31516  0.26656  0.85807  1.0000
  C   C39       1.0  0.17326  0.35274  0.84764  1.0000
  C   C40       1.0  0.21768  0.343  0.87059  1.0000
  C   C41       1.0  0.24974  0.32045  0.84709  1.0000
  C   C42       1.0  0.23701999999999995  0.30929  0.79935  1.0000
  C   C43       1.0  0.19307999999999995  0.31881  0.77514  1.0000
  C   C44       1.0  0.16052999999999995  0.33897  0.79962  1.0000
  C   C45       1.0  0.2033  0.12304000000000001  0.12677  1.0000
  C   C46       1.0  0.17762  0.13555  0.08751  1.0000
  C   C47       1.0  0.13555  0.11167  0.06233  1.0000
  C   C48       1.0  0.11826999999999996  0.07449  0.07579  1.0000
  C   C49       1.0  0.14354  0.06185  0.11497  1.0000
  C   C50       1.0  0.18532999999999997  0.08597  0.14023  1.0000
  C   C51       1.0  0.3053699999999999  0.18184  0.22473  1.0000
  C   C52       1.0  0.33693  0.19055  0.19987  1.0000
  C   C53       1.0  0.32538  0.17877000000000004  0.15209  1.0000
  C   C54       1.0  0.2814799999999999  0.15657  0.12899  1.0000
  C   C55       1.0  0.24894  0.14716  0.15246  1.0000
  C   C56       1.0  0.26101  0.16082  0.20054  1.0000
  C   C57       1.0  0.35849  0.18994  0.12658  1.0000
  C   C58       1.0  0.3632999999999999  0.15912  0.08607  1.0000
  C   C59       1.0  0.3938199999999999  0.17044  0.06181  1.0000
  C   C60       1.0  0.4199799999999999  0.21324000000000007  0.07717  1.0000
  C   C61       1.0  0.41565  0.24414000000000005  0.11761  1.0000
  C   C62       1.0  0.38548  0.23247  0.14201  1.0000
  C   C63       1.0  0.6914399999999998  0.20476000000000003  0.62685  1.0000
  C   C64       1.0  0.7347599999999997  0.18626  0.64151  1.0000
  C   C65       1.0  0.74673  0.14423  0.61674  1.0000
  C   C66       1.0  0.7154399999999999  0.11933999999999997  0.57683  1.0000
  C   C67       1.0  0.6718199999999998  0.13696  0.56231  1.0000
  C   C68       1.0  0.6601499999999998  0.17925  0.58695  1.0000
  C   C69       1.0  0.14044999999999996  0.37699999999999995  0.8734499999999998  1.0000
  C   C70       1.0  0.13455  0.36423  0.9126  1.0000
  C   C71       1.0  0.10469999999999995  0.38764999999999994  0.9377999999999999  1.0000
  C   C72       1.0  0.08039000000000002  0.42483  0.92441  1.0000
  C   C73       1.0  0.08596  0.43778  0.88533  1.0000
  C   C74       1.0  0.11543999999999999  0.41407  0.86003  1.0000
  C   C75       1.0  0.9249699999999997  0.45312  0.95132  1.0000
  C   C76       1.0  0.5492299999999998  0.27468  0.95132  1.0000
  C   C77       1.0  0.42513  0.27372000000000013  0.95186  1.0000
  C   C78       1.0  0.45072  0.22654000000000005  0.05001  1.0000
  C   C79       1.0  0.7286499999999998  0.07495  0.54977  1.0000
  C   C80       1.0  0.5478399999999998  0.45018000000000014  0.5486  1.0000
  C   C81       1.0  0.08109  0.30918  0.77183  1.0000
  C   C82       1.0  0.033849999999999984  0.3288  0.75751  1.0000
  C   C83       1.0  0.19416  0.19  0.22444  1.0000
  C   C84       1.0  0.16799999999999995  0.18652  0.26002  1.0000
  C   C85       1.0  0.58363  0.3252  0.76841  1.0000
  C   C86       1.0  0.54233  0.3006300000000001  0.73124  1.0000
  C   C87       1.0  0.69075  0.4164  0.73587  1.0000
  C   C88       1.0  0.68287  0.45687000000000005  0.7730399999999998  1.0000
  C   C89       1.0  0.4520999999999999  0.42595  0.4515  1.0000
  C   C90       1.0  0.04877  0.45057  0.54842  1.0000
  C   C91       1.0  0.18109  0.8048700000000002  0.72436  1.0000
  C   C92       1.0  0.16073  0.7609200000000002  0.69952  1.0000
  C   C93       1.0  0.14851  0.7493400000000001  0.65167  1.0000
  C   C94       1.0  0.15908  0.7821700000000003  0.62903  1.0000
  C   C95       1.0  0.17982999999999996  0.8265100000000002  0.6527699999999999  1.0000
  C   C96       1.0  0.18989  0.8378700000000001  0.70083  1.0000
  C   C97       1.0  0.19359  0.81721  0.77518  1.0000
  C   C98       1.0  0.23718999999999996  0.80758  0.79958  1.0000
  C   C99       1.0  0.24961999999999995  0.8200100000000002  0.84746  1.0000
  C   C100      1.0  0.21743999999999997  0.8431200000000001  0.87038  1.0000
  C   C101      1.0  0.1732899999999999  0.85324  0.84706  1.0000
  C   C102      1.0  0.16157  0.8393400000000001  0.79907  1.0000
  C   C103      1.0  0.14047999999999994  0.8777100000000001  0.87277  1.0000
  C   C104      1.0  0.13448000000000002  0.86492  0.91194  1.0000
  C   C105      1.0  0.10506999999999997  0.88877  0.93741  1.0000
  C   C106      1.0  0.08100999999999998  0.9261600000000002  0.92419  1.0000
  C   C107      1.0  0.08671  0.9391600000000002  0.8852  1.0000
  C   C108      1.0  0.11581000000000002  0.91506  0.85962  1.0000
  C   C109      1.0  0.12382  0.7041100000000002  0.62578  1.0000
  C   C110      1.0  0.13487999999999994  0.67823  0.58586  1.0000
  C   C111      1.0  0.11028000000000002  0.63637  0.56133  1.0000
  C   C112      1.0  0.07358  0.6194100000000002  0.57576  1.0000
  C   C113      1.0  0.062119999999999995  0.64501  0.61542  1.0000
  C   C114      1.0  0.08716999999999998  0.68658  0.64011  1.0000
  C   C115      1.0  0.19071999999999992  0.8598099999999999  0.62727  1.0000
  C   C116      1.0  0.23389  0.88561  0.6411  1.0000
  C   C117      1.0  0.24500999999999998  0.91494  0.61568  1.0000
  C   C118      1.0  0.21291999999999994  0.9198800000000001  0.5761000000000001  1.0000
  C   C119      1.0  0.16964  0.8947000000000002  0.56228  1.0000
  C   C120      1.0  0.15876  0.8650000000000002  0.58755  1.0000
  C   C121      1.0  0.19050999999999996  0.20424  0.6276  1.0000
  C   C122      1.0  0.15856999999999993  0.17915  0.58798  1.0000
  C   C123      1.0  0.16951  0.13693  0.56258  1.0000
  C   C124      1.0  0.21303999999999998  0.11875999999999998  0.57623  1.0000
  C   C125      1.0  0.24469  0.14287  0.61636  1.0000
  C   C126      1.0  0.23343999999999998  0.1848800000000001  0.64187  1.0000
  C   C127      1.0  0.14723999999999998  0.32678999999999997  0.6523199999999999  1.0000
  C   C128      1.0  0.15694999999999998  0.28237  0.62937  1.0000
  C   C129      1.0  0.17955  0.25031  0.65286  1.0000
  C   C130      1.0  0.19075  0.26300000000000007  0.70061  1.0000
  C   C131      1.0  0.1812  0.30691  0.72481  1.0000
  C   C132      1.0  0.16105  0.3395  0.70034  1.0000
  C   C133      1.0  0.37697999999999987  0.29668  0.37324  1.0000
  C   C134      1.0  0.36446  0.32235  0.41248  1.0000
  C   C135      1.0  0.38834  0.36443000000000003  0.43765  1.0000
  C   C136      1.0  0.4255199999999999  0.38172  0.4242  1.0000
  C   C137      1.0  0.43815000000000004  0.3564600000000001  0.38504000000000005  1.0000
  C   C138      1.0  0.41403  0.31466  0.35979  1.0000
  C   C139      1.0  0.3181799999999999  0.19463  0.27529  1.0000
  C   C140      1.0  0.3094399999999999  0.16307  0.30015  1.0000
  C   C141      1.0  0.3212  0.17462000000000005  0.34793  1.0000
  C   C142      1.0  0.3434  0.21852  0.37104  1.0000
  C   C143      1.0  0.3528599999999999  0.25105  0.34757  1.0000
  C   C144      1.0  0.3392099999999999  0.23897999999999997  0.29949  1.0000
  C   C145      1.0  0.31003  0.14150000000000001  0.37344  1.0000
  C   C146      1.0  0.34085  0.13668000000000002  0.41396  1.0000
  C   C147      1.0  0.32955  0.10615  0.43823  1.0000
  C   C148      1.0  0.28674  0.08  0.42285  1.0000
  C   C149      1.0  0.25585  0.08435  0.3824  1.0000
  C   C150      1.0  0.2674999999999999  0.11451999999999998  0.3579899999999999  1.0000
  C   C151      1.0  0.2953  0.80854  0.87313  1.0000
  C   C152      1.0  0.31380999999999987  0.7652300000000001  0.85848  1.0000
  C   C153      1.0  0.3558299999999999  0.75326  0.8832699999999999  1.0000
  C   C154      1.0  0.3807099999999999  0.7845499999999999  0.9231899999999998  1.0000
  C   C155      1.0  0.36309999999999987  0.82815  0.9377  1.0000
  C   C156      1.0  0.32081  0.83983  0.91304  1.0000
  C   C157      1.0  0.12295999999999996  0.3596  0.62653  1.0000
  C   C158      1.0  0.13569  0.36552  0.58737  1.0000
  C   C159      1.0  0.11223999999999999  0.39536999999999994  0.5621699999999998  1.0000
  C   C160      1.0  0.07508  0.41965  0.5756  1.0000
  C   C161      1.0  0.06216000000000001  0.41408  0.61469  1.0000
  C   C162      1.0  0.08591000000000003  0.38459  0.63998  1.0000
  C   C163      1.0  0.04686000000000002  0.5750500000000002  0.5487200000000001  1.0000
  C   C164      1.0  0.22537  0.95079  0.54867  1.0000
  C   C165      1.0  0.22623  0.07487999999999999  0.54813  1.0000
  C   C166      1.0  0.27347  0.04927  0.45003  1.0000
  C   C167      1.0  0.4250799999999999  0.77133  0.95025  1.0000
  C   C168      1.0  0.04985000000000002  0.95215  0.95137  1.0000
  C   C169      1.0  0.19085  0.41895  0.72817  1.0000
  C   C170      1.0  0.17122  0.46618  0.7425  1.0000
  C   C171      1.0  0.31  0.3058300000000001  0.27558  1.0000
  C   C172      1.0  0.31346999999999997  0.332  0.24  1.0000
  C   C173      1.0  0.17481999999999998  0.9163400000000003  0.73156  1.0000
  C   C174      1.0  0.19939  0.9576399999999999  0.76873  1.0000
  C   C175      1.0  0.08366000000000004  0.80928  0.7641500000000001  1.0000
  C   C176      1.0  0.04317999999999998  0.81716  0.72698  1.0000
  C   C177      1.0  0.9259599999999998  0.9521  0.9514999999999999  1.0000
  C   C178      1.0  0.95054  0.54885  0.04841  1.0000
  C   C179      1.0  0.3048599999999999  0.6811000000000003  0.22437  1.0000
  C   C180      1.0  0.26093  0.6606900000000002  0.19954  1.0000
  C   C181      1.0  0.24933  0.64847  0.15169  1.0000
  C   C182      1.0  0.28215  0.65906  0.12905  1.0000
  C   C183      1.0  0.32648999999999995  0.67982  0.15278  1.0000
  C   C184      1.0  0.33787  0.68988  0.20086  1.0000
  C   C185      1.0  0.3172  0.6936  0.27518  1.0000
  C   C186      1.0  0.30758  0.73719  0.29959  1.0000
  C   C187      1.0  0.32003  0.7495800000000002  0.34747  1.0000
  C   C188      1.0  0.3431499999999999  0.71738  0.37038  1.0000
  C   C189      1.0  0.35323  0.6732300000000002  0.34706  1.0000
  C   C190      1.0  0.3393099999999999  0.66154  0.29907  1.0000
  C   C191      1.0  0.3777  0.64042  0.37278  1.0000
  C   C192      1.0  0.3649399999999999  0.6344300000000002  0.41196  1.0000
  C   C193      1.0  0.38879999999999987  0.60502  0.43745  1.0000
  C   C194      1.0  0.4261699999999999  0.58098  0.42422  1.0000
  C   C195      1.0  0.4391699999999999  0.58666  0.38522  1.0000
  C   C196      1.0  0.41504999999999986  0.61577  0.35963  1.0000
  C   C197      1.0  0.2041  0.62378  0.1258  1.0000
  C   C198      1.0  0.17821  0.63488  0.08589  1.0000
  C   C199      1.0  0.13634  0.6102900000000001  0.06133  1.0000
  C   C200      1.0  0.11938  0.5735800000000002  0.07575000000000001  1.0000
  C   C201      1.0  0.14497  0.56209  0.11542  1.0000
  C   C202      1.0  0.18654  0.5871300000000003  0.14014  1.0000
  C   C203      1.0  0.35977  0.69071  0.12728  1.0000
  C   C204      1.0  0.38558999999999993  0.73388  0.1411  1.0000
  C   C205      1.0  0.41492  0.74498  0.11568  1.0000
  C   C206      1.0  0.4198499999999999  0.71289  0.07613  1.0000
  C   C207      1.0  0.39465  0.6696200000000002  0.06232  1.0000
  C   C208      1.0  0.36493999999999976  0.6587400000000002  0.08758  1.0000
  C   C209      1.0  0.70419  0.69052  0.12765  1.0000
  C   C210      1.0  0.6791  0.65861  0.08803  1.0000
  C   C211      1.0  0.6369  0.66956  0.0626  1.0000
  C   C212      1.0  0.6187499999999998  0.71311  0.07625  1.0000
  C   C213      1.0  0.6428499999999999  0.74473  0.11639999999999999  1.0000
  C   C214      1.0  0.6848399999999998  0.73345  0.14193  1.0000
  C   C215      1.0  0.8267399999999998  0.64727  0.15236  1.0000
  C   C216      1.0  0.7823199999999998  0.6570100000000001  0.12941  1.0000
  C   C217      1.0  0.75027  0.67955  0.15291  1.0000
  C   C218      1.0  0.7629899999999997  0.69072  0.20065  1.0000
  C   C219      1.0  0.80692  0.6812000000000001  0.22486  1.0000
  C   C220      1.0  0.8394799999999998  0.66104  0.20038  1.0000
  C   C221      1.0  0.7967000000000001  0.87697  0.8732300000000001  1.0000
  C   C222      1.0  0.82238  0.8644500000000002  0.9124900000000001  1.0000
  C   C223      1.0  0.86445  0.8883299999999998  0.93767  1.0000
  C   C224      1.0  0.8817300000000001  0.92552  0.92421  1.0000
  C   C225      1.0  0.8564699999999995  0.9381599999999999  0.88503  1.0000
  C   C226      1.0  0.8146799999999998  0.9140300000000002  0.8597699999999999  1.0000
  C   C227      1.0  0.69463  0.81817  0.77527  1.0000
  C   C228      1.0  0.66307  0.80946  0.80013  1.0000
  C   C229      1.0  0.67462  0.82123  0.8479000000000001  1.0000
  C   C230      1.0  0.7185199999999998  0.8434300000000002  0.87101  1.0000
  C   C231      1.0  0.75106  0.85285  0.84754  1.0000
  C   C232      1.0  0.73899  0.83918  0.79946  1.0000
  C   C233      1.0  0.64151  0.8100700000000002  0.87341  1.0000
  C   C234      1.0  0.6367  0.84089  0.91393  1.0000
  C   C235      1.0  0.60618  0.82957  0.93819  1.0000
  C   C236      1.0  0.5800199999999999  0.7867700000000002  0.92283  1.0000
  C   C237      1.0  0.58436  0.75587  0.88239  1.0000
  C   C238      1.0  0.61452  0.76753  0.85799  1.0000
  C   C239      1.0  0.30856  0.79524  0.37315  1.0000
  C   C240      1.0  0.26524  0.8137500000000002  0.35849  1.0000
  C   C241      1.0  0.25327  0.85577  0.38326  1.0000
  C   C242      1.0  0.28456  0.88066  0.42317  1.0000
  C   C243      1.0  0.32818  0.8630500000000002  0.43769  1.0000
  C   C244      1.0  0.3398499999999999  0.82075  0.41305  1.0000
  C   C245      1.0  0.85955  0.62301  0.12655  1.0000
  C   C246      1.0  0.8654499999999998  0.63577  0.0874  1.0000
  C   C247      1.0  0.8953  0.61236  0.0622  1.0000
  C   C248      1.0  0.9196099999999998  0.5751700000000002  0.07558  1.0000
  C   C249      1.0  0.91404  0.5622200000000002  0.11467  1.0000
  C   C250      1.0  0.8845599999999998  0.58594  0.13997  1.0000
  C   C251      1.0  0.07503  0.54689  0.04868  1.0000
  C   C252      1.0  0.45076999999999995  0.72533  0.04868  1.0000
  C   C253      1.0  0.57487  0.72629  0.04814  1.0000
  C   C254      1.0  0.54928  0.77347  0.94999  1.0000
  C   C255      1.0  0.27134999999999987  0.9250500000000004  0.45023  1.0000
  C   C256      1.0  0.45215999999999995  0.54983  0.45139  1.0000
  C   C257      1.0  0.91891  0.69083  0.22816  1.0000
  C   C258      1.0  0.9661499999999997  0.6712100000000002  0.24249  1.0000
  C   C259      1.0  0.80585  0.8100099999999999  0.7755599999999999  1.0000
  C   C260      1.0  0.8319999999999999  0.81348  0.73998  1.0000
  C   C261      1.0  0.41637  0.67481  0.23159  1.0000
  C   C262      1.0  0.45767  0.69938  0.26876  1.0000
  C   C263      1.0  0.30925  0.58361  0.26413  1.0000
  C   C264      1.0  0.3171299999999999  0.54314  0.22696  1.0000
  C   C265      1.0  0.5479  0.5740600000000002  0.5485  1.0000
  C   C266      1.0  0.95123  0.54943  0.45158  1.0000
  C   C267      1.0  0.8189099999999998  0.19513  0.27564  1.0000
  C   C268      1.0  0.83927  0.23908  0.30048  1.0000
  C   C269      1.0  0.85149  0.25067  0.34833  1.0000
  C   C270      1.0  0.84092  0.21784  0.37097  1.0000
  C   C271      1.0  0.8201699999999997  0.17349  0.34723  1.0000
  C   C272      1.0  0.81012  0.16213  0.29916  1.0000
  C   C273      1.0  0.80641  0.18279  0.22482  1.0000
  C   C274      1.0  0.7628099999999998  0.19242000000000006  0.20042  1.0000
  C   C275      1.0  0.75038  0.17999  0.15254  1.0000
  C   C276      1.0  0.7825599999999998  0.15689  0.12962  1.0000
  C   C277      1.0  0.82671  0.14677  0.15294  1.0000
  C   C278      1.0  0.8384299999999999  0.16066000000000003  0.20093  1.0000
  C   C279      1.0  0.8595199999999998  0.12229999999999999  0.12723  1.0000
  C   C280      1.0  0.8655199999999997  0.13509  0.08806  1.0000
  C   C281      1.0  0.8949399999999998  0.11124  0.06259  1.0000
  C   C282      1.0  0.9189899999999998  0.07384000000000002  0.07581  1.0000
  C   C283      1.0  0.9132999999999998  0.06084  0.1148  1.0000
  C   C284      1.0  0.8841899999999998  0.08495  0.14038  1.0000
  C   C285      1.0  0.87619  0.29589000000000004  0.37422  1.0000
  C   C286      1.0  0.8651199999999998  0.32177  0.41414000000000006  1.0000
  C   C287      1.0  0.8897299999999998  0.36364  0.43866999999999995  1.0000
  C   C288      1.0  0.92642  0.3806  0.42424  1.0000
  C   C289      1.0  0.93789  0.355  0.3845799999999999  1.0000
  C   C290      1.0  0.91284  0.31343  0.35989  1.0000
  C   C291      1.0  0.8092899999999997  0.14020000000000005  0.37273  1.0000
  C   C292      1.0  0.76611  0.1144  0.3589  1.0000
  C   C293      1.0  0.75499  0.08507  0.38432  1.0000
  C   C294      1.0  0.7870899999999998  0.08013  0.4239  1.0000
  C   C295      1.0  0.8303599999999998  0.1053  0.43771  1.0000
  C   C296      1.0  0.84125  0.13501  0.41245  1.0000
  C   C297      1.0  0.8094899999999998  0.7957700000000002  0.3724  1.0000
  C   C298      1.0  0.84143  0.82085  0.41202  1.0000
  C   C299      1.0  0.8304999999999999  0.8630700000000002  0.43742  1.0000
  C   C300      1.0  0.78696  0.88125  0.42377  1.0000
  C   C301      1.0  0.75531  0.85714  0.38364  1.0000
  C   C302      1.0  0.7665599999999998  0.81513  0.35813  1.0000
  C   C303      1.0  0.8527599999999997  0.67322  0.34768  1.0000
  C   C304      1.0  0.8430499999999997  0.71763  0.37063  1.0000
  C   C305      1.0  0.82046  0.7497000000000003  0.34714  1.0000
  C   C306      1.0  0.80925  0.737  0.29939  1.0000
  C   C307      1.0  0.81881  0.6930900000000002  0.27519  1.0000
  C   C308      1.0  0.83896  0.66051  0.29966  1.0000
  C   C309      1.0  0.62302  0.7033200000000002  0.6267599999999999  1.0000
  C   C310      1.0  0.6355399999999998  0.67765  0.5875199999999999  1.0000
  C   C311      1.0  0.6116599999999998  0.63558  0.56235  1.0000
  C   C312      1.0  0.57449  0.61829  0.5758  1.0000
  C   C313      1.0  0.56185  0.64355  0.61496  1.0000
  C   C314      1.0  0.58597  0.6853400000000002  0.64021  1.0000
  C   C315      1.0  0.6818199999999998  0.80537  0.72471  1.0000
  C   C316      1.0  0.6905599999999997  0.8369399999999999  0.69985  1.0000
  C   C317      1.0  0.6787999999999998  0.8253800000000003  0.65207  1.0000
  C   C318      1.0  0.6566  0.78149  0.62896  1.0000
  C   C319      1.0  0.6471499999999998  0.7489600000000001  0.65243  1.0000
  C   C320      1.0  0.6607899999999998  0.76103  0.70051  1.0000
  C   C321      1.0  0.68997  0.8585000000000004  0.62656  1.0000
  C   C322      1.0  0.65915  0.86333  0.58604  1.0000
  C   C323      1.0  0.6704499999999998  0.8938600000000002  0.56177  1.0000
  C   C324      1.0  0.71326  0.9200000000000002  0.57715  1.0000
  C   C325      1.0  0.7441599999999998  0.91566  0.6176  1.0000
  C   C326      1.0  0.7325  0.8854800000000003  0.642  1.0000
  C   C327      1.0  0.7047  0.19146  0.12687  1.0000
  C   C328      1.0  0.6861899999999997  0.23477  0.14152  1.0000
  C   C329      1.0  0.6441699999999998  0.24675  0.11673  1.0000
  C   C330      1.0  0.6192999999999997  0.21546  0.07681  1.0000
  C   C331      1.0  0.6369099999999998  0.17185  0.0623  1.0000
  C   C332      1.0  0.6791899999999997  0.16017  0.08695999999999998  1.0000
  C   C333      1.0  0.8770399999999998  0.6404000000000001  0.37347  1.0000
  C   C334      1.0  0.8643099999999999  0.63449  0.41263  1.0000
  C   C335      1.0  0.8877599999999998  0.6046300000000002  0.43782  1.0000
  C   C336      1.0  0.92492  0.58036  0.4244  1.0000
  C   C337      1.0  0.9378399999999998  0.5859300000000001  0.3853  1.0000
  C   C338      1.0  0.9140899999999997  0.61542  0.36002  1.0000
  C   C339      1.0  0.9531400000000001  0.42495  0.45128  1.0000
  C   C340      1.0  0.77463  0.04922  0.45133  1.0000
  C   C341      1.0  0.77377  0.92513  0.45187  1.0000
  C   C342      1.0  0.7265299999999996  0.95073  0.54997  1.0000
  C   C343      1.0  0.5749199999999998  0.22868  0.04975  1.0000
  C   C344      1.0  0.9501499999999998  0.04785  0.04863  1.0000
  C   C345      1.0  0.8091599999999999  0.58106  0.27183  1.0000
  C   C346      1.0  0.82878  0.53382  0.2575  1.0000
  C   C347      1.0  0.69  0.6941700000000002  0.72442  1.0000
  C   C348      1.0  0.6865399999999998  0.668  0.76  1.0000
  C   C349      1.0  0.8251799999999998  0.08366  0.26844  1.0000
  C   C350      1.0  0.8006199999999999  0.04237  0.23127  1.0000
  C   C351      1.0  0.91635  0.19073  0.23585  1.0000
  C   C352      1.0  0.95683  0.18285  0.27302  1.0000
  O   O1        1.0  0.05046999999999999  0.06321  0.01517  1.0000
  O   O2        1.0  0.06312  0.01153  0.06047  1.0000
  O   O3        1.0  0.04326  0.43628  0.98536  1.0000
  O   O4        1.0  0.03156000000000001  0.48705  0.93928  1.0000
  O   O5        1.0  0.5118  0.46815  0.56056  1.0000
  O   O6        1.0  0.43689  0.23173  0.93933  1.0000
  O   O7        1.0  0.44751999999999986  0.3048300000000001  0.98651  1.0000
  O   O8        1.0  0.54287  0.3065400000000001  0.98496  1.0000
  O   O9        1.0  0.5316  0.23262  0.93928  1.0000
  O   O10       1.0  0.69728  0.05204999999999999  0.5157  1.0000
  O   O11       1.0  0.77066  0.06323  0.56246  1.0000
  O   O12       1.0  0.46857  0.26848  0.06265  1.0000
  O   O13       1.0  0.45667999999999986  0.19525  0.01575  1.0000
  O   O14       1.0  0.56337  0.45648  0.51522  1.0000
  O   O15       1.0  0.9480799999999998  0.43832  0.98514  1.0000
  O   O16       1.0  0.9365999999999998  0.48895  0.93899  1.0000
  O   O17       1.0  0.11607999999999999  0.3457500000000001  0.7768  1.0000
  O   O18       1.0  0.22884  0.15484000000000006  0.22491  1.0000
  O   O19       1.0  0.61873  0.29076  0.7742  1.0000
  O   O20       1.0  0.65219  0.38185  0.72544  1.0000
  O   O21       1.0  0.4367999999999999  0.4495  0.48482  1.0000
  O   O22       1.0  0.4884599999999999  0.43689  0.43953  1.0000
  O   O23       1.0  0.06367999999999997  0.45677  0.51468  1.0000
  O   O24       1.0  0.012879999999999994  0.46845000000000003  0.56071  1.0000
  O   O25       1.0  0.031860000000000034  0.9882100000000003  0.9394200000000001  1.0000
  O   O26       1.0  0.26821  0.06312  0.56065  1.0000
  O   O27       1.0  0.19509999999999994  0.05247  0.51346  1.0000
  O   O28       1.0  0.19348999999999997  0.95715  0.51499  1.0000
  O   O29       1.0  0.26741999999999994  0.9684000000000003  0.56071  1.0000
  O   O30       1.0  0.44799  0.8027300000000002  0.98431  1.0000
  O   O31       1.0  0.43677999999999995  0.72933  0.9375899999999999  1.0000
  O   O32       1.0  0.2315  0.03143  0.43736  1.0000
  O   O33       1.0  0.3047399999999999  0.04332  0.48429  1.0000
  O   O34       1.0  0.043560000000000015  0.9366300000000002  0.98477  1.0000
  O   O35       1.0  0.06162999999999998  0.55195  0.51489  1.0000
  O   O36       1.0  0.011049999999999968  0.56341  0.56106  1.0000
  O   O37       1.0  0.15428999999999995  0.38393  0.72318  1.0000
  O   O38       1.0  0.3451799999999999  0.27116  0.27511  1.0000
  O   O39       1.0  0.20926  0.8812700000000002  0.72575  1.0000
  O   O40       1.0  0.11816999999999997  0.84785  0.77457  1.0000
  O   O41       1.0  0.9495299999999998  0.93679  0.98483  1.0000
  O   O42       1.0  0.93688  0.98847  0.93953  1.0000
  O   O43       1.0  0.95674  0.56373  0.01464  1.0000
  O   O44       1.0  0.9684399999999997  0.51296  0.06070999999999999  1.0000
  O   O45       1.0  0.48821  0.53185  0.43944  1.0000
  O   O46       1.0  0.5631099999999998  0.76827  0.06066  1.0000
  O   O47       1.0  0.55248  0.69517  0.01349  1.0000
  O   O48       1.0  0.45713  0.69347  0.01503  1.0000
  O   O49       1.0  0.4683999999999999  0.7673900000000002  0.06072  1.0000
  O   O50       1.0  0.3027199999999999  0.94795  0.4843  1.0000
  O   O51       1.0  0.22933999999999993  0.93677  0.43754  1.0000
  O   O52       1.0  0.5314299999999997  0.7315300000000002  0.9373499999999999  1.0000
  O   O53       1.0  0.54333  0.8047600000000001  0.98424  1.0000
  O   O54       1.0  0.4366299999999999  0.54352  0.48478  1.0000
  O   O55       1.0  0.05191999999999999  0.56168  0.014859999999999998  1.0000
  O   O56       1.0  0.0634  0.51106  0.06101000000000001  1.0000
  O   O57       1.0  0.8839199999999998  0.65426  0.2232  1.0000
  O   O58       1.0  0.77116  0.8451700000000001  0.7750899999999998  1.0000
  O   O59       1.0  0.38127000000000005  0.7092400000000002  0.22579  1.0000
  O   O60       1.0  0.34781000000000006  0.6181600000000002  0.27456  1.0000
  O   O61       1.0  0.5631999999999998  0.55051  0.51518  1.0000
  O   O62       1.0  0.51154  0.56312  0.56047  1.0000
  O   O63       1.0  0.9363199999999999  0.54324  0.48532  1.0000
  O   O64       1.0  0.9871199999999998  0.53155  0.43929  1.0000
  O   O65       1.0  0.9681399999999998  0.0118  0.06058  1.0000
  O   O66       1.0  0.7318  0.93689  0.43935  1.0000
  O   O67       1.0  0.8048999999999998  0.94753  0.48654  1.0000
  O   O68       1.0  0.8065099999999997  0.04286000000000001  0.48501  1.0000
  O   O69       1.0  0.73259  0.03161  0.43929  1.0000
  O   O70       1.0  0.5520099999999998  0.19727000000000006  0.01569  1.0000
  O   O71       1.0  0.56322  0.27067  0.06241  1.0000
  O   O72       1.0  0.7684999999999996  0.96858  0.5626399999999999  1.0000
  O   O73       1.0  0.69527  0.9566800000000002  0.51571  1.0000
  O   O74       1.0  0.95645  0.06338  0.01523  1.0000
  O   O75       1.0  0.9383699999999998  0.4480500000000001  0.48511000000000004  1.0000
  O   O76       1.0  0.9889499999999998  0.4365900000000001  0.43894  1.0000
  O   O77       1.0  0.8457199999999998  0.61607  0.27682  1.0000
  O   O78       1.0  0.65482  0.72884  0.72489  1.0000
  O   O79       1.0  0.79074  0.11872999999999999  0.27425  1.0000
  O   O80       1.0  0.8818299999999998  0.15216  0.22543  1.0000
