data_image0
_chemical_formula_structural       Zn48H480C672N192
_chemical_formula_sum              "Zn48 H480 C672 N192"
_cell_length_a       33.00295
_cell_length_b       33.00043
_cell_length_c       33.00045
_cell_angle_alpha    60.00421999999999
_cell_angle_beta     59.98199999999999
_cell_angle_gamma    59.98198

_space_group_name_H-M_alt    "P 1"
_space_group_IT_number       1

loop_
  _space_group_symop_operation_xyz
  'x, y, z'

loop_
  _atom_site_type_symbol
  _atom_site_label
  _atom_site_symmetry_multiplicity
  _atom_site_fract_x
  _atom_site_fract_y
  _atom_site_fract_z
  _atom_site_occupancy
  Zn  Zn1       1.0  0.02451999999999997  0.84386  0.47475  1.0000
  Zn  Zn2       1.0  0.8439800000000001  0.02459  0.65682  1.0000
  Zn  Zn3       1.0  0.6569100000000001  0.47466  0.84409  1.0000
  Zn  Zn4       1.0  0.4746200000000002  0.65685  0.0246  1.0000
  Zn  Zn5       1.0  0.65686  0.02459  0.47463  1.0000
  Zn  Zn6       1.0  0.4746500000000002  0.84408  0.65694  1.0000
  Zn  Zn7       1.0  0.02457000000000001  0.65686  0.8439799999999998  1.0000
  Zn  Zn8       1.0  0.8438600000000002  0.47474  0.02451  1.0000
  Zn  Zn9       1.0  0.84406  0.65693  0.47467  1.0000
  Zn  Zn10      1.0  0.024589999999999935  0.4746300000000001  0.65686  1.0000
  Zn  Zn11      1.0  0.47476  0.02451000000000003  0.84384  1.0000
  Zn  Zn12      1.0  0.65685  0.84397  0.02457  1.0000
  Zn  Zn13      1.0  0.9754299999999999  0.15601999999999996  0.34315  1.0000
  Zn  Zn14      1.0  0.15613999999999992  0.9755  0.52526  1.0000
  Zn  Zn15      1.0  0.34313000000000005  0.52538  0.97541  1.0000
  Zn  Zn16      1.0  0.52535  0.34306  0.15591999999999998  1.0000
  Zn  Zn17      1.0  0.34315  0.97543  0.15603  1.0000
  Zn  Zn18      1.0  0.52523  0.15616  0.97549  1.0000
  Zn  Zn19      1.0  0.9754000000000003  0.3431499999999999  0.52537  1.0000
  Zn  Zn20      1.0  0.1559299999999999  0.5253300000000002  0.34308  1.0000
  Zn  Zn21      1.0  0.15601000000000007  0.34317999999999993  0.97541  1.0000
  Zn  Zn22      1.0  0.97548  0.52525  0.15614  1.0000
  Zn  Zn23      1.0  0.5253699999999999  0.9754  0.34315  1.0000
  Zn  Zn24      1.0  0.34308000000000005  0.15592000000000003  0.52535  1.0000
  Zn  Zn25      1.0  0.97548  0.15614  0.52525  1.0000
  Zn  Zn26      1.0  0.15601000000000004  0.97541  0.34318  1.0000
  Zn  Zn27      1.0  0.34308  0.5253500000000001  0.15591  1.0000
  Zn  Zn28      1.0  0.5253700000000001  0.34315000000000007  0.9753999999999998  1.0000
  Zn  Zn29      1.0  0.34313  0.97541  0.52537  1.0000
  Zn  Zn30      1.0  0.5253500000000001  0.15591999999999998  0.34306  1.0000
  Zn  Zn31      1.0  0.9754299999999999  0.34315000000000007  0.15601999999999996  1.0000
  Zn  Zn32      1.0  0.15612999999999988  0.5252600000000002  0.97549  1.0000
  Zn  Zn33      1.0  0.15593000000000004  0.3430799999999999  0.52533  1.0000
  Zn  Zn34      1.0  0.97541  0.52537  0.34315  1.0000
  Zn  Zn35      1.0  0.5252400000000002  0.97549  0.15615999999999997  1.0000
  Zn  Zn36      1.0  0.34315  0.15603  0.97543  1.0000
  Zn  Zn37      1.0  0.02457000000000001  0.84398  0.65686  1.0000
  Zn  Zn38      1.0  0.84386  0.02451000000000003  0.47473999999999994  1.0000
  Zn  Zn39      1.0  0.65686  0.47463  0.02459  1.0000
  Zn  Zn40      1.0  0.47464999999999996  0.65694  0.84408  1.0000
  Zn  Zn41      1.0  0.6568399999999999  0.024579999999999984  0.84397  1.0000
  Zn  Zn42      1.0  0.47476  0.84384  0.02451  1.0000
  Zn  Zn43      1.0  0.024589999999999935  0.65686  0.47463  1.0000
  Zn  Zn44      1.0  0.84406  0.47466999999999976  0.65692  1.0000
  Zn  Zn45      1.0  0.8439900000000001  0.65682  0.02459  1.0000
  Zn  Zn46      1.0  0.024510000000000087  0.47475999999999996  0.84386  1.0000
  Zn  Zn47      1.0  0.4746200000000004  0.024600000000000014  0.65685  1.0000
  Zn  Zn48      1.0  0.6569199999999998  0.8440900000000002  0.47465999999999997  1.0000
  H   H1        1.0  0.9437000000000002  0.79093  0.57059  1.0000
  H   H2        1.0  0.8611  0.7864700000000001  0.63407  1.0000
  H   H3        1.0  0.009349999999999997  0.8827  0.37113  1.0000
  H   H4        1.0  0.021960000000000115  0.9253599999999997  0.28042  1.0000
  H   H5        1.0  0.11997000000000002  0.74121  0.4931  1.0000
  H   H6        1.0  0.18345999999999996  0.67567  0.53309  1.0000
  H   H7        1.0  0.12595000000000003  0.8145599999999998  0.39753  1.0000
  H   H8        1.0  0.20129000000000002  0.76146  0.34968  1.0000
  H   H9        1.0  0.7910700000000002  0.9439999999999997  0.69464  1.0000
  H   H10       1.0  0.78667  0.86137  0.71813  1.0000
  H   H11       1.0  0.8827199999999998  0.009039999999999982  0.73673  1.0000
  H   H12       1.0  0.9251300000000003  0.021769999999999994  0.77233  1.0000
  H   H13       1.0  0.74153  0.12037999999999999  0.64549  1.0000
  H   H14       1.0  0.6757799999999999  0.1836  0.60779  1.0000
  H   H15       1.0  0.8147599999999999  0.12586000000000003  0.66196  1.0000
  H   H16       1.0  0.76157  0.20119000000000004  0.68754  1.0000
  H   H17       1.0  0.69465  0.5702999999999999  0.79101  1.0000
  H   H18       1.0  0.71823  0.63383  0.78655  1.0000
  H   H19       1.0  0.7369000000000001  0.37103999999999987  0.88318  1.0000
  H   H20       1.0  0.7724999999999999  0.28029  0.92546  1.0000
  H   H21       1.0  0.6456900000000003  0.49285  0.74166  1.0000
  H   H22       1.0  0.60775  0.53291  0.67612  1.0000
  H   H23       1.0  0.66211  0.39755000000000007  0.8149799999999999  1.0000
  H   H24       1.0  0.6875700000000001  0.3500000000000001  0.7616599999999999  1.0000
  H   H25       1.0  0.5703500000000001  0.69477  0.94382  1.0000
  H   H26       1.0  0.6338700000000002  0.71834  0.8611599999999999  1.0000
  H   H27       1.0  0.37101999999999996  0.73706  0.00941  1.0000
  H   H28       1.0  0.2803599999999999  0.77257  0.02182  1.0000
  H   H29       1.0  0.49282  0.64568  0.12006  1.0000
  H   H30       1.0  0.53303  0.60787  0.18332  1.0000
  H   H31       1.0  0.39708  0.66214  0.12574  1.0000
  H   H32       1.0  0.34954999999999997  0.68751  0.20120999999999994  1.0000
  H   H33       1.0  0.69474  0.9438000000000001  0.57041  1.0000
  H   H34       1.0  0.71832  0.86116  0.63389  1.0000
  H   H35       1.0  0.73709  0.009410000000000014  0.371  1.0000
  H   H36       1.0  0.77259  0.021819999999999996  0.28035  1.0000
  H   H37       1.0  0.64566  0.11998  0.49284  1.0000
  H   H38       1.0  0.6078499999999999  0.18329  0.53305  1.0000
  H   H39       1.0  0.66212  0.12577  0.39708  1.0000
  H   H40       1.0  0.68749  0.20119999999999996  0.34957  1.0000
  H   H41       1.0  0.5703200000000002  0.79102  0.69462  1.0000
  H   H42       1.0  0.6338499999999998  0.7865500000000001  0.71821  1.0000
  H   H43       1.0  0.3710800000000002  0.88319  0.73685  1.0000
  H   H44       1.0  0.28030000000000005  0.92546  0.77249  1.0000
  H   H45       1.0  0.49281999999999987  0.74177  0.64566  1.0000
  H   H46       1.0  0.5329  0.67617  0.60774  1.0000
  H   H47       1.0  0.3975199999999999  0.81497  0.66213  1.0000
  H   H48       1.0  0.35000000000000003  0.7616699999999998  0.6875699999999999  1.0000
  H   H49       1.0  0.9439899999999999  0.6946100000000001  0.7911  1.0000
  H   H50       1.0  0.8613599999999998  0.71811  0.78669  1.0000
  H   H51       1.0  0.009010000000000127  0.73673  0.8827499999999999  1.0000
  H   H52       1.0  0.02175000000000005  0.77234  0.92515  1.0000
  H   H53       1.0  0.12030000000000009  0.6454799999999999  0.74163  1.0000
  H   H54       1.0  0.18355999999999997  0.60778  0.67583  1.0000
  H   H55       1.0  0.1258700000000001  0.66198  0.8147399999999999  1.0000
  H   H56       1.0  0.20118000000000008  0.6875399999999999  0.76157  1.0000
  H   H57       1.0  0.79089  0.57066  0.94368  1.0000
  H   H58       1.0  0.7864500000000001  0.6341  0.8611  1.0000
  H   H59       1.0  0.88267  0.37115  0.00938  1.0000
  H   H60       1.0  0.9253400000000002  0.28041999999999995  0.02198  1.0000
  H   H61       1.0  0.7412800000000002  0.49309  0.11991999999999998  1.0000
  H   H62       1.0  0.67569  0.53309  0.18344  1.0000
  H   H63       1.0  0.8145700000000001  0.39748999999999995  0.12599  1.0000
  H   H64       1.0  0.7614800000000002  0.3496799999999999  0.20128  1.0000
  H   H65       1.0  0.7910099999999999  0.69465  0.57032  1.0000
  H   H66       1.0  0.7865300000000001  0.71823  0.63386  1.0000
  H   H67       1.0  0.88314  0.73693  0.37108  1.0000
  H   H68       1.0  0.9254200000000001  0.7724999999999997  0.28032  1.0000
  H   H69       1.0  0.7417  0.64565  0.49287  1.0000
  H   H70       1.0  0.6761300000000003  0.60774  0.53293  1.0000
  H   H71       1.0  0.81502  0.66211  0.39747  1.0000
  H   H72       1.0  0.7616900000000001  0.68755  0.34997  1.0000
  H   H73       1.0  0.94381  0.5703499999999999  0.69475  1.0000
  H   H74       1.0  0.8611400000000002  0.63389  0.71834  1.0000
  H   H75       1.0  0.00936000000000007  0.37101999999999996  0.73711  1.0000
  H   H76       1.0  0.02181  0.28038  0.77258  1.0000
  H   H77       1.0  0.12000000000000002  0.49286  0.64565  1.0000
  H   H78       1.0  0.1832799999999999  0.5330600000000001  0.60785  1.0000
  H   H79       1.0  0.12577999999999995  0.39701999999999993  0.66213  1.0000
  H   H80       1.0  0.20122000000000012  0.3495399999999999  0.68748  1.0000
  H   H81       1.0  0.5706100000000001  0.9436700000000001  0.7909499999999999  1.0000
  H   H82       1.0  0.6341000000000002  0.86108  0.78647  1.0000
  H   H83       1.0  0.37118  0.009340000000000027  0.88266  1.0000
  H   H84       1.0  0.28045  0.021970000000000003  0.92533  1.0000
  H   H85       1.0  0.4930799999999999  0.11996999999999998  0.74125  1.0000
  H   H86       1.0  0.53309  0.18344000000000005  0.67569  1.0000
  H   H87       1.0  0.39745  0.12604  0.81459  1.0000
  H   H88       1.0  0.34965  0.20132  0.76148  1.0000
  H   H89       1.0  0.6946200000000001  0.79112  0.94397  1.0000
  H   H90       1.0  0.7181200000000002  0.78668  0.86134  1.0000
  H   H91       1.0  0.73676  0.88271  0.009  1.0000
  H   H92       1.0  0.7723400000000001  0.92512  0.02176  1.0000
  H   H93       1.0  0.6454800000000002  0.7415599999999998  0.12035  1.0000
  H   H94       1.0  0.60778  0.67581  0.18356  1.0000
  H   H95       1.0  0.6619300000000001  0.81477  0.12594  1.0000
  H   H96       1.0  0.68751  0.7616  0.20120999999999994  1.0000
  H   H97       1.0  0.056  0.20890000000000003  0.30539999999999995  1.0000
  H   H98       1.0  0.13863  0.21332  0.28189  1.0000
  H   H99       1.0  0.9909900000000001  0.11725999999999999  0.26328  1.0000
  H   H100      1.0  0.9782400000000001  0.07485999999999998  0.22766  1.0000
  H   H101      1.0  0.87969  0.25837000000000004  0.35453  1.0000
  H   H102      1.0  0.8164299999999999  0.32417  0.39223  1.0000
  H   H103      1.0  0.8741299999999999  0.18526  0.33802  1.0000
  H   H104      1.0  0.79881  0.23843  0.31247  1.0000
  H   H105      1.0  0.2091  0.056320000000000016  0.42935  1.0000
  H   H106      1.0  0.21353999999999998  0.1389  0.3659  1.0000
  H   H107      1.0  0.11733000000000018  0.99063  0.6288599999999999  1.0000
  H   H108      1.0  0.07464999999999987  0.97803  0.71958  1.0000
  H   H109      1.0  0.25870999999999994  0.88008  0.50691  1.0000
  H   H110      1.0  0.32430999999999993  0.81656  0.46691  1.0000
  H   H111      1.0  0.18542000000000006  0.87402  0.60251  1.0000
  H   H112      1.0  0.23852000000000004  0.79872  0.65032  1.0000
  H   H113      1.0  0.3052500000000001  0.4296  0.0562  1.0000
  H   H114      1.0  0.28167  0.36611  0.13885  1.0000
  H   H115      1.0  0.2629100000000002  0.6290099999999998  0.9905899999999999  1.0000
  H   H116      1.0  0.22741000000000014  0.7196599999999997  0.97818  1.0000
  H   H117      1.0  0.35433000000000003  0.50717  0.88002  1.0000
  H   H118      1.0  0.3921500000000001  0.46695  0.81672  1.0000
  H   H119      1.0  0.33786999999999995  0.6029300000000001  0.8742299999999997  1.0000
  H   H120      1.0  0.31251000000000007  0.65043  0.7988099999999999  1.0000
  H   H121      1.0  0.42967  0.30538  0.20898  1.0000
  H   H122      1.0  0.36615  0.28178999999999993  0.21345  1.0000
  H   H123      1.0  0.6289100000000002  0.26315000000000005  0.11681999999999998  1.0000
  H   H124      1.0  0.71969  0.22751  0.07454  1.0000
  H   H125      1.0  0.50717  0.3543399999999999  0.25823  1.0000
  H   H126      1.0  0.4671000000000002  0.39225999999999994  0.32384  1.0000
  H   H127      1.0  0.6024699999999998  0.33787  0.18503  1.0000
  H   H128      1.0  0.65  0.31244  0.23833999999999997  1.0000
  H   H129      1.0  0.30538  0.05603  0.20888  1.0000
  H   H130      1.0  0.28187  0.13867000000000002  0.21332  1.0000
  H   H131      1.0  0.26323999999999986  0.991  0.11729  1.0000
  H   H132      1.0  0.22766  0.97824  0.07488  1.0000
  H   H133      1.0  0.35452  0.87965  0.25844  1.0000
  H   H134      1.0  0.39220999999999995  0.81644  0.3241899999999999  1.0000
  H   H135      1.0  0.33806  0.87407  0.18522999999999998  1.0000
  H   H136      1.0  0.31249  0.79879  0.23841  1.0000
  H   H137      1.0  0.42939000000000016  0.20905  0.05633  1.0000
  H   H138      1.0  0.36589000000000005  0.21353999999999995  0.13893  1.0000
  H   H139      1.0  0.62881  0.11733999999999997  0.99066  1.0000
  H   H140      1.0  0.7195400000000001  0.07468000000000002  0.9780299999999998  1.0000
  H   H141      1.0  0.5069100000000002  0.25876000000000005  0.8800399999999999  1.0000
  H   H142      1.0  0.4669100000000001  0.32430999999999993  0.81656  1.0000
  H   H143      1.0  0.60254  0.18542000000000006  0.8739599999999998  1.0000
  H   H144      1.0  0.6503500000000002  0.23851999999999993  0.7986799999999998  1.0000
  H   H145      1.0  0.056179999999999966  0.30526000000000003  0.42965  1.0000
  H   H146      1.0  0.13885  0.28167  0.36612  1.0000
  H   H147      1.0  0.9906299999999997  0.2628900000000001  0.62898  1.0000
  H   H148      1.0  0.9781800000000002  0.22742000000000004  0.7196199999999999  1.0000
  H   H149      1.0  0.87999  0.35436  0.50715  1.0000
  H   H150      1.0  0.81671  0.39215  0.46694  1.0000
  H   H151      1.0  0.87421  0.33787  0.60298  1.0000
  H   H152      1.0  0.79877  0.31251999999999996  0.65046  1.0000
  H   H153      1.0  0.20899000000000004  0.42969  0.30535999999999996  1.0000
  H   H154      1.0  0.21346000000000007  0.36614  0.28177  1.0000
  H   H155      1.0  0.11685000000000016  0.6289199999999999  0.26308  1.0000
  H   H156      1.0  0.07456999999999993  0.71968  0.2275  1.0000
  H   H157      1.0  0.25828999999999996  0.5071400000000003  0.35435  1.0000
  H   H158      1.0  0.32387  0.46707  0.39226  1.0000
  H   H159      1.0  0.18498  0.60254  0.33788999999999997  1.0000
  H   H160      1.0  0.23829999999999998  0.65003  0.31245  1.0000
  H   H161      1.0  0.20892999999999998  0.30536  0.05600999999999999  1.0000
  H   H162      1.0  0.21333  0.28187  0.13864  1.0000
  H   H163      1.0  0.11728000000000006  0.26328  0.99097  1.0000
  H   H164      1.0  0.07486000000000005  0.22768  0.97823  1.0000
  H   H165      1.0  0.2584699999999999  0.35451  0.87963  1.0000
  H   H166      1.0  0.32421999999999995  0.39221000000000006  0.81641  1.0000
  H   H167      1.0  0.18524000000000004  0.3380399999999999  0.87414  1.0000
  H   H168      1.0  0.23842  0.31246000000000007  0.7988099999999999  1.0000
  H   H169      1.0  0.05628999999999993  0.42941  0.20908  1.0000
  H   H170      1.0  0.13889000000000007  0.36592999999999987  0.21353  1.0000
  H   H171      1.0  0.9906500000000003  0.6288699999999998  0.1173  1.0000
  H   H172      1.0  0.97803  0.71958  0.07465  1.0000
  H   H173      1.0  0.8800300000000003  0.50691  0.2588  1.0000
  H   H174      1.0  0.8165300000000001  0.46692  0.32433  1.0000
  H   H175      1.0  0.8740500000000001  0.6024699999999998  0.18544  1.0000
  H   H176      1.0  0.7987099999999999  0.65033  0.23855  1.0000
  H   H177      1.0  0.4296400000000002  0.05618999999999998  0.30523  1.0000
  H   H178      1.0  0.36613000000000023  0.13883999999999996  0.28166  1.0000
  H   H179      1.0  0.62898  0.99059  0.26294  1.0000
  H   H180      1.0  0.7196300000000001  0.97818  0.22743  1.0000
  H   H181      1.0  0.50718  0.8799499999999999  0.35432  1.0000
  H   H182      1.0  0.4669700000000001  0.81668  0.3921299999999999  1.0000
  H   H183      1.0  0.60291  0.87426  0.33786  1.0000
  H   H184      1.0  0.65044  0.79879  0.31249  1.0000
  H   H185      1.0  0.30534999999999995  0.209  0.4297  1.0000
  H   H186      1.0  0.2817699999999999  0.21346000000000004  0.36617  1.0000
  H   H187      1.0  0.26309000000000005  0.11682000000000001  0.62896  1.0000
  H   H188      1.0  0.22749999999999995  0.07454999999999998  0.71971  1.0000
  H   H189      1.0  0.3543  0.25835000000000014  0.50715  1.0000
  H   H190      1.0  0.3922399999999999  0.32389  0.46709  1.0000
  H   H191      1.0  0.33788999999999997  0.18502  0.60246  1.0000
  H   H192      1.0  0.31243000000000004  0.23834999999999998  0.65001  1.0000
  H   H193      1.0  0.056290000000000034  0.20907999999999996  0.42941  1.0000
  H   H194      1.0  0.13888999999999993  0.21353  0.36593  1.0000
  H   H195      1.0  0.9906499999999998  0.11731000000000001  0.62887  1.0000
  H   H196      1.0  0.97803  0.07464999999999998  0.71958  1.0000
  H   H197      1.0  0.8800300000000004  0.25879999999999986  0.50691  1.0000
  H   H198      1.0  0.8165300000000001  0.32434  0.46691999999999995  1.0000
  H   H199      1.0  0.87404  0.18544000000000002  0.60247  1.0000
  H   H200      1.0  0.7987000000000001  0.23855  0.65033  1.0000
  H   H201      1.0  0.20893000000000003  0.05601000000000002  0.30535999999999996  1.0000
  H   H202      1.0  0.21333  0.13864  0.28187  1.0000
  H   H203      1.0  0.11728000000000004  0.99097  0.26327  1.0000
  H   H204      1.0  0.07486999999999995  0.97824  0.22767  1.0000
  H   H205      1.0  0.25847000000000003  0.87963  0.35451  1.0000
  H   H206      1.0  0.3242200000000001  0.8164099999999999  0.39221  1.0000
  H   H207      1.0  0.18524  0.87414  0.33804  1.0000
  H   H208      1.0  0.23842  0.79882  0.31246  1.0000
  H   H209      1.0  0.30535000000000007  0.42971  0.20898999999999998  1.0000
  H   H210      1.0  0.28177000000000024  0.36616999999999994  0.21345  1.0000
  H   H211      1.0  0.26308999999999994  0.62896  0.11681999999999998  1.0000
  H   H212      1.0  0.22750000000000004  0.71971  0.07454  1.0000
  H   H213      1.0  0.35430000000000017  0.5071499999999998  0.25834  1.0000
  H   H214      1.0  0.39224  0.46709  0.32388  1.0000
  H   H215      1.0  0.3378900000000001  0.60246  0.18502  1.0000
  H   H216      1.0  0.31243  0.65001  0.23833999999999997  1.0000
  H   H217      1.0  0.4296400000000002  0.30523  0.05619  1.0000
  H   H218      1.0  0.36613000000000007  0.28166  0.13884  1.0000
  H   H219      1.0  0.6289800000000001  0.2629400000000001  0.9905899999999999  1.0000
  H   H220      1.0  0.7196299999999999  0.22743  0.97818  1.0000
  H   H221      1.0  0.50718  0.35431999999999997  0.87995  1.0000
  H   H222      1.0  0.4669700000000001  0.3921399999999998  0.81668  1.0000
  H   H223      1.0  0.60291  0.33786  0.87426  1.0000
  H   H224      1.0  0.6504399999999999  0.31249000000000005  0.79879  1.0000
  H   H225      1.0  0.30525  0.056200000000000014  0.4296  1.0000
  H   H226      1.0  0.28167  0.13885  0.36611  1.0000
  H   H227      1.0  0.26291  0.99059  0.629  1.0000
  H   H228      1.0  0.22741000000000003  0.97818  0.7196499999999999  1.0000
  H   H229      1.0  0.3543299999999998  0.8800300000000001  0.50716  1.0000
  H   H230      1.0  0.3921499999999999  0.81672  0.46695  1.0000
  H   H231      1.0  0.3378699999999999  0.8742300000000001  0.60293  1.0000
  H   H232      1.0  0.3125100000000001  0.7988099999999998  0.65043  1.0000
  H   H233      1.0  0.42967  0.20899  0.30538  1.0000
  H   H234      1.0  0.36615000000000003  0.21345  0.28179  1.0000
  H   H235      1.0  0.6289100000000002  0.11681999999999998  0.26315  1.0000
  H   H236      1.0  0.71969  0.07454000000000001  0.22751  1.0000
  H   H237      1.0  0.50717  0.25824  0.35434  1.0000
  H   H238      1.0  0.4671000000000001  0.32384  0.39226  1.0000
  H   H239      1.0  0.6024699999999998  0.18503000000000003  0.33787  1.0000
  H   H240      1.0  0.6500000000000001  0.23834000000000002  0.31243  1.0000
  H   H241      1.0  0.05600000000000004  0.30539999999999995  0.2089  1.0000
  H   H242      1.0  0.13863  0.28189  0.21331  1.0000
  H   H243      1.0  0.9909900000000001  0.26328  0.11726  1.0000
  H   H244      1.0  0.9782400000000001  0.22766  0.07485999999999998  1.0000
  H   H245      1.0  0.87969  0.3545299999999999  0.25837  1.0000
  H   H246      1.0  0.8164300000000001  0.39223  0.32417  1.0000
  H   H247      1.0  0.87413  0.33801999999999993  0.18526  1.0000
  H   H248      1.0  0.79881  0.31247  0.23843  1.0000
  H   H249      1.0  0.20909999999999998  0.42935  0.05632  1.0000
  H   H250      1.0  0.21355  0.3659  0.1389  1.0000
  H   H251      1.0  0.11731999999999995  0.62886  0.99063  1.0000
  H   H252      1.0  0.07464999999999997  0.7195900000000001  0.97802  1.0000
  H   H253      1.0  0.2587099999999999  0.50692  0.88008  1.0000
  H   H254      1.0  0.32431  0.46691  0.81656  1.0000
  H   H255      1.0  0.18542000000000022  0.6025099999999995  0.87401  1.0000
  H   H256      1.0  0.23852000000000004  0.65032  0.79872  1.0000
  H   H257      1.0  0.20898999999999998  0.30536  0.42968  1.0000
  H   H258      1.0  0.21345999999999996  0.28177000000000013  0.36614  1.0000
  H   H259      1.0  0.11685000000000013  0.26307999999999987  0.62892  1.0000
  H   H260      1.0  0.07457000000000004  0.2275  0.71968  1.0000
  H   H261      1.0  0.25829  0.35435  0.50713  1.0000
  H   H262      1.0  0.32387000000000005  0.39225999999999994  0.46707  1.0000
  H   H263      1.0  0.18498000000000012  0.3378999999999999  0.60253  1.0000
  H   H264      1.0  0.23830000000000007  0.31246  0.65003  1.0000
  H   H265      1.0  0.056179999999999994  0.42965  0.30526  1.0000
  H   H266      1.0  0.13885000000000006  0.3661199999999999  0.28166  1.0000
  H   H267      1.0  0.9906300000000001  0.62898  0.26289  1.0000
  H   H268      1.0  0.9781800000000002  0.71962  0.22742  1.0000
  H   H269      1.0  0.8799899999999999  0.50715  0.35435  1.0000
  H   H270      1.0  0.81671  0.46693999999999986  0.39215  1.0000
  H   H271      1.0  0.87421  0.60298  0.33787  1.0000
  H   H272      1.0  0.79877  0.65047  0.31252  1.0000
  H   H273      1.0  0.42939  0.056330000000000005  0.20905  1.0000
  H   H274      1.0  0.36589  0.13893  0.21354  1.0000
  H   H275      1.0  0.62881  0.99067  0.11734  1.0000
  H   H276      1.0  0.7195499999999999  0.97803  0.07467  1.0000
  H   H277      1.0  0.5069100000000003  0.8800399999999998  0.25875  1.0000
  H   H278      1.0  0.46691000000000005  0.81657  0.32431  1.0000
  H   H279      1.0  0.60254  0.87396  0.18542  1.0000
  H   H280      1.0  0.65035  0.79868  0.23852  1.0000
  H   H281      1.0  0.30538  0.20887999999999995  0.05603  1.0000
  H   H282      1.0  0.28187  0.21332  0.13867  1.0000
  H   H283      1.0  0.26324  0.11728999999999998  0.991  1.0000
  H   H284      1.0  0.22766  0.07489000000000008  0.9782399999999999  1.0000
  H   H285      1.0  0.35451999999999995  0.25844000000000006  0.87965  1.0000
  H   H286      1.0  0.39221  0.32419000000000003  0.8164399999999999  1.0000
  H   H287      1.0  0.33806  0.18523000000000003  0.87407  1.0000
  H   H288      1.0  0.31249000000000005  0.23841000000000004  0.79879  1.0000
  H   H289      1.0  0.9439899999999999  0.79111  0.6946  1.0000
  H   H290      1.0  0.8613599999999999  0.7866900000000001  0.7181099999999999  1.0000
  H   H291      1.0  0.009010000000000074  0.88275  0.73672  1.0000
  H   H292      1.0  0.02175  0.9251500000000001  0.77234  1.0000
  H   H293      1.0  0.12029999999999999  0.74163  0.64547  1.0000
  H   H294      1.0  0.18356000000000003  0.67584  0.60778  1.0000
  H   H295      1.0  0.12586999999999998  0.8147400000000001  0.66198  1.0000
  H   H296      1.0  0.20118000000000008  0.7615799999999999  0.68753  1.0000
  H   H297      1.0  0.7908900000000001  0.94368  0.57065  1.0000
  H   H298      1.0  0.7864500000000001  0.86111  0.6341  1.0000
  H   H299      1.0  0.8826699999999998  0.009379999999999998  0.37114  1.0000
  H   H300      1.0  0.9253399999999999  0.021980000000000003  0.28042  1.0000
  H   H301      1.0  0.7412800000000002  0.11992  0.49309  1.0000
  H   H302      1.0  0.67569  0.18343999999999996  0.53309  1.0000
  H   H303      1.0  0.8145700000000001  0.12599  0.39749  1.0000
  H   H304      1.0  0.76147  0.20128000000000001  0.34968  1.0000
  H   H305      1.0  0.6947400000000002  0.57041  0.9437999999999999  1.0000
  H   H306      1.0  0.7183200000000001  0.63389  0.8611599999999999  1.0000
  H   H307      1.0  0.73709  0.371  0.00941  1.0000
  H   H308      1.0  0.77259  0.28035  0.02182  1.0000
  H   H309      1.0  0.64566  0.49284000000000006  0.11997999999999998  1.0000
  H   H310      1.0  0.60785  0.53305  0.18329  1.0000
  H   H311      1.0  0.66212  0.39708  0.12577  1.0000
  H   H312      1.0  0.68749  0.34957  0.20119  1.0000
  H   H313      1.0  0.57032  0.69462  0.79102  1.0000
  H   H314      1.0  0.63385  0.71821  0.78655  1.0000
  H   H315      1.0  0.3710800000000001  0.73686  0.88318  1.0000
  H   H316      1.0  0.28030000000000005  0.77249  0.92546  1.0000
  H   H317      1.0  0.4928200000000001  0.64567  0.7417699999999999  1.0000
  H   H318      1.0  0.5329000000000002  0.60774  0.67616  1.0000
  H   H319      1.0  0.3975200000000003  0.6621299999999999  0.81497  1.0000
  H   H320      1.0  0.35  0.6875700000000001  0.7616599999999999  1.0000
  H   H321      1.0  0.6946199999999999  0.9439700000000001  0.79112  1.0000
  H   H322      1.0  0.7181200000000001  0.8613399999999999  0.78668  1.0000
  H   H323      1.0  0.7367599999999999  0.009000000000000043  0.88271  1.0000
  H   H324      1.0  0.77234  0.02176000000000001  0.92512  1.0000
  H   H325      1.0  0.6454800000000003  0.1203500000000001  0.7415599999999998  1.0000
  H   H326      1.0  0.60778  0.18356000000000003  0.67581  1.0000
  H   H327      1.0  0.66193  0.12594000000000002  0.8147699999999999  1.0000
  H   H328      1.0  0.6875  0.20121999999999998  0.7616  1.0000
  H   H329      1.0  0.5706100000000002  0.7909500000000002  0.94367  1.0000
  H   H330      1.0  0.6341  0.7864700000000001  0.86107  1.0000
  H   H331      1.0  0.37119  0.88266  0.00934  1.0000
  H   H332      1.0  0.2804499999999999  0.92533  0.02197  1.0000
  H   H333      1.0  0.49308  0.74125  0.11995999999999998  1.0000
  H   H334      1.0  0.53309  0.67569  0.18344  1.0000
  H   H335      1.0  0.39745  0.81459  0.12604  1.0000
  H   H336      1.0  0.34965  0.76149  0.20132  1.0000
  H   H337      1.0  0.9438099999999999  0.69475  0.57035  1.0000
  H   H338      1.0  0.8611400000000002  0.71834  0.6338799999999999  1.0000
  H   H339      1.0  0.009359999999999962  0.73711  0.37102  1.0000
  H   H340      1.0  0.02181000000000005  0.77258  0.28038  1.0000
  H   H341      1.0  0.12000000000000002  0.64565  0.49286  1.0000
  H   H342      1.0  0.18328000000000005  0.60785  0.53306  1.0000
  H   H343      1.0  0.1257900000000001  0.6621299999999999  0.39702  1.0000
  H   H344      1.0  0.20122  0.68748  0.34954  1.0000
  H   H345      1.0  0.7910099999999999  0.57032  0.69464  1.0000
  H   H346      1.0  0.78653  0.63386  0.71823  1.0000
  H   H347      1.0  0.8831399999999999  0.3710800000000001  0.73692  1.0000
  H   H348      1.0  0.9254199999999999  0.28033  0.7725  1.0000
  H   H349      1.0  0.7417000000000001  0.49287000000000003  0.64565  1.0000
  H   H350      1.0  0.6761300000000003  0.5329299999999998  0.60774  1.0000
  H   H351      1.0  0.81502  0.39747000000000005  0.66211  1.0000
  H   H352      1.0  0.76169  0.34996999999999995  0.68755  1.0000
  H   H353      1.0  0.7910699999999999  0.69465  0.94399  1.0000
  H   H354      1.0  0.78667  0.7181299999999999  0.86137  1.0000
  H   H355      1.0  0.88272  0.73673  0.00904  1.0000
  H   H356      1.0  0.9251300000000001  0.77233  0.02177  1.0000
  H   H357      1.0  0.7415299999999999  0.64549  0.12037  1.0000
  H   H358      1.0  0.67578  0.60779  0.18358999999999998  1.0000
  H   H359      1.0  0.81476  0.66196  0.12586  1.0000
  H   H360      1.0  0.7615700000000001  0.6875399999999999  0.20119  1.0000
  H   H361      1.0  0.9437000000000002  0.57059  0.79092  1.0000
  H   H362      1.0  0.8611  0.63407  0.78647  1.0000
  H   H363      1.0  0.009350000000000051  0.37113999999999997  0.8827  1.0000
  H   H364      1.0  0.02196000000000003  0.28043  0.92536  1.0000
  H   H365      1.0  0.11997000000000002  0.49310000000000004  0.7412099999999999  1.0000
  H   H366      1.0  0.18346  0.53309  0.67567  1.0000
  H   H367      1.0  0.12595000000000003  0.39753000000000005  0.8145599999999998  1.0000
  H   H368      1.0  0.20129000000000014  0.3496799999999998  0.7614499999999998  1.0000
  H   H369      1.0  0.57035  0.9438199999999999  0.6947699999999999  1.0000
  H   H370      1.0  0.6338699999999999  0.86116  0.71834  1.0000
  H   H371      1.0  0.37101999999999996  0.009410000000000014  0.73706  1.0000
  H   H372      1.0  0.28036  0.021830000000000026  0.77257  1.0000
  H   H373      1.0  0.49282  0.12006  0.64568  1.0000
  H   H374      1.0  0.5330300000000004  0.18331999999999996  0.60787  1.0000
  H   H375      1.0  0.3970800000000001  0.12574  0.66214  1.0000
  H   H376      1.0  0.3495500000000001  0.20121  0.68751  1.0000
  H   H377      1.0  0.69465  0.79101  0.5703  1.0000
  H   H378      1.0  0.7182300000000003  0.7865499999999997  0.63383  1.0000
  H   H379      1.0  0.7369  0.88318  0.37104  1.0000
  H   H380      1.0  0.7725000000000001  0.9254599999999998  0.28029  1.0000
  H   H381      1.0  0.64569  0.7416599999999999  0.49284999999999995  1.0000
  H   H382      1.0  0.60775  0.67612  0.53291  1.0000
  H   H383      1.0  0.6621100000000001  0.81498  0.39755  1.0000
  H   H384      1.0  0.6875699999999999  0.76166  0.34999  1.0000
  H   H385      1.0  0.9548700000000001  0.95483  0.43835999999999997  1.0000
  H   H386      1.0  0.95505  0.9550900000000001  0.65185  1.0000
  H   H387      1.0  0.6518399999999999  0.4380799999999999  0.9551  1.0000
  H   H388      1.0  0.43803999999999993  0.65184  0.95515  1.0000
  H   H389      1.0  0.65184  0.9551  0.43807  1.0000
  H   H390      1.0  0.43804000000000004  0.9551499999999999  0.65184  1.0000
  H   H391      1.0  0.9550500000000001  0.6518499999999999  0.95508  1.0000
  H   H392      1.0  0.9548700000000001  0.4383699999999999  0.95483  1.0000
  H   H393      1.0  0.9551499999999999  0.65183  0.438  1.0000
  H   H394      1.0  0.9551500000000002  0.43801000000000007  0.6518299999999999  1.0000
  H   H395      1.0  0.43829000000000007  0.95491  0.9548999999999999  1.0000
  H   H396      1.0  0.6518300000000001  0.9551099999999999  0.9551  1.0000
  H   H397      1.0  0.04494  0.04492  0.34815  1.0000
  H   H398      1.0  0.045129999999999976  0.045170000000000016  0.56164  1.0000
  H   H399      1.0  0.34815000000000007  0.5619299999999999  0.044899999999999995  1.0000
  H   H400      1.0  0.56195  0.34816  0.04486  1.0000
  H   H401      1.0  0.34816  0.0449  0.044899999999999995  1.0000
  H   H402      1.0  0.56171  0.045099999999999994  0.0451  1.0000
  H   H403      1.0  0.044840000000000005  0.34817000000000004  0.562  1.0000
  H   H404      1.0  0.04484000000000003  0.562  0.34817  1.0000
  H   H405      1.0  0.04494  0.34815  0.044919999999999995  1.0000
  H   H406      1.0  0.045129999999999976  0.56164  0.04517  1.0000
  H   H407      1.0  0.56195  0.044860000000000004  0.34816  1.0000
  H   H408      1.0  0.34815  0.04489999999999999  0.56193  1.0000
  H   H409      1.0  0.0996499999999999  0.90026  0.44382  1.0000
  H   H410      1.0  0.9003500000000001  0.09974999999999998  0.55618  1.0000
  H   H411      1.0  0.55649  0.44354000000000005  0.90044  1.0000
  H   H412      1.0  0.44351000000000007  0.55647  0.09956  1.0000
  H   H413      1.0  0.55641  0.09957  0.44355  1.0000
  H   H414      1.0  0.44358000000000003  0.90044  0.55646  1.0000
  H   H415      1.0  0.09973999999999997  0.55615  0.90035  1.0000
  H   H416      1.0  0.9002599999999998  0.44386  0.09965  1.0000
  H   H417      1.0  0.90046  0.55654  0.44351  1.0000
  H   H418      1.0  0.09953999999999992  0.44347  0.55649  1.0000
  H   H419      1.0  0.44383  0.09963999999999999  0.90026  1.0000
  H   H420      1.0  0.5561700000000002  0.90037  0.09974  1.0000
  H   H421      1.0  0.9002499999999999  0.09965000000000002  0.44386  1.0000
  H   H422      1.0  0.09974000000000012  0.90036  0.55615  1.0000
  H   H423      1.0  0.44357999999999986  0.55646  0.90044  1.0000
  H   H424      1.0  0.55641  0.44355  0.09956  1.0000
  H   H425      1.0  0.44382999999999995  0.90026  0.09963  1.0000
  H   H426      1.0  0.55617  0.09973999999999997  0.90037  1.0000
  H   H427      1.0  0.90046  0.44352  0.55654  1.0000
  H   H428      1.0  0.09954000000000003  0.55649  0.44346  1.0000
  H   H429      1.0  0.09965000000000002  0.44382000000000005  0.90026  1.0000
  H   H430      1.0  0.9003500000000001  0.55618  0.09975  1.0000
  H   H431      1.0  0.5564899999999999  0.90045  0.44353999999999993  1.0000
  H   H432      1.0  0.44351000000000007  0.09956  0.55647  1.0000
  H   H433      1.0  0.9923500000000001  0.8773  0.56527  1.0000
  H   H434      1.0  0.8772900000000002  0.9923599999999999  0.56522  1.0000
  H   H435      1.0  0.5653799999999998  0.5654399999999999  0.87735  1.0000
  H   H436      1.0  0.56524  0.56522  0.99222  1.0000
  H   H437      1.0  0.5652400000000001  0.99222  0.56522  1.0000
  H   H438      1.0  0.5653799999999999  0.87735  0.56544  1.0000
  H   H439      1.0  0.9923499999999998  0.56528  0.8773  1.0000
  H   H440      1.0  0.8772900000000002  0.56522  0.99236  1.0000
  H   H441      1.0  0.87735  0.56541  0.5654  1.0000
  H   H442      1.0  0.9922200000000001  0.5652299999999999  0.56523  1.0000
  H   H443      1.0  0.5652299999999999  0.9924300000000001  0.87725  1.0000
  H   H444      1.0  0.5652300000000001  0.8772499999999999  0.99243  1.0000
  H   H445      1.0  0.007650000000000011  0.12270999999999999  0.43473  1.0000
  H   H446      1.0  0.12270000000000003  0.007639999999999979  0.43478  1.0000
  H   H447      1.0  0.4347500000000001  0.43479  0.00778  1.0000
  H   H448      1.0  0.43461000000000016  0.43456  0.12265  1.0000
  H   H449      1.0  0.43477  0.0075699999999999995  0.12275  1.0000
  H   H450      1.0  0.43476  0.12275  0.00757  1.0000
  H   H451      1.0  0.007769999999999949  0.43478000000000006  0.43477  1.0000
  H   H452      1.0  0.12265  0.4346  0.4346  1.0000
  H   H453      1.0  0.12270000000000003  0.43479  0.007639999999999999  1.0000
  H   H454      1.0  0.007649999999999971  0.43473  0.12271  1.0000
  H   H455      1.0  0.43475  0.007779999999999986  0.43478  1.0000
  H   H456      1.0  0.43461000000000005  0.12264999999999998  0.43456  1.0000
  H   H457      1.0  0.9747200000000001  0.76235  0.50054  1.0000
  H   H458      1.0  0.7623600000000003  0.9747800000000001  0.7622999999999998  1.0000
  H   H459      1.0  0.7626400000000001  0.5004699999999997  0.76269  1.0000
  H   H460      1.0  0.5005299999999998  0.7622900000000002  0.97476  1.0000
  H   H461      1.0  0.7623000000000002  0.9747899999999999  0.50053  1.0000
  H   H462      1.0  0.50048  0.76266  0.76266  1.0000
  H   H463      1.0  0.97474  0.76234  0.76234  1.0000
  H   H464      1.0  0.7623000000000002  0.5005299999999999  0.97479  1.0000
  H   H465      1.0  0.76264  0.7627  0.50047  1.0000
  H   H466      1.0  0.9747200000000001  0.50055  0.76234  1.0000
  H   H467      1.0  0.50053  0.97476  0.76229  1.0000
  H   H468      1.0  0.7623600000000004  0.76231  0.97478  1.0000
  H   H469      1.0  0.02524999999999999  0.23766000000000004  0.23766  1.0000
  H   H470      1.0  0.23770000000000002  0.025209999999999996  0.49947  1.0000
  H   H471      1.0  0.23770000000000002  0.49947  0.02521  1.0000
  H   H472      1.0  0.49951  0.23734000000000002  0.23734  1.0000
  H   H473      1.0  0.23763  0.025219999999999996  0.2377  1.0000
  H   H474      1.0  0.49945999999999996  0.23772  0.025239999999999995  1.0000
  H   H475      1.0  0.025280000000000018  0.23765999999999998  0.49946  1.0000
  H   H476      1.0  0.23736  0.49953  0.23731  1.0000
  H   H477      1.0  0.23763  0.2377  0.02522  1.0000
  H   H478      1.0  0.025279999999999966  0.49946  0.23766  1.0000
  H   H479      1.0  0.49945999999999996  0.025249999999999998  0.23772  1.0000
  H   H480      1.0  0.23735000000000006  0.23731  0.4995299999999999  1.0000
  C   C1        1.0  0.9127299999999999  0.8697  0.53327  1.0000
  C   C2        1.0  0.91051  0.8235999999999999  0.56967  1.0000
  C   C3        1.0  0.8642999999999998  0.8216  0.60522  1.0000
  C   C4        1.0  0.05680999999999999  0.91284  0.36765  1.0000
  C   C5        1.0  0.03243000000000007  0.90623  0.34788  1.0000
  C   C6        1.0  0.03970000000000001  0.93024  0.29724  1.0000
  C   C7        1.0  0.08464000000000006  0.77895  0.54675  1.0000
  C   C8        1.0  0.11993000000000001  0.74159  0.52584  1.0000
  C   C9        1.0  0.15528999999999996  0.70501  0.54855  1.0000
  C   C10       1.0  0.0836  0.76738  0.42445999999999995  1.0000
  C   C11       1.0  0.12577000000000002  0.78188  0.39727999999999997  1.0000
  C   C12       1.0  0.16755000000000003  0.75206  0.37075  1.0000
  C   C13       1.0  0.8698800000000001  0.91295  0.68419  1.0000
  C   C14       1.0  0.8237500000000003  0.9107699999999999  0.6960699999999999  1.0000
  C   C15       1.0  0.8218000000000001  0.86455  0.70869  1.0000
  C   C16       1.0  0.9128000000000001  0.05673999999999994  0.66267  1.0000
  C   C17       1.0  0.9061499999999999  0.03224  0.71344  1.0000
  C   C18       1.0  0.93006  0.03951  0.73291  1.0000
  C   C19       1.0  0.7790100000000001  0.08472999999999997  0.5897  1.0000
  C   C20       1.0  0.7417599999999999  0.12013000000000006  0.6125799999999999  1.0000
  C   C21       1.0  0.70508  0.15538000000000002  0.5912  1.0000
  C   C22       1.0  0.76741  0.08360999999999999  0.72448  1.0000
  C   C23       1.0  0.782  0.12571  0.69501  1.0000
  C   C24       1.0  0.7521400000000001  0.16749  0.70957  1.0000
  C   C25       1.0  0.6842300000000001  0.5330099999999999  0.86985  1.0000
  C   C26       1.0  0.6961100000000001  0.5693999999999999  0.8236899999999999  1.0000
  C   C27       1.0  0.70878  0.60497  0.82168  1.0000
  C   C28       1.0  0.66288  0.3674799999999999  0.91303  1.0000
  C   C29       1.0  0.7136099999999999  0.34773999999999994  0.9065  1.0000
  C   C30       1.0  0.7330700000000004  0.29708999999999997  0.93037  1.0000
  C   C31       1.0  0.5898000000000001  0.54676  0.77917  1.0000
  C   C32       1.0  0.6126999999999999  0.5257300000000001  0.7419299999999999  1.0000
  C   C33       1.0  0.5912  0.54846  0.70537  1.0000
  C   C34       1.0  0.7247699999999999  0.42444  0.76771  1.0000
  C   C35       1.0  0.6952  0.3973400000000001  0.7822399999999998  1.0000
  C   C36       1.0  0.7097  0.37097  0.7523  1.0000
  C   C37       1.0  0.53304  0.68425  0.91286  1.0000
  C   C38       1.0  0.56946  0.6961899999999998  0.91061  1.0000
  C   C39       1.0  0.60501  0.70884  0.86436  1.0000
  C   C40       1.0  0.36751  0.66293  0.0567  1.0000
  C   C41       1.0  0.3477700000000001  0.71371  0.03237  1.0000
  C   C42       1.0  0.29715  0.73315  0.03953  1.0000
  C   C43       1.0  0.5467  0.58975  0.08454  1.0000
  C   C44       1.0  0.5257  0.6127  0.11987999999999999  1.0000
  C   C45       1.0  0.5485  0.5912599999999999  0.15513  1.0000
  C   C46       1.0  0.4243500000000001  0.7245299999999998  0.08357  1.0000
  C   C47       1.0  0.3970600000000001  0.6951  0.12566  1.0000
  C   C48       1.0  0.37066  0.70956  0.1675  1.0000
  C   C49       1.0  0.68426  0.91285  0.53306  1.0000
  C   C50       1.0  0.6961800000000001  0.91059  0.56949  1.0000
  C   C51       1.0  0.70883  0.86435  0.60503  1.0000
  C   C52       1.0  0.66292  0.0567  0.36753  1.0000
  C   C53       1.0  0.71372  0.03236999999999998  0.34777  1.0000
  C   C54       1.0  0.7331600000000003  0.03953  0.29715  1.0000
  C   C55       1.0  0.58973  0.08453  0.54672  1.0000
  C   C56       1.0  0.61268  0.11983999999999999  0.52572  1.0000
  C   C57       1.0  0.59124  0.15512  0.54852  1.0000
  C   C58       1.0  0.7245200000000002  0.08357000000000002  0.42435  1.0000
  C   C59       1.0  0.69508  0.12567  0.39706999999999987  1.0000
  C   C60       1.0  0.7095500000000001  0.16749  0.37067  1.0000
  C   C61       1.0  0.53299  0.8698699999999999  0.68423  1.0000
  C   C62       1.0  0.56941  0.8237  0.6961  1.0000
  C   C63       1.0  0.6049699999999998  0.8216900000000001  0.70877  1.0000
  C   C64       1.0  0.36749999999999977  0.9130300000000001  0.66285  1.0000
  C   C65       1.0  0.34775999999999996  0.9065099999999999  0.71359  1.0000
  C   C66       1.0  0.2971000000000001  0.93037  0.7330599999999999  1.0000
  C   C67       1.0  0.54677  0.77919  0.58979  1.0000
  C   C68       1.0  0.5257200000000001  0.74198  0.6126899999999998  1.0000
  C   C69       1.0  0.54844  0.7054  0.59119  1.0000
  C   C70       1.0  0.42444000000000015  0.76772  0.72477  1.0000
  C   C71       1.0  0.3973300000000001  0.78224  0.69521  1.0000
  C   C72       1.0  0.3709799999999999  0.7522999999999999  0.7097  1.0000
  C   C73       1.0  0.9129199999999998  0.6842  0.8699  1.0000
  C   C74       1.0  0.91076  0.69606  0.82378  1.0000
  C   C75       1.0  0.8645400000000002  0.7086799999999998  0.82182  1.0000
  C   C76       1.0  0.056730000000000065  0.6626700000000001  0.9128099999999999  1.0000
  C   C77       1.0  0.032220000000000006  0.71344  0.9061699999999999  1.0000
  C   C78       1.0  0.039490000000000004  0.73292  0.93008  1.0000
  C   C79       1.0  0.08470000000000012  0.5896999999999998  0.77904  1.0000
  C   C80       1.0  0.12008999999999997  0.61257  0.74181  1.0000
  C   C81       1.0  0.15535999999999997  0.59119  0.70512  1.0000
  C   C82       1.0  0.08358  0.72449  0.76743  1.0000
  C   C83       1.0  0.12570000000000006  0.69502  0.7819999999999999  1.0000
  C   C84       1.0  0.16746999999999998  0.70957  0.75214  1.0000
  C   C85       1.0  0.8696800000000001  0.53328  0.91272  1.0000
  C   C86       1.0  0.82358  0.5697  0.9104999999999999  1.0000
  C   C87       1.0  0.82159  0.60524  0.86429  1.0000
  C   C88       1.0  0.91284  0.36767  0.05680999999999999  1.0000
  C   C89       1.0  0.9062200000000001  0.34789  0.03244  1.0000
  C   C90       1.0  0.93023  0.29724  0.0397  1.0000
  C   C91       1.0  0.7789500000000001  0.54676  0.08463  1.0000
  C   C92       1.0  0.7416199999999998  0.52584  0.11990999999999999  1.0000
  C   C93       1.0  0.70502  0.54855  0.15528  1.0000
  C   C94       1.0  0.7673800000000001  0.42445  0.08362999999999997  1.0000
  C   C95       1.0  0.78189  0.39727  0.12579  1.0000
  C   C96       1.0  0.7520599999999998  0.37076  0.16755  1.0000
  C   C97       1.0  0.86986  0.68423  0.53299  1.0000
  C   C98       1.0  0.82369  0.69611  0.56941  1.0000
  C   C99       1.0  0.82167  0.70878  0.60498  1.0000
  C   C100      1.0  0.9130300000000001  0.6629  0.36748  1.0000
  C   C101      1.0  0.90648  0.71363  0.34776  1.0000
  C   C102      1.0  0.9303500000000001  0.73308  0.2971  1.0000
  C   C103      1.0  0.7791699999999997  0.58979  0.54677  1.0000
  C   C104      1.0  0.7419399999999999  0.6126800000000001  0.52574  1.0000
  C   C105      1.0  0.7053799999999999  0.59119  0.54846  1.0000
  C   C106      1.0  0.76773  0.72476  0.42443  1.0000
  C   C107      1.0  0.78227  0.6951900000000001  0.3973  1.0000
  C   C108      1.0  0.75232  0.70969  0.37095  1.0000
  C   C109      1.0  0.9128600000000001  0.5330299999999999  0.6842499999999999  1.0000
  C   C110      1.0  0.9106  0.56947  0.69618  1.0000
  C   C111      1.0  0.8643500000000001  0.60502  0.70883  1.0000
  C   C112      1.0  0.05668  0.36750000000000005  0.66295  1.0000
  C   C113      1.0  0.03234000000000001  0.3477799999999999  0.71374  1.0000
  C   C114      1.0  0.03951999999999998  0.29716  0.73316  1.0000
  C   C115      1.0  0.08453000000000008  0.54672  0.58973  1.0000
  C   C116      1.0  0.11983999999999995  0.52573  0.61267  1.0000
  C   C117      1.0  0.15510999999999994  0.54852  0.59125  1.0000
  C   C118      1.0  0.08354999999999997  0.42434999999999995  0.72452  1.0000
  C   C119      1.0  0.12567000000000011  0.3970399999999999  0.69508  1.0000
  C   C120      1.0  0.16750000000000007  0.37065  0.70954  1.0000
  C   C121      1.0  0.5332399999999999  0.91274  0.86972  1.0000
  C   C122      1.0  0.5696799999999999  0.91049  0.82361  1.0000
  C   C123      1.0  0.6052400000000001  0.8642899999999999  0.82159  1.0000
  C   C124      1.0  0.36767000000000005  0.05680999999999999  0.91283  1.0000
  C   C125      1.0  0.34791  0.03243000000000002  0.90621  1.0000
  C   C126      1.0  0.2972600000000001  0.0397  0.93022  1.0000
  C   C127      1.0  0.5467500000000001  0.08466999999999997  0.77893  1.0000
  C   C128      1.0  0.5258400000000001  0.11993999999999996  0.7416  1.0000
  C   C129      1.0  0.5485500000000001  0.15528000000000008  0.7050199999999999  1.0000
  C   C130      1.0  0.42444000000000004  0.08363999999999998  0.76739  1.0000
  C   C131      1.0  0.39725  0.12582  0.7819  1.0000
  C   C132      1.0  0.37073  0.16758  0.75207  1.0000
  C   C133      1.0  0.68418  0.86991  0.91294  1.0000
  C   C134      1.0  0.6960600000000001  0.8237899999999998  0.91075  1.0000
  C   C135      1.0  0.7086800000000002  0.82181  0.8645299999999999  1.0000
  C   C136      1.0  0.6626700000000001  0.91281  0.05672  1.0000
  C   C137      1.0  0.71346  0.90615  0.03221  1.0000
  C   C138      1.0  0.7329100000000003  0.93007  0.0395  1.0000
  C   C139      1.0  0.5896999999999999  0.77901  0.08474  1.0000
  C   C140      1.0  0.6125700000000001  0.74178  0.12012  1.0000
  C   C141      1.0  0.59119  0.70511  0.15537  1.0000
  C   C142      1.0  0.72446  0.76743  0.08362  1.0000
  C   C143      1.0  0.6949899999999999  0.78202  0.12574  1.0000
  C   C144      1.0  0.7095400000000001  0.7521599999999998  0.1675  1.0000
  C   C145      1.0  0.08707000000000002  0.13009999999999997  0.31581  1.0000
  C   C146      1.0  0.08924000000000003  0.17622000000000002  0.30393999999999993  1.0000
  C   C147      1.0  0.13546  0.17818  0.29132  1.0000
  C   C148      1.0  0.9432700000000003  0.08718999999999999  0.33734  1.0000
  C   C149      1.0  0.9677799999999999  0.09383000000000001  0.28656  1.0000
  C   C150      1.0  0.9605000000000001  0.06992999999999999  0.26709  1.0000
  C   C151      1.0  0.9152899999999999  0.22097000000000003  0.4103  1.0000
  C   C152      1.0  0.8799100000000001  0.25819000000000003  0.3874299999999999  1.0000
  C   C153      1.0  0.8446400000000001  0.29488  0.40881  1.0000
  C   C154      1.0  0.9164099999999998  0.23258  0.27551  1.0000
  C   C155      1.0  0.8742900000000003  0.2180099999999999  0.30498  1.0000
  C   C156      1.0  0.8325199999999999  0.24786  0.29044  1.0000
  C   C157      1.0  0.13031  0.08727999999999998  0.46673  1.0000
  C   C158      1.0  0.17642  0.08951000000000003  0.43029999999999996  1.0000
  C   C159      1.0  0.17841000000000004  0.13571  0.39476  1.0000
  C   C160      1.0  0.08715999999999996  0.94319  0.63233  1.0000
  C   C161      1.0  0.09378000000000006  0.9675599999999998  0.65211  1.0000
  C   C162      1.0  0.06977  0.9603000000000002  0.7027599999999999  1.0000
  C   C163      1.0  0.22103999999999996  0.91537  0.45324  1.0000
  C   C164      1.0  0.25838000000000005  0.8800899999999999  0.47416  1.0000
  C   C165      1.0  0.29497999999999996  0.84473  0.45145  1.0000
  C   C166      1.0  0.23262000000000008  0.91637  0.57555  1.0000
  C   C167      1.0  0.21811000000000033  0.8742199999999997  0.6027299999999999  1.0000
  C   C168      1.0  0.24793  0.8324499999999999  0.62924  1.0000
  C   C169      1.0  0.31574000000000013  0.4669399999999999  0.08716  1.0000
  C   C170      1.0  0.3038200000000001  0.4305099999999999  0.08941  1.0000
  C   C171      1.0  0.29117  0.39497  0.13565  1.0000
  C   C172      1.0  0.3370699999999999  0.63248  0.9433  1.0000
  C   C173      1.0  0.28627000000000014  0.65224  0.96764  1.0000
  C   C174      1.0  0.26684000000000013  0.70286  0.96047  1.0000
  C   C175      1.0  0.41027  0.4532900000000001  0.91548  1.0000
  C   C176      1.0  0.38732  0.4742799999999999  0.88016  1.0000
  C   C177      1.0  0.40875000000000006  0.4514899999999998  0.84489  1.0000
  C   C178      1.0  0.27547999999999984  0.57566  0.91643  1.0000
  C   C179      1.0  0.30491999999999997  0.60294  0.87434  1.0000
  C   C180      1.0  0.29044999999999993  0.6293300000000001  0.8325099999999999  1.0000
  C   C181      1.0  0.467  0.31577  0.13014  1.0000
  C   C182      1.0  0.43059  0.3039  0.17631  1.0000
  C   C183      1.0  0.3950300000000001  0.2912299999999999  0.17832  1.0000
  C   C184      1.0  0.6325  0.33715  0.08697  1.0000
  C   C185      1.0  0.65223  0.28641  0.09349  1.0000
  C   C186      1.0  0.7029  0.26694  0.06964  1.0000
  C   C187      1.0  0.45323  0.41021  0.22082  1.0000
  C   C188      1.0  0.47428000000000003  0.38732  0.25802  1.0000
  C   C189      1.0  0.45155  0.40881  0.2946  1.0000
  C   C190      1.0  0.57555  0.27523  0.23229  1.0000
  C   C191      1.0  0.6026700000000002  0.30479  0.21775999999999995  1.0000
  C   C192      1.0  0.62902  0.2903  0.24769999999999998  1.0000
  C   C193      1.0  0.31581  0.08706  0.13009  1.0000
  C   C194      1.0  0.30393  0.08925  0.17622  1.0000
  C   C195      1.0  0.29131000000000007  0.13547  0.17819  1.0000
  C   C196      1.0  0.33732  0.94328  0.0872  1.0000
  C   C197      1.0  0.28654  0.96779  0.09384999999999998  1.0000
  C   C198      1.0  0.26709  0.9605  0.06994  1.0000
  C   C199      1.0  0.4103  0.91526  0.22099  1.0000
  C   C200      1.0  0.38743000000000005  0.87988  0.25823  1.0000
  C   C201      1.0  0.40881000000000006  0.84464  0.2949  1.0000
  C   C202      1.0  0.27553  0.91639  0.23257  1.0000
  C   C203      1.0  0.30501  0.8742600000000001  0.21798  1.0000
  C   C204      1.0  0.29045  0.8325  0.24785  1.0000
  C   C205      1.0  0.46674999999999994  0.13029000000000002  0.08727  1.0000
  C   C206      1.0  0.4303200000000001  0.17638999999999996  0.08951  1.0000
  C   C207      1.0  0.39475999999999994  0.17841  0.13571  1.0000
  C   C208      1.0  0.6323300000000001  0.08717000000000003  0.9431899999999999  1.0000
  C   C209      1.0  0.65208  0.09380000000000004  0.96758  1.0000
  C   C210      1.0  0.7027399999999999  0.06977999999999995  0.96031  1.0000
  C   C211      1.0  0.45324  0.22106999999999996  0.91534  1.0000
  C   C212      1.0  0.4741599999999999  0.2583999999999999  0.88006  1.0000
  C   C213      1.0  0.4514500000000001  0.2949800000000001  0.8447199999999999  1.0000
  C   C214      1.0  0.57555  0.23261  0.91636  1.0000
  C   C215      1.0  0.60275  0.21810000000000002  0.87419  1.0000
  C   C216      1.0  0.6292600000000002  0.24793000000000004  0.8324299999999999  1.0000
  C   C217      1.0  0.08714000000000002  0.31575999999999993  0.46697  1.0000
  C   C218      1.0  0.08940000000000003  0.30382  0.43054  1.0000
  C   C219      1.0  0.13563999999999998  0.29117  0.39498  1.0000
  C   C220      1.0  0.94331  0.33705000000000007  0.6324999999999998  1.0000
  C   C221      1.0  0.9676500000000001  0.28626000000000007  0.6522299999999999  1.0000
  C   C222      1.0  0.9604700000000002  0.26685  0.70285  1.0000
  C   C223      1.0  0.9154700000000001  0.41027  0.45329  1.0000
  C   C224      1.0  0.8801500000000002  0.38733000000000006  0.47427  1.0000
  C   C225      1.0  0.8448900000000001  0.40874999999999995  0.45147999999999994  1.0000
  C   C226      1.0  0.9164400000000001  0.2754899999999999  0.57565  1.0000
  C   C227      1.0  0.87433  0.30491999999999997  0.60296  1.0000
  C   C228      1.0  0.8325  0.29046  0.62935  1.0000
  C   C229      1.0  0.13014000000000003  0.46702000000000005  0.31576999999999994  1.0000
  C   C230      1.0  0.17631000000000002  0.4306  0.30389  1.0000
  C   C231      1.0  0.17831999999999998  0.39503  0.29122  1.0000
  C   C232      1.0  0.08697000000000009  0.63253  0.3371  1.0000
  C   C233      1.0  0.09351  0.65224  0.28637  1.0000
  C   C234      1.0  0.0696500000000001  0.7029  0.26693  1.0000
  C   C235      1.0  0.22083000000000008  0.45322999999999997  0.41021  1.0000
  C   C236      1.0  0.25804999999999995  0.47425999999999996  0.38732  1.0000
  C   C237      1.0  0.29462000000000005  0.45153999999999994  0.40881  1.0000
  C   C238      1.0  0.23227  0.57557  0.27524  1.0000
  C   C239      1.0  0.21773000000000006  0.6027  0.30481  1.0000
  C   C240      1.0  0.2476799999999999  0.62905  0.29031  1.0000
  C   C241      1.0  0.13011  0.31581  0.08706  1.0000
  C   C242      1.0  0.17624000000000012  0.30392999999999987  0.08923  1.0000
  C   C243      1.0  0.17820000000000003  0.29131  0.13545  1.0000
  C   C244      1.0  0.08719000000000002  0.33733  0.94327  1.0000
  C   C245      1.0  0.09384  0.2865599999999999  0.96777  1.0000
  C   C246      1.0  0.06993000000000008  0.26710000000000006  0.9604999999999999  1.0000
  C   C247      1.0  0.22097999999999998  0.41030000000000005  0.91527  1.0000
  C   C248      1.0  0.25824  0.38743  0.87987  1.0000
  C   C249      1.0  0.29491000000000006  0.40881  0.84462  1.0000
  C   C250      1.0  0.23258  0.27552  0.9164  1.0000
  C   C251      1.0  0.21798999999999993  0.30499  0.87429  1.0000
  C   C252      1.0  0.24785999999999994  0.2904399999999999  0.83252  1.0000
  C   C253      1.0  0.08726999999999992  0.46673  0.13031  1.0000
  C   C254      1.0  0.08948999999999999  0.43033  0.17641  1.0000
  C   C255      1.0  0.1357  0.39478  0.1784  1.0000
  C   C256      1.0  0.94318  0.63235  0.08717  1.0000
  C   C257      1.0  0.9675600000000001  0.65212  0.09377999999999999  1.0000
  C   C258      1.0  0.9603000000000005  0.70276  0.06977  1.0000
  C   C259      1.0  0.91536  0.45325  0.22105  1.0000
  C   C260      1.0  0.8800600000000001  0.47415999999999997  0.25841  1.0000
  C   C261      1.0  0.84471  0.4514500000000001  0.29499  1.0000
  C   C262      1.0  0.91639  0.57554  0.23262999999999998  1.0000
  C   C263      1.0  0.87423  0.60272  0.21812  1.0000
  C   C264      1.0  0.83245  0.6292499999999999  0.24795  1.0000
  C   C265      1.0  0.46695000000000003  0.08713999999999998  0.31575  1.0000
  C   C266      1.0  0.43052999999999997  0.08939  0.30381  1.0000
  C   C267      1.0  0.39498000000000005  0.13564  0.29117  1.0000
  C   C268      1.0  0.6324900000000001  0.9433  0.33707  1.0000
  C   C269      1.0  0.65222  0.96763  0.28629  1.0000
  C   C270      1.0  0.7028400000000002  0.9604700000000002  0.26685  1.0000
  C   C271      1.0  0.4533  0.91546  0.41025  1.0000
  C   C272      1.0  0.47429000000000027  0.8801299999999997  0.38730999999999993  1.0000
  C   C273      1.0  0.4515  0.84487  0.40873999999999994  1.0000
  C   C274      1.0  0.57565  0.91644  0.27547  1.0000
  C   C275      1.0  0.60293  0.87435  0.30490999999999996  1.0000
  C   C276      1.0  0.6293399999999998  0.83251  0.29044  1.0000
  C   C277      1.0  0.31577000000000005  0.13014999999999996  0.46699  1.0000
  C   C278      1.0  0.30389  0.17631999999999995  0.4306  1.0000
  C   C279      1.0  0.2912200000000001  0.17832000000000003  0.39504  1.0000
  C   C280      1.0  0.33712  0.08698  0.63252  1.0000
  C   C281      1.0  0.2863800000000001  0.09349999999999999  0.65226  1.0000
  C   C282      1.0  0.26692000000000005  0.06964000000000004  0.7029199999999999  1.0000
  C   C283      1.0  0.41020000000000006  0.22083  0.45324  1.0000
  C   C284      1.0  0.38730000000000003  0.2580699999999999  0.47428  1.0000
  C   C285      1.0  0.40880000000000005  0.29463  0.45155  1.0000
  C   C286      1.0  0.27522  0.23229  0.57556  1.0000
  C   C287      1.0  0.30479000000000006  0.21776  0.60267  1.0000
  C   C288      1.0  0.29028999999999994  0.24770999999999999  0.62903  1.0000
  C   C289      1.0  0.08727000000000006  0.13030999999999998  0.46673  1.0000
  C   C290      1.0  0.08948999999999999  0.17641  0.43033  1.0000
  C   C291      1.0  0.1357000000000001  0.17841  0.39478  1.0000
  C   C292      1.0  0.94318  0.08716999999999997  0.63235  1.0000
  C   C293      1.0  0.96756  0.09378  0.6521199999999999  1.0000
  C   C294      1.0  0.9603000000000004  0.06977000000000003  0.7027599999999999  1.0000
  C   C295      1.0  0.9153499999999999  0.22106  0.45325  1.0000
  C   C296      1.0  0.88006  0.25841  0.47416  1.0000
  C   C297      1.0  0.84471  0.2949899999999999  0.45145  1.0000
  C   C298      1.0  0.91639  0.23262999999999998  0.57554  1.0000
  C   C299      1.0  0.8742299999999998  0.21812000000000004  0.60272  1.0000
  C   C300      1.0  0.8324500000000001  0.24795  0.62925  1.0000
  C   C301      1.0  0.13011000000000003  0.08706  0.31581  1.0000
  C   C302      1.0  0.17624  0.08922999999999998  0.30393  1.0000
  C   C303      1.0  0.1782  0.13545  0.29131  1.0000
  C   C304      1.0  0.08718999999999996  0.94327  0.33733  1.0000
  C   C305      1.0  0.09383999999999995  0.96777  0.28656  1.0000
  C   C306      1.0  0.06993000000000002  0.9605  0.26709  1.0000
  C   C307      1.0  0.22098  0.91528  0.4103  1.0000
  C   C308      1.0  0.25823999999999997  0.87987  0.3874299999999999  1.0000
  C   C309      1.0  0.29490999999999995  0.84462  0.40881  1.0000
  C   C310      1.0  0.23258000000000004  0.9164  0.27552  1.0000
  C   C311      1.0  0.21799999999999997  0.87429  0.30498999999999993  1.0000
  C   C312      1.0  0.24785999999999994  0.83252  0.29043  1.0000
  C   C313      1.0  0.31576999999999994  0.46699  0.13015  1.0000
  C   C314      1.0  0.30389  0.4306  0.17632  1.0000
  C   C315      1.0  0.2912200000000001  0.39503999999999995  0.17832  1.0000
  C   C316      1.0  0.3371199999999999  0.63252  0.08697  1.0000
  C   C317      1.0  0.2863799999999999  0.65226  0.0935  1.0000
  C   C318      1.0  0.26692999999999995  0.70292  0.06964  1.0000
  C   C319      1.0  0.41019999999999995  0.45324  0.22083  1.0000
  C   C320      1.0  0.3873000000000001  0.4742799999999999  0.25807  1.0000
  C   C321      1.0  0.4088  0.45155000000000006  0.29463  1.0000
  C   C322      1.0  0.27522  0.57556  0.23229  1.0000
  C   C323      1.0  0.30479  0.60267  0.21775999999999995  1.0000
  C   C324      1.0  0.29029000000000016  0.62903  0.24771  1.0000
  C   C325      1.0  0.46695  0.31575  0.08714  1.0000
  C   C326      1.0  0.4305300000000001  0.30381  0.08939  1.0000
  C   C327      1.0  0.39498  0.29117  0.13564  1.0000
  C   C328      1.0  0.6324899999999999  0.33707  0.9433  1.0000
  C   C329      1.0  0.6522200000000001  0.28629000000000004  0.96763  1.0000
  C   C330      1.0  0.7028400000000004  0.26685000000000003  0.96047  1.0000
  C   C331      1.0  0.45330000000000015  0.41024999999999995  0.91546  1.0000
  C   C332      1.0  0.47429  0.38731  0.88013  1.0000
  C   C333      1.0  0.45149  0.40874  0.84487  1.0000
  C   C334      1.0  0.57565  0.27547  0.91644  1.0000
  C   C335      1.0  0.6029300000000001  0.30491  0.87434  1.0000
  C   C336      1.0  0.62934  0.29044000000000003  0.8325099999999999  1.0000
  C   C337      1.0  0.31574  0.08715999999999997  0.46694  1.0000
  C   C338      1.0  0.3038100000000001  0.08941  0.43051  1.0000
  C   C339      1.0  0.29117  0.13565000000000002  0.39496999999999993  1.0000
  C   C340      1.0  0.33707000000000004  0.94331  0.6324699999999999  1.0000
  C   C341      1.0  0.28628  0.9676400000000001  0.6522299999999999  1.0000
  C   C342      1.0  0.26684  0.9604699999999999  0.70285  1.0000
  C   C343      1.0  0.41026999999999986  0.91548  0.45328  1.0000
  C   C344      1.0  0.38732000000000005  0.88017  0.47428  1.0000
  C   C345      1.0  0.4087500000000001  0.8448899999999999  0.45147999999999994  1.0000
  C   C346      1.0  0.27548  0.91643  0.57565  1.0000
  C   C347      1.0  0.30491999999999997  0.87434  0.6029399999999999  1.0000
  C   C348      1.0  0.2904499999999998  0.83252  0.62933  1.0000
  C   C349      1.0  0.467  0.13014  0.31576999999999994  1.0000
  C   C350      1.0  0.4305900000000001  0.17631  0.30389999999999995  1.0000
  C   C351      1.0  0.39503000000000005  0.17832  0.29123  1.0000
  C   C352      1.0  0.6325  0.08697000000000002  0.33715  1.0000
  C   C353      1.0  0.65223  0.09349999999999999  0.28641  1.0000
  C   C354      1.0  0.7029  0.06963999999999998  0.26694  1.0000
  C   C355      1.0  0.45323  0.22081999999999996  0.41021  1.0000
  C   C356      1.0  0.4742799999999998  0.25802  0.38732  1.0000
  C   C357      1.0  0.45154999999999995  0.2946  0.40881  1.0000
  C   C358      1.0  0.57555  0.23229  0.27523  1.0000
  C   C359      1.0  0.60267  0.21776  0.30478999999999995  1.0000
  C   C360      1.0  0.6290200000000001  0.24769999999999998  0.2903  1.0000
  C   C361      1.0  0.08706999999999998  0.31581  0.1301  1.0000
  C   C362      1.0  0.08923999999999996  0.30394  0.17622  1.0000
  C   C363      1.0  0.13546000000000002  0.29132  0.17817999999999998  1.0000
  C   C364      1.0  0.9432700000000002  0.33734  0.08719  1.0000
  C   C365      1.0  0.9677799999999999  0.28656  0.09382999999999998  1.0000
  C   C366      1.0  0.9605  0.2670900000000001  0.06992  1.0000
  C   C367      1.0  0.91529  0.4103  0.22095999999999996  1.0000
  C   C368      1.0  0.8799099999999999  0.38743  0.25819  1.0000
  C   C369      1.0  0.8446400000000001  0.40881  0.29488  1.0000
  C   C370      1.0  0.9164099999999998  0.27551  0.23257  1.0000
  C   C371      1.0  0.87429  0.30498  0.218  1.0000
  C   C372      1.0  0.8325199999999999  0.29044000000000003  0.24785999999999997  1.0000
  C   C373      1.0  0.13030999999999998  0.46673  0.08728  1.0000
  C   C374      1.0  0.17642000000000005  0.43029999999999996  0.0895  1.0000
  C   C375      1.0  0.17841  0.39476  0.13571  1.0000
  C   C376      1.0  0.08716000000000002  0.63234  0.9431899999999999  1.0000
  C   C377      1.0  0.09378  0.65212  0.96756  1.0000
  C   C378      1.0  0.06977000000000011  0.7027699999999999  0.9603  1.0000
  C   C379      1.0  0.22104  0.45325  0.91537  1.0000
  C   C380      1.0  0.25838  0.47415999999999997  0.88009  1.0000
  C   C381      1.0  0.2949700000000001  0.45145  0.8447199999999999  1.0000
  C   C382      1.0  0.23262000000000013  0.5755499999999999  0.9163699999999998  1.0000
  C   C383      1.0  0.21811000000000003  0.6027299999999999  0.87421  1.0000
  C   C384      1.0  0.24792999999999998  0.6292499999999999  0.83245  1.0000
  C   C385      1.0  0.13013000000000002  0.31578  0.46702  1.0000
  C   C386      1.0  0.17631  0.30388999999999994  0.4306  1.0000
  C   C387      1.0  0.17831999999999995  0.29122  0.39502  1.0000
  C   C388      1.0  0.08696999999999994  0.3371100000000001  0.63253  1.0000
  C   C389      1.0  0.09350999999999994  0.28637  0.65224  1.0000
  C   C390      1.0  0.06965000000000005  0.26692999999999995  0.7029  1.0000
  C   C391      1.0  0.22083000000000005  0.4102199999999999  0.45322999999999997  1.0000
  C   C392      1.0  0.25805  0.38733  0.47426  1.0000
  C   C393      1.0  0.29462  0.40881  0.45154  1.0000
  C   C394      1.0  0.2322599999999999  0.27525  0.57557  1.0000
  C   C395      1.0  0.21773000000000003  0.30480999999999997  0.6027  1.0000
  C   C396      1.0  0.24767999999999996  0.29031  0.62905  1.0000
  C   C397      1.0  0.08714000000000002  0.46697  0.31575  1.0000
  C   C398      1.0  0.08940000000000001  0.43054  0.30382  1.0000
  C   C399      1.0  0.13564000000000007  0.3949799999999999  0.29117  1.0000
  C   C400      1.0  0.9433100000000001  0.6325  0.33705  1.0000
  C   C401      1.0  0.96766  0.65223  0.28626  1.0000
  C   C402      1.0  0.96047  0.70285  0.26684  1.0000
  C   C403      1.0  0.9154699999999999  0.4532900000000001  0.41027  1.0000
  C   C404      1.0  0.8801500000000003  0.47427  0.38733  1.0000
  C   C405      1.0  0.84489  0.45148000000000005  0.40875  1.0000
  C   C406      1.0  0.9164400000000001  0.57566  0.27548  1.0000
  C   C407      1.0  0.8743300000000003  0.60297  0.30492  1.0000
  C   C408      1.0  0.8325000000000001  0.62936  0.29046  1.0000
  C   C409      1.0  0.46674999999999994  0.08727  0.13028  1.0000
  C   C410      1.0  0.43032000000000004  0.08951  0.17639  1.0000
  C   C411      1.0  0.39475999999999994  0.13571  0.17841  1.0000
  C   C412      1.0  0.6323299999999998  0.94319  0.08717  1.0000
  C   C413      1.0  0.65209  0.96758  0.09378999999999998  1.0000
  C   C414      1.0  0.7027399999999999  0.96031  0.06978  1.0000
  C   C415      1.0  0.45324000000000003  0.91534  0.22107  1.0000
  C   C416      1.0  0.47415999999999997  0.88006  0.2584  1.0000
  C   C417      1.0  0.45145  0.84472  0.29498  1.0000
  C   C418      1.0  0.5755500000000001  0.91636  0.23260999999999998  1.0000
  C   C419      1.0  0.6027499999999999  0.87419  0.2181  1.0000
  C   C420      1.0  0.6292599999999999  0.83243  0.24793  1.0000
  C   C421      1.0  0.31581  0.13009  0.08706  1.0000
  C   C422      1.0  0.3039299999999999  0.17622  0.08925  1.0000
  C   C423      1.0  0.29131000000000007  0.17819  0.13547  1.0000
  C   C424      1.0  0.3373200000000002  0.08719999999999999  0.94328  1.0000
  C   C425      1.0  0.2865400000000001  0.09385000000000002  0.96779  1.0000
  C   C426      1.0  0.26709  0.06994000000000009  0.9604999999999999  1.0000
  C   C427      1.0  0.4103  0.221  0.91526  1.0000
  C   C428      1.0  0.38742999999999994  0.25823000000000007  0.8798799999999999  1.0000
  C   C429      1.0  0.40881000000000006  0.2949  0.84463  1.0000
  C   C430      1.0  0.27552999999999994  0.23257000000000003  0.91638  1.0000
  C   C431      1.0  0.30501  0.21799  0.87426  1.0000
  C   C432      1.0  0.29045000000000004  0.24785000000000001  0.8325  1.0000
  C   C433      1.0  0.9129200000000001  0.8699100000000001  0.6841999999999999  1.0000
  C   C434      1.0  0.9107600000000001  0.82378  0.69606  1.0000
  C   C435      1.0  0.8645399999999999  0.82182  0.70868  1.0000
  C   C436      1.0  0.056729999999999906  0.91281  0.66266  1.0000
  C   C437      1.0  0.032220000000000006  0.90617  0.71344  1.0000
  C   C438      1.0  0.039490000000000004  0.93008  0.73291  1.0000
  C   C439      1.0  0.08470000000000012  0.7790399999999998  0.5897  1.0000
  C   C440      1.0  0.12009000000000003  0.74181  0.61257  1.0000
  C   C441      1.0  0.15535999999999997  0.70512  0.59119  1.0000
  C   C442      1.0  0.08358  0.76743  0.72449  1.0000
  C   C443      1.0  0.1257000000000001  0.782  0.69502  1.0000
  C   C444      1.0  0.16747000000000004  0.7521400000000001  0.7095599999999999  1.0000
  C   C445      1.0  0.8696800000000001  0.91272  0.53327  1.0000
  C   C446      1.0  0.8235800000000001  0.9105  0.5697  1.0000
  C   C447      1.0  0.8215899999999999  0.8643  0.60524  1.0000
  C   C448      1.0  0.91284  0.056819999999999996  0.36767  1.0000
  C   C449      1.0  0.90622  0.032440000000000004  0.3478899999999999  1.0000
  C   C450      1.0  0.9302300000000003  0.0397  0.29724  1.0000
  C   C451      1.0  0.7789499999999999  0.08463999999999999  0.54676  1.0000
  C   C452      1.0  0.74162  0.11991000000000002  0.52584  1.0000
  C   C453      1.0  0.70502  0.15528  0.54855  1.0000
  C   C454      1.0  0.7673799999999998  0.08363000000000002  0.42445  1.0000
  C   C455      1.0  0.78189  0.12579  0.39727  1.0000
  C   C456      1.0  0.75206  0.16755  0.37076  1.0000
  C   C457      1.0  0.6842600000000001  0.5330699999999998  0.91284  1.0000
  C   C458      1.0  0.6961799999999998  0.5695  0.91059  1.0000
  C   C459      1.0  0.7088199999999999  0.6050400000000001  0.8643499999999998  1.0000
  C   C460      1.0  0.66292  0.36753  0.0567  1.0000
  C   C461      1.0  0.71372  0.34777  0.03237  1.0000
  C   C462      1.0  0.7331600000000003  0.29715  0.03953  1.0000
  C   C463      1.0  0.5897300000000001  0.5467199999999998  0.08453  1.0000
  C   C464      1.0  0.61268  0.52572  0.11983999999999999  1.0000
  C   C465      1.0  0.59124  0.54852  0.15510999999999997  1.0000
  C   C466      1.0  0.7245200000000002  0.42435  0.08357  1.0000
  C   C467      1.0  0.6950800000000001  0.3970699999999999  0.12567  1.0000
  C   C468      1.0  0.7095500000000002  0.37067  0.16749  1.0000
  C   C469      1.0  0.53299  0.6842400000000001  0.86986  1.0000
  C   C470      1.0  0.5694099999999995  0.69611  0.8237  1.0000
  C   C471      1.0  0.60497  0.70877  0.82169  1.0000
  C   C472      1.0  0.36749000000000004  0.6628499999999999  0.91303  1.0000
  C   C473      1.0  0.34776000000000007  0.71359  0.90651  1.0000
  C   C474      1.0  0.29709  0.7330599999999999  0.93037  1.0000
  C   C475      1.0  0.5467599999999999  0.5897900000000001  0.77918  1.0000
  C   C476      1.0  0.5257100000000001  0.6126899999999998  0.74198  1.0000
  C   C477      1.0  0.5484400000000001  0.59119  0.7054  1.0000
  C   C478      1.0  0.42444  0.72478  0.76772  1.0000
  C   C479      1.0  0.39733000000000007  0.6952100000000001  0.7822399999999998  1.0000
  C   C480      1.0  0.3709799999999998  0.7097  0.7523  1.0000
  C   C481      1.0  0.68418  0.9129399999999999  0.86991  1.0000
  C   C482      1.0  0.6960599999999999  0.91075  0.82379  1.0000
  C   C483      1.0  0.7086800000000002  0.8645299999999999  0.82181  1.0000
  C   C484      1.0  0.66267  0.05672999999999999  0.9128  1.0000
  C   C485      1.0  0.71345  0.032220000000000026  0.90615  1.0000
  C   C486      1.0  0.7329100000000002  0.03950000000000005  0.9300699999999998  1.0000
  C   C487      1.0  0.58969  0.08475  0.77901  1.0000
  C   C488      1.0  0.61257  0.12012999999999996  0.74178  1.0000
  C   C489      1.0  0.59119  0.15536999999999998  0.70511  1.0000
  C   C490      1.0  0.72446  0.08362  0.76743  1.0000
  C   C491      1.0  0.69499  0.12574  0.78202  1.0000
  C   C492      1.0  0.70954  0.16749999999999998  0.75216  1.0000
  C   C493      1.0  0.5332400000000003  0.8697199999999999  0.91274  1.0000
  C   C494      1.0  0.5696799999999999  0.8236199999999999  0.91049  1.0000
  C   C495      1.0  0.6052399999999999  0.8216  0.86429  1.0000
  C   C496      1.0  0.3676700000000001  0.9128299999999999  0.05680999999999999  1.0000
  C   C497      1.0  0.34791000000000005  0.90621  0.03242  1.0000
  C   C498      1.0  0.2972600000000001  0.93022  0.0397  1.0000
  C   C499      1.0  0.54675  0.77893  0.08467  1.0000
  C   C500      1.0  0.5258399999999999  0.7416000000000001  0.11993999999999998  1.0000
  C   C501      1.0  0.5485500000000001  0.70502  0.15528  1.0000
  C   C502      1.0  0.42443999999999993  0.76739  0.08364  1.0000
  C   C503      1.0  0.39724999999999994  0.7819  0.12582  1.0000
  C   C504      1.0  0.37073  0.7520699999999999  0.16758  1.0000
  C   C505      1.0  0.9128600000000001  0.68425  0.53303  1.0000
  C   C506      1.0  0.9106000000000003  0.6961799999999999  0.56946  1.0000
  C   C507      1.0  0.8643500000000001  0.70883  0.60502  1.0000
  C   C508      1.0  0.05668000000000008  0.66296  0.36749999999999994  1.0000
  C   C509      1.0  0.03234000000000001  0.71374  0.34778  1.0000
  C   C510      1.0  0.03952000000000006  0.73316  0.29715  1.0000
  C   C511      1.0  0.08452999999999998  0.58974  0.54671  1.0000
  C   C512      1.0  0.11985000000000007  0.61267  0.52573  1.0000
  C   C513      1.0  0.15511000000000005  0.59125  0.54852  1.0000
  C   C514      1.0  0.08355000000000005  0.72452  0.42435  1.0000
  C   C515      1.0  0.12567000000000006  0.69508  0.39704  1.0000
  C   C516      1.0  0.16749999999999998  0.70955  0.37065  1.0000
  C   C517      1.0  0.86986  0.53299  0.68423  1.0000
  C   C518      1.0  0.8236899999999998  0.56941  0.69611  1.0000
  C   C519      1.0  0.8216700000000001  0.6049799999999999  0.70878  1.0000
  C   C520      1.0  0.91302  0.3674800000000001  0.6628999999999999  1.0000
  C   C521      1.0  0.90648  0.34776  0.71363  1.0000
  C   C522      1.0  0.9303500000000001  0.2970999999999999  0.73308  1.0000
  C   C523      1.0  0.7791700000000001  0.54677  0.58979  1.0000
  C   C524      1.0  0.7419400000000002  0.5257399999999998  0.61268  1.0000
  C   C525      1.0  0.70538  0.54846  0.59119  1.0000
  C   C526      1.0  0.76773  0.42444000000000004  0.72476  1.0000
  C   C527      1.0  0.7822700000000001  0.3972999999999999  0.69519  1.0000
  C   C528      1.0  0.7523200000000001  0.37096000000000007  0.7096899999999999  1.0000
  C   C529      1.0  0.8698799999999999  0.68419  0.91294  1.0000
  C   C530      1.0  0.8237499999999999  0.69607  0.91077  1.0000
  C   C531      1.0  0.8217999999999999  0.70869  0.86455  1.0000
  C   C532      1.0  0.9128000000000001  0.66267  0.05673  1.0000
  C   C533      1.0  0.90615  0.71344  0.03223  1.0000
  C   C534      1.0  0.93006  0.73291  0.0395  1.0000
  C   C535      1.0  0.77902  0.5896999999999999  0.08473  1.0000
  C   C536      1.0  0.7417600000000001  0.61258  0.12013  1.0000
  C   C537      1.0  0.7050800000000004  0.5912  0.15538  1.0000
  C   C538      1.0  0.7674199999999998  0.7244800000000001  0.08361  1.0000
  C   C539      1.0  0.782  0.6950099999999999  0.12571  1.0000
  C   C540      1.0  0.75214  0.70957  0.16748  1.0000
  C   C541      1.0  0.91272  0.53327  0.86969  1.0000
  C   C542      1.0  0.91051  0.56967  0.8236  1.0000
  C   C543      1.0  0.8642999999999998  0.60522  0.8216  1.0000
  C   C544      1.0  0.056810000000000076  0.36765999999999993  0.91284  1.0000
  C   C545      1.0  0.03242999999999996  0.34787999999999997  0.90623  1.0000
  C   C546      1.0  0.039699999999999985  0.29724  0.93024  1.0000
  C   C547      1.0  0.08464000000000006  0.54676  0.77895  1.0000
  C   C548      1.0  0.11992999999999995  0.5258500000000002  0.74159  1.0000
  C   C549      1.0  0.15529  0.54855  0.70501  1.0000
  C   C550      1.0  0.08359999999999991  0.42446000000000006  0.76738  1.0000
  C   C551      1.0  0.12576999999999997  0.39729  0.78188  1.0000
  C   C552      1.0  0.16755  0.37075  0.75205  1.0000
  C   C553      1.0  0.53304  0.91286  0.6842499999999999  1.0000
  C   C554      1.0  0.56946  0.9106100000000003  0.69619  1.0000
  C   C555      1.0  0.60501  0.86437  0.70883  1.0000
  C   C556      1.0  0.36751000000000006  0.05671000000000005  0.6629299999999999  1.0000
  C   C557      1.0  0.34777  0.03237000000000002  0.71371  1.0000
  C   C558      1.0  0.29715  0.03954000000000002  0.73315  1.0000
  C   C559      1.0  0.5466899999999999  0.08454000000000002  0.58975  1.0000
  C   C560      1.0  0.5257  0.11988  0.6127  1.0000
  C   C561      1.0  0.5484999999999999  0.15514  0.59126  1.0000
  C   C562      1.0  0.42435000000000006  0.08356999999999998  0.72453  1.0000
  C   C563      1.0  0.39706  0.12566  0.6951  1.0000
  C   C564      1.0  0.37066  0.16750000000000007  0.7095599999999999  1.0000
  C   C565      1.0  0.6842299999999999  0.86985  0.53301  1.0000
  C   C566      1.0  0.6961100000000001  0.82369  0.5694  1.0000
  C   C567      1.0  0.7087799999999999  0.82168  0.60497  1.0000
  C   C568      1.0  0.66288  0.91303  0.36748  1.0000
  C   C569      1.0  0.71362  0.90651  0.34774  1.0000
  C   C570      1.0  0.73307  0.93037  0.29708  1.0000
  C   C571      1.0  0.5898000000000002  0.7791699999999998  0.54676  1.0000
  C   C572      1.0  0.6126999999999998  0.74193  0.52572  1.0000
  C   C573      1.0  0.5912  0.70538  0.54845  1.0000
  C   C574      1.0  0.7247800000000001  0.76772  0.42444  1.0000
  C   C575      1.0  0.6952000000000002  0.7822499999999999  0.39733  1.0000
  C   C576      1.0  0.7097000000000001  0.7522999999999999  0.37097  1.0000
  C   C577      1.0  0.9329300000000001  0.93292  0.47123  1.0000
  C   C578      1.0  0.9331299999999997  0.93316  0.66282  1.0000
  C   C579      1.0  0.66284  0.47095  0.9332  1.0000
  C   C580      1.0  0.4709200000000001  0.6628399999999999  0.93322  1.0000
  C   C581      1.0  0.66284  0.9332  0.47095  1.0000
  C   C582      1.0  0.47092000000000006  0.9332199999999998  0.66284  1.0000
  C   C583      1.0  0.9331300000000001  0.66282  0.9331499999999999  1.0000
  C   C584      1.0  0.9329299999999999  0.47123  0.93292  1.0000
  C   C585      1.0  0.93323  0.66283  0.4709  1.0000
  C   C586      1.0  0.9332299999999999  0.47090000000000004  0.66282  1.0000
  C   C587      1.0  0.47117000000000014  0.93297  0.93297  1.0000
  C   C588      1.0  0.6628000000000001  0.9331699999999998  0.93317  1.0000
  C   C589      1.0  0.06686000000000002  0.06685  0.33718  1.0000
  C   C590      1.0  0.06706000000000001  0.06708000000000001  0.52878  1.0000
  C   C591      1.0  0.33716  0.52905  0.06681  1.0000
  C   C592      1.0  0.52907  0.33716  0.06678  1.0000
  C   C593      1.0  0.3372  0.06682999999999999  0.06683  1.0000
  C   C594      1.0  0.52883  0.06702999999999998  0.06703  1.0000
  C   C595      1.0  0.06677000000000004  0.3371799999999999  0.5291  1.0000
  C   C596      1.0  0.06676999999999993  0.5291  0.33718  1.0000
  C   C597      1.0  0.06685999999999999  0.33718  0.06685  1.0000
  C   C598      1.0  0.06705999999999998  0.52878  0.06708  1.0000
  C   C599      1.0  0.52907  0.06678000000000002  0.33715999999999996  1.0000
  C   C600      1.0  0.33716000000000007  0.06681  0.52905  1.0000
  C   C601      1.0  0.0894500000000003  0.9104599999999998  0.4125499999999999  1.0000
  C   C602      1.0  0.91054  0.08955000000000005  0.58745  1.0000
  C   C603      1.0  0.58774  0.41228  0.91064  1.0000
  C   C604      1.0  0.41226  0.58772  0.08936  1.0000
  C   C605      1.0  0.58769  0.08937000000000002  0.41229  1.0000
  C   C606      1.0  0.41231  0.91064  0.58771  1.0000
  C   C607      1.0  0.08954000000000013  0.5874299999999999  0.91054  1.0000
  C   C608      1.0  0.91045  0.41257999999999995  0.08946  1.0000
  C   C609      1.0  0.9106499999999998  0.58778  0.41225  1.0000
  C   C610      1.0  0.08934999999999997  0.41223000000000004  0.58775  1.0000
  C   C611      1.0  0.41255  0.08946  0.91046  1.0000
  C   C612      1.0  0.58744  0.9105499999999997  0.08954  1.0000
  C   C613      1.0  0.91045  0.08946  0.41258  1.0000
  C   C614      1.0  0.08953999999999986  0.91054  0.58743  1.0000
  C   C615      1.0  0.4123100000000002  0.5877099999999997  0.91064  1.0000
  C   C616      1.0  0.58769  0.41229  0.08937  1.0000
  C   C617      1.0  0.41256000000000015  0.9104599999999998  0.08945  1.0000
  C   C618      1.0  0.58744  0.08955000000000005  0.91055  1.0000
  C   C619      1.0  0.91065  0.41225999999999996  0.58777  1.0000
  C   C620      1.0  0.08934999999999994  0.58775  0.41223  1.0000
  C   C621      1.0  0.08944999999999993  0.41255  0.91046  1.0000
  C   C622      1.0  0.91054  0.58745  0.08955  1.0000
  C   C623      1.0  0.5877399999999999  0.91064  0.41228  1.0000
  C   C624      1.0  0.41225999999999996  0.08935999999999995  0.58772  1.0000
  C   C625      1.0  0.024399999999999963  0.84359  0.56607  1.0000
  C   C626      1.0  0.84358  0.024420000000000008  0.56605  1.0000
  C   C627      1.0  0.56615  0.56618  0.84372  1.0000
  C   C628      1.0  0.5660499999999996  0.56605  0.02428  1.0000
  C   C629      1.0  0.5660400000000002  0.024290000000000016  0.56605  1.0000
  C   C630      1.0  0.5661499999999999  0.84372  0.56618  1.0000
  C   C631      1.0  0.024399999999999963  0.5660700000000001  0.84359  1.0000
  C   C632      1.0  0.8435799999999999  0.56605  0.024419999999999997  1.0000
  C   C633      1.0  0.8437099999999998  0.56616  0.56616  1.0000
  C   C634      1.0  0.024280000000000065  0.56605  0.56604  1.0000
  C   C635      1.0  0.5660499999999999  0.024470000000000026  0.84355  1.0000
  C   C636      1.0  0.56605  0.84355  0.024469999999999992  1.0000
  C   C637      1.0  0.9755900000000001  0.15641999999999998  0.43393  1.0000
  C   C638      1.0  0.1564099999999999  0.97559  0.43395  1.0000
  C   C639      1.0  0.4339499999999998  0.43396000000000007  0.97572  1.0000
  C   C640      1.0  0.43384000000000017  0.43383  0.15629  1.0000
  C   C641      1.0  0.43395  0.97554  0.15645  1.0000
  C   C642      1.0  0.43395000000000006  0.15645999999999996  0.97554  1.0000
  C   C643      1.0  0.9757100000000001  0.43396000000000007  0.43396  1.0000
  C   C644      1.0  0.15628999999999998  0.43384  0.43384  1.0000
  C   C645      1.0  0.15640999999999994  0.43396000000000007  0.97559  1.0000
  C   C646      1.0  0.9755899999999998  0.43393000000000004  0.15641  1.0000
  C   C647      1.0  0.4339499999999998  0.9757200000000001  0.43395  1.0000
  C   C648      1.0  0.43383999999999995  0.15629000000000004  0.43383  1.0000
  C   C649      1.0  0.012320000000000123  0.7566099999999999  0.4744099999999999  1.0000
  C   C650      1.0  0.7565999999999999  0.01238000000000001  0.75657  1.0000
  C   C651      1.0  0.75689  0.47438  0.75691  1.0000
  C   C652      1.0  0.47440000000000004  0.75658  0.01235  1.0000
  C   C653      1.0  0.7565799999999999  0.012369999999999996  0.47439  1.0000
  C   C654      1.0  0.47439  0.7569  0.7569  1.0000
  C   C655      1.0  0.012350000000000015  0.7566000000000002  0.7565899999999999  1.0000
  C   C656      1.0  0.7565800000000001  0.4743899999999999  0.01237  1.0000
  C   C657      1.0  0.7568900000000002  0.75691  0.47438  1.0000
  C   C658      1.0  0.012319999999999906  0.47441000000000005  0.7566  1.0000
  C   C659      1.0  0.4744  0.012349999999999995  0.75658  1.0000
  C   C660      1.0  0.7566  0.75657  0.01238  1.0000
  C   C661      1.0  0.9876500000000001  0.24341  0.24341  1.0000
  C   C662      1.0  0.24341000000000002  0.9876299999999999  0.52561  1.0000
  C   C663      1.0  0.2434099999999999  0.5256100000000001  0.98763  1.0000
  C   C664      1.0  0.5256100000000001  0.24310000000000004  0.24309999999999996  1.0000
  C   C665      1.0  0.24340000000000014  0.98762  0.24343  1.0000
  C   C666      1.0  0.52559  0.24342000000000005  0.98765  1.0000
  C   C667      1.0  0.98767  0.2434  0.52559  1.0000
  C   C668      1.0  0.2431000000000002  0.5256199999999998  0.24309  1.0000
  C   C669      1.0  0.24340000000000006  0.24343999999999996  0.98762  1.0000
  C   C670      1.0  0.98767  0.52559  0.2434  1.0000
  C   C671      1.0  0.5256000000000003  0.98765  0.24342  1.0000
  C   C672      1.0  0.24310000000000004  0.24309  0.52562  1.0000
  N   N1        1.0  0.9523900000000002  0.8837699999999997  0.49336  1.0000
  N   N2        1.0  0.058800000000000095  0.8924299999999997  0.41554  1.0000
  N   N3        1.0  0.045799999999999966  0.82061  0.53244  1.0000
  N   N4        1.0  0.03780000000000013  0.7872199999999999  0.45658999999999994  1.0000
  N   N5        1.0  0.8839700000000001  0.9525800000000001  0.6703899999999999  1.0000
  N   N6        1.0  0.89251  0.05882000000000001  0.63308  1.0000
  N   N7        1.0  0.8206999999999999  0.04592  0.60115  1.0000
  N   N8        1.0  0.7872799999999999  0.03781000000000002  0.71833  1.0000
  N   N9        1.0  0.6704100000000002  0.49308000000000013  0.8840499999999999  1.0000
  N   N10       1.0  0.6333700000000001  0.4153700000000001  0.8926799999999999  1.0000
  N   N11       1.0  0.6012899999999999  0.5324700000000001  0.8207999999999999  1.0000
  N   N12       1.0  0.7186500000000001  0.4565099999999999  0.7875799999999998  1.0000
  N   N13       1.0  0.49312999999999996  0.67044  0.95256  1.0000
  N   N14       1.0  0.41536  0.63338  0.05875999999999999  1.0000
  N   N15       1.0  0.53237  0.60121  0.04574  1.0000
  N   N16       1.0  0.45643000000000006  0.71842  0.03774  1.0000
  N   N17       1.0  0.67046  0.95254  0.49314  1.0000
  N   N18       1.0  0.63336  0.05876000000000001  0.41538  1.0000
  N   N19       1.0  0.6012000000000002  0.045730000000000014  0.53238  1.0000
  N   N20       1.0  0.7184100000000001  0.03776  0.45643  1.0000
  N   N21       1.0  0.49304000000000014  0.88407  0.67043  1.0000
  N   N22       1.0  0.4153900000000001  0.8926699999999999  0.63334  1.0000
  N   N23       1.0  0.5324699999999998  0.8208099999999999  0.60131  1.0000
  N   N24       1.0  0.4565100000000002  0.7875699999999999  0.71865  1.0000
  N   N25       1.0  0.9525500000000001  0.6704199999999999  0.88399  1.0000
  N   N26       1.0  0.05882000000000008  0.63307  0.8925  1.0000
  N   N27       1.0  0.04589000000000002  0.60117  0.82071  1.0000
  N   N28       1.0  0.03777999999999999  0.71836  0.78728  1.0000
  N   N29       1.0  0.88376  0.49336  0.95237  1.0000
  N   N30       1.0  0.89244  0.41555999999999993  0.05879999999999999  1.0000
  N   N31       1.0  0.82061  0.53244  0.04579  1.0000
  N   N32       1.0  0.7872100000000003  0.45657999999999993  0.03783999999999999  1.0000
  N   N33       1.0  0.8840699999999997  0.67041  0.49303  1.0000
  N   N34       1.0  0.89268  0.6334  0.41536  1.0000
  N   N35       1.0  0.8207900000000001  0.6012899999999999  0.53247  1.0000
  N   N36       1.0  0.78757  0.71865  0.45650999999999997  1.0000
  N   N37       1.0  0.9525599999999999  0.49311000000000005  0.67043  1.0000
  N   N38       1.0  0.05874000000000004  0.41534000000000004  0.63341  1.0000
  N   N39       1.0  0.04573000000000005  0.53238  0.6012  1.0000
  N   N40       1.0  0.037720000000000066  0.45644  0.71842  1.0000
  N   N41       1.0  0.49332000000000004  0.9524  0.8838  1.0000
  N   N42       1.0  0.41555999999999993  0.05879999999999998  0.89243  1.0000
  N   N43       1.0  0.53243  0.04584  0.82058  1.0000
  N   N44       1.0  0.45658000000000004  0.03783999999999997  0.78721  1.0000
  N   N45       1.0  0.6703900000000003  0.8840099999999997  0.95257  1.0000
  N   N46       1.0  0.63308  0.8925  0.05881  1.0000
  N   N47       1.0  0.60115  0.82068  0.04594  1.0000
  N   N48       1.0  0.7183400000000001  0.78727  0.03781999999999999  1.0000
  N   N49       1.0  0.047439999999999975  0.11601  0.32959  1.0000
  N   N50       1.0  0.94117  0.1075  0.36694  1.0000
  N   N51       1.0  0.95411  0.17929000000000003  0.39883  1.0000
  N   N52       1.0  0.96221  0.21273000000000003  0.28164  1.0000
  N   N53       1.0  0.11624  0.047630000000000006  0.50665  1.0000
  N   N54       1.0  0.10756000000000017  0.9412099999999997  0.58444  1.0000
  N   N55       1.0  0.17938999999999997  0.95421  0.46757  1.0000
  N   N56       1.0  0.21279000000000003  0.96216  0.54342  1.0000
  N   N57       1.0  0.32954000000000006  0.50686  0.04746  1.0000
  N   N58       1.0  0.3666300000000002  0.58463  0.9412499999999999  1.0000
  N   N59       1.0  0.39879000000000003  0.4676199999999999  0.95428  1.0000
  N   N60       1.0  0.28158  0.54357  0.96224  1.0000
  N   N61       1.0  0.5069499999999999  0.32957  0.11593999999999999  1.0000
  N   N62       1.0  0.5846  0.36666  0.10732999999999998  1.0000
  N   N63       1.0  0.46753000000000006  0.39869  0.1792  1.0000
  N   N64       1.0  0.54349  0.28135  0.21243  1.0000
  N   N65       1.0  0.32961000000000007  0.04742999999999999  0.11598999999999998  1.0000
  N   N66       1.0  0.36692  0.9411900000000001  0.1075  1.0000
  N   N67       1.0  0.39884  0.95406  0.17932  1.0000
  N   N68       1.0  0.28165000000000007  0.96219  0.21273  1.0000
  N   N69       1.0  0.50668  0.11619999999999998  0.0476  1.0000
  N   N70       1.0  0.5844400000000001  0.10757999999999995  0.94121  1.0000
  N   N71       1.0  0.4675600000000001  0.17942999999999995  0.95416  1.0000
  N   N72       1.0  0.5434099999999998  0.21279  0.96217  1.0000
  N   N73       1.0  0.04742999999999997  0.32957000000000003  0.5069  1.0000
  N   N74       1.0  0.9412600000000003  0.36658999999999997  0.58466  1.0000
  N   N75       1.0  0.9542599999999999  0.39881  0.46762  1.0000
  N   N76       1.0  0.96227  0.28158  0.54356  1.0000
  N   N77       1.0  0.11592999999999992  0.5069700000000001  0.32959  1.0000
  N   N78       1.0  0.10732000000000011  0.5846399999999999  0.3666  1.0000
  N   N79       1.0  0.17920000000000003  0.46752999999999983  0.39871  1.0000
  N   N80       1.0  0.21242000000000005  0.54349  0.28136  1.0000
  N   N81       1.0  0.11601999999999998  0.32961  0.04742  1.0000
  N   N82       1.0  0.10748999999999996  0.36693000000000003  0.94118  1.0000
  N   N83       1.0  0.1793  0.39885  0.95408  1.0000
  N   N84       1.0  0.2127100000000001  0.28166999999999986  0.96219  1.0000
  N   N85       1.0  0.047610000000000006  0.50665  0.11623  1.0000
  N   N86       1.0  0.9412000000000001  0.58446  0.10757  1.0000
  N   N87       1.0  0.95419  0.46756  0.1794  1.0000
  N   N88       1.0  0.9621999999999999  0.54341  0.21278  1.0000
  N   N89       1.0  0.5068600000000001  0.04744000000000001  0.32957  1.0000
  N   N90       1.0  0.5846399999999999  0.94124  0.36662  1.0000
  N   N91       1.0  0.46762999999999993  0.95426  0.39879  1.0000
  N   N92       1.0  0.5435599999999999  0.96226  0.28158  1.0000
  N   N93       1.0  0.32958999999999994  0.11595000000000001  0.50693  1.0000
  N   N94       1.0  0.36662  0.10731999999999997  0.58464  1.0000
  N   N95       1.0  0.3987000000000003  0.1792  0.46753  1.0000
  N   N96       1.0  0.28134999999999993  0.21241999999999997  0.5435  1.0000
  N   N97       1.0  0.04760999999999999  0.11624000000000001  0.50664  1.0000
  N   N98       1.0  0.9412  0.10757  0.58446  1.0000
  N   N99       1.0  0.9541900000000001  0.1794  0.46755999999999986  1.0000
  N   N100      1.0  0.9621999999999999  0.21277999999999997  0.54341  1.0000
  N   N101      1.0  0.11601999999999998  0.04742999999999999  0.32961  1.0000
  N   N102      1.0  0.10749000000000004  0.94118  0.36692  1.0000
  N   N103      1.0  0.17930000000000001  0.95409  0.39885  1.0000
  N   N104      1.0  0.21271999999999996  0.96219  0.28167  1.0000
  N   N105      1.0  0.32959000000000005  0.50693  0.11594999999999998  1.0000
  N   N106      1.0  0.36663  0.5846399999999999  0.10731999999999998  1.0000
  N   N107      1.0  0.3987000000000001  0.4675299999999999  0.1792  1.0000
  N   N108      1.0  0.28135000000000016  0.5434999999999998  0.21242  1.0000
  N   N109      1.0  0.50686  0.32957  0.04744  1.0000
  N   N110      1.0  0.5846400000000002  0.36662  0.94124  1.0000
  N   N111      1.0  0.46763  0.3988  0.9542599999999999  1.0000
  N   N112      1.0  0.5435600000000002  0.28159  0.96226  1.0000
  N   N113      1.0  0.32954  0.047460000000000016  0.50686  1.0000
  N   N114      1.0  0.36663000000000007  0.9412499999999999  0.58462  1.0000
  N   N115      1.0  0.3987999999999999  0.95428  0.46762  1.0000
  N   N116      1.0  0.28158000000000016  0.9622499999999999  0.54357  1.0000
  N   N117      1.0  0.5069500000000001  0.11594  0.32957  1.0000
  N   N118      1.0  0.5846  0.10733000000000001  0.36666  1.0000
  N   N119      1.0  0.46753  0.1792  0.39869  1.0000
  N   N120      1.0  0.54349  0.21243000000000006  0.28135  1.0000
  N   N121      1.0  0.04744000000000002  0.32959  0.11600999999999997  1.0000
  N   N122      1.0  0.9411699999999998  0.36694  0.1075  1.0000
  N   N123      1.0  0.9541099999999999  0.39883  0.17929  1.0000
  N   N124      1.0  0.96221  0.28164999999999996  0.21272  1.0000
  N   N125      1.0  0.11624000000000001  0.50665  0.04763  1.0000
  N   N126      1.0  0.10756000000000006  0.58444  0.94121  1.0000
  N   N127      1.0  0.1793900000000001  0.46757  0.9542099999999999  1.0000
  N   N128      1.0  0.21277999999999997  0.5434200000000001  0.96216  1.0000
  N   N129      1.0  0.11592999999999998  0.32959  0.50697  1.0000
  N   N130      1.0  0.10731999999999997  0.36660000000000004  0.58464  1.0000
  N   N131      1.0  0.17920000000000008  0.39871  0.46753  1.0000
  N   N132      1.0  0.21241999999999994  0.28136  0.54349  1.0000
  N   N133      1.0  0.04743000000000005  0.5069  0.32957  1.0000
  N   N134      1.0  0.9412600000000001  0.5846699999999999  0.36659  1.0000
  N   N135      1.0  0.9542600000000001  0.46762  0.3988  1.0000
  N   N136      1.0  0.9622700000000001  0.54356  0.28158  1.0000
  N   N137      1.0  0.50668  0.04760000000000001  0.1162  1.0000
  N   N138      1.0  0.5844400000000001  0.9412099999999998  0.10757  1.0000
  N   N139      1.0  0.4675599999999998  0.95416  0.17942  1.0000
  N   N140      1.0  0.54341  0.9621699999999999  0.21279  1.0000
  N   N141      1.0  0.32961  0.11598999999999998  0.04743  1.0000
  N   N142      1.0  0.36690999999999996  0.10750000000000001  0.94119  1.0000
  N   N143      1.0  0.39884  0.17933  0.95406  1.0000
  N   N144      1.0  0.28165  0.21274  0.96219  1.0000
  N   N145      1.0  0.95255  0.88399  0.67041  1.0000
  N   N146      1.0  0.058820000000000025  0.8925  0.63306  1.0000
  N   N147      1.0  0.045889999999999966  0.82071  0.60117  1.0000
  N   N148      1.0  0.03777999999999999  0.78728  0.71836  1.0000
  N   N149      1.0  0.8837600000000001  0.9523799999999999  0.49335  1.0000
  N   N150      1.0  0.89244  0.05879999999999999  0.41556  1.0000
  N   N151      1.0  0.8206099999999998  0.0458  0.53244  1.0000
  N   N152      1.0  0.7872100000000001  0.037840000000000006  0.45658  1.0000
  N   N153      1.0  0.6704600000000003  0.49314999999999987  0.95254  1.0000
  N   N154      1.0  0.63336  0.41538  0.05875  1.0000
  N   N155      1.0  0.6012000000000002  0.53238  0.04571999999999999  1.0000
  N   N156      1.0  0.71841  0.45643  0.037759999999999995  1.0000
  N   N157      1.0  0.49304000000000014  0.67044  0.88407  1.0000
  N   N158      1.0  0.41538999999999987  0.63334  0.89267  1.0000
  N   N159      1.0  0.53246  0.60131  0.82081  1.0000
  N   N160      1.0  0.45651000000000014  0.71866  0.78757  1.0000
  N   N161      1.0  0.6703899999999999  0.9525800000000001  0.88401  1.0000
  N   N162      1.0  0.63308  0.05880999999999996  0.8925  1.0000
  N   N163      1.0  0.6011499999999999  0.04594999999999999  0.82068  1.0000
  N   N164      1.0  0.71834  0.037820000000000034  0.78727  1.0000
  N   N165      1.0  0.49332000000000015  0.88381  0.9523999999999999  1.0000
  N   N166      1.0  0.4155600000000001  0.8924299999999997  0.05878999999999999  1.0000
  N   N167      1.0  0.53243  0.82058  0.04584  1.0000
  N   N168      1.0  0.45658  0.78721  0.03783  1.0000
  N   N169      1.0  0.9525600000000001  0.67043  0.4931  1.0000
  N   N170      1.0  0.05873999999999999  0.63341  0.41534  1.0000
  N   N171      1.0  0.04573  0.6012  0.53238  1.0000
  N   N172      1.0  0.037719999999999934  0.71842  0.45644  1.0000
  N   N173      1.0  0.88407  0.49304  0.67041  1.0000
  N   N174      1.0  0.89268  0.41536000000000006  0.6333999999999999  1.0000
  N   N175      1.0  0.8207900000000004  0.53248  0.60129  1.0000
  N   N176      1.0  0.7875700000000001  0.45650999999999997  0.71865  1.0000
  N   N177      1.0  0.88397  0.67039  0.95258  1.0000
  N   N178      1.0  0.8925100000000001  0.6330799999999999  0.05881999999999999  1.0000
  N   N179      1.0  0.8206999999999999  0.6011500000000002  0.04592  1.0000
  N   N180      1.0  0.7872800000000001  0.71833  0.03781  1.0000
  N   N181      1.0  0.9523900000000003  0.4933600000000001  0.88377  1.0000
  N   N182      1.0  0.05880000000000004  0.41553999999999996  0.89243  1.0000
  N   N183      1.0  0.045799999999999806  0.5324500000000002  0.82061  1.0000
  N   N184      1.0  0.03780000000000002  0.4566  0.78722  1.0000
  N   N185      1.0  0.49313000000000007  0.95257  0.67043  1.0000
  N   N186      1.0  0.41536  0.05876000000000001  0.63338  1.0000
  N   N187      1.0  0.5323699999999998  0.04575000000000001  0.60121  1.0000
  N   N188      1.0  0.45643000000000006  0.03775000000000001  0.71842  1.0000
  N   N189      1.0  0.6704100000000001  0.88405  0.49307  1.0000
  N   N190      1.0  0.6333699999999999  0.89268  0.41536  1.0000
  N   N191      1.0  0.6012900000000001  0.8208  0.53247  1.0000
  N   N192      1.0  0.7186499999999999  0.78758  0.4565  1.0000
