data_image0
_chemical_formula_structural       Cu48H288C480O192
_chemical_formula_sum              "Cu48 H288 C480 O192"
_cell_length_a       26.57294
_cell_length_b       26.573519999999995
_cell_length_c       46.19809999999999
_cell_angle_alpha    73.21588
_cell_angle_beta     73.21911
_cell_angle_gamma    59.9535

_space_group_name_H-M_alt    "P 1"
_space_group_IT_number       1

loop_
  _space_group_symop_operation_xyz
  'x, y, z'

loop_
  _atom_site_type_symbol
  _atom_site_label
  _atom_site_symmetry_multiplicity
  _atom_site_fract_x
  _atom_site_fract_y
  _atom_site_fract_z
  _atom_site_occupancy
  Cu  Cu1       1.0  0.24541999999999997  0.6865299999999998  0.9082000000000002  1.0000
  Cu  Cu2       1.0  0.14713000000000015  0.7071799999999998  0.90338  1.0000
  Cu  Cu3       1.0  0.9525099999999999  0.4591699999999999  0.16092  1.0000
  Cu  Cu4       1.0  0.90614  0.50624  0.11537000000000001  1.0000
  Cu  Cu5       1.0  0.6866400000000001  0.15932999999999997  0.90825  1.0000
  Cu  Cu6       1.0  0.7069899999999999  0.24205999999999983  0.9032800000000001  1.0000
  Cu  Cu7       1.0  0.45919999999999994  0.4271499999999999  0.16089  1.0000
  Cu  Cu8       1.0  0.50611  0.4724  0.11536000000000003  1.0000
  Cu  Cu9       1.0  0.15948999999999994  0.24542999999999995  0.90821  1.0000
  Cu  Cu10      1.0  0.24230000000000002  0.14707999999999996  0.9033900000000001  1.0000
  Cu  Cu11      1.0  0.42722999999999983  0.9526  0.16079  1.0000
  Cu  Cu12      1.0  0.47253000000000017  0.9061599999999997  0.1153  1.0000
  Cu  Cu13      1.0  0.18652000000000005  0.7458099999999998  0.40785000000000005  1.0000
  Cu  Cu14      1.0  0.20732000000000003  0.6474799999999998  0.40306  1.0000
  Cu  Cu15      1.0  0.9590399999999999  0.4524699999999999  0.66089  1.0000
  Cu  Cu16      1.0  0.005950000000000064  0.4064099999999999  0.61517  1.0000
  Cu  Cu17      1.0  0.65928  0.18664999999999998  0.40791  1.0000
  Cu  Cu18      1.0  0.7420300000000001  0.20710999999999996  0.40292  1.0000
  Cu  Cu19      1.0  0.9272200000000003  0.9590599999999998  0.6609200000000001  1.0000
  Cu  Cu20      1.0  0.9724499999999999  0.005889999999999971  0.6152500000000001  1.0000
  Cu  Cu21      1.0  0.7460700000000001  0.6595799999999999  0.40785000000000005  1.0000
  Cu  Cu22      1.0  0.6476499999999995  0.7422399999999998  0.40297000000000005  1.0000
  Cu  Cu23      1.0  0.45256  0.92719  0.6610000000000001  1.0000
  Cu  Cu24      1.0  0.40633000000000014  0.9725999999999998  0.61535  1.0000
  Cu  Cu25      1.0  0.8134800000000001  0.2542  0.59215  1.0000
  Cu  Cu26      1.0  0.79268  0.35252999999999995  0.59694  1.0000
  Cu  Cu27      1.0  0.04096000000000007  0.54754  0.33911  1.0000
  Cu  Cu28      1.0  0.99405  0.5935999999999999  0.38483  1.0000
  Cu  Cu29      1.0  0.34072999999999976  0.81336  0.59209  1.0000
  Cu  Cu30      1.0  0.25797000000000003  0.7928999999999998  0.59708  1.0000
  Cu  Cu31      1.0  0.07277999999999998  0.040949999999999986  0.33908  1.0000
  Cu  Cu32      1.0  0.027549999999999956  0.9941199999999999  0.38475000000000004  1.0000
  Cu  Cu33      1.0  0.2539300000000001  0.34042999999999995  0.59215  1.0000
  Cu  Cu34      1.0  0.35235  0.25777000000000005  0.59703  1.0000
  Cu  Cu35      1.0  0.54744  0.07281999999999998  0.339  1.0000
  Cu  Cu36      1.0  0.5936699999999998  0.027409999999999983  0.38465  1.0000
  Cu  Cu37      1.0  0.75458  0.3134799999999999  0.0918  1.0000
  Cu  Cu38      1.0  0.85287  0.29283  0.09662000000000001  1.0000
  Cu  Cu39      1.0  0.0474899999999999  0.54084  0.8390800000000002  1.0000
  Cu  Cu40      1.0  0.09385999999999996  0.49376999999999993  0.8846300000000001  1.0000
  Cu  Cu41      1.0  0.31335999999999986  0.8406799999999999  0.09175  1.0000
  Cu  Cu42      1.0  0.29301000000000005  0.7579499999999998  0.09672000000000001  1.0000
  Cu  Cu43      1.0  0.5407999999999996  0.57286  0.83911  1.0000
  Cu  Cu44      1.0  0.49388999999999983  0.52761  0.88464  1.0000
  Cu  Cu45      1.0  0.84052  0.7545799999999999  0.09179  1.0000
  Cu  Cu46      1.0  0.7577000000000002  0.8529299999999997  0.09661  1.0000
  Cu  Cu47      1.0  0.5727699999999998  0.04740999999999993  0.8392100000000001  1.0000
  Cu  Cu48      1.0  0.52747  0.09384999999999995  0.8847000000000003  1.0000
  H   H1        1.0  0.22585999999999992  0.5207399999999998  0.8897400000000002  1.0000
  H   H2        1.0  0.12062000000000006  0.6319299999999999  0.00337  1.0000
  H   H3        1.0  0.2709700000000001  0.7668599999999998  0.80951  1.0000
  H   H4        1.0  0.16679999999999995  0.87131  0.9236300000000001  1.0000
  H   H5        1.0  0.34786999999999985  0.51247  0.8856300000000001  1.0000
  H   H6        1.0  0.24418999999999996  0.61365  0.00423  1.0000
  H   H7        1.0  0.1498899999999999  0.78092  0.80708  1.0000
  H   H8        1.0  0.04735000000000009  0.8885199999999998  0.9162600000000001  1.0000
  H   H9        1.0  0.4313699999999999  0.4212000000000001  0.88253  1.0000
  H   H10       1.0  0.11379999999999997  0.58498  0.05016  1.0000
  H   H11       1.0  0.2818300000000001  0.5713799999999999  0.049790000000000015  1.0000
  H   H12       1.0  0.2787899999999999  0.8143699999999999  0.76273  1.0000
  H   H13       1.0  0.11275999999999994  0.82464  0.76095  1.0000
  H   H14       1.0  0.13431000000000015  0.9649599999999998  0.9198500000000001  1.0000
  H   H15       1.0  0.10320999999999997  0.50041  0.13201000000000002  1.0000
  H   H16       1.0  0.19440000000000002  0.49770999999999993  0.13091000000000003  1.0000
  H   H17       1.0  0.2903099999999999  0.48406  0.13147000000000003  1.0000
  H   H18       1.0  0.32499  0.8635299999999998  0.7202000000000001  1.0000
  H   H19       1.0  0.20200999999999986  0.89818  0.68094  1.0000
  H   H20       1.0  0.06716000000000012  0.8712299999999997  0.71663  1.0000
  H   H21       1.0  0.04415000000000002  0.5658499999999999  0.0747  1.0000
  H   H22       1.0  0.34572  0.54818  0.07569000000000001  1.0000
  H   H23       1.0  0.28534  0.89289  0.65832  1.0000
  H   H24       1.0  0.12583000000000014  0.9340999999999998  0.66211  1.0000
  H   H25       1.0  0.5205799999999998  0.36329999999999985  0.8897000000000003  1.0000
  H   H26       1.0  0.63199  0.24413  0.0032700000000000003  1.0000
  H   H27       1.0  0.7668199999999996  0.15244999999999995  0.80944  1.0000
  H   H28       1.0  0.8714899999999997  0.03826999999999993  0.9236600000000001  1.0000
  H   H29       1.0  0.51248  0.25353  0.8856900000000001  1.0000
  H   H30       1.0  0.6136599999999998  0.1379  0.00443  1.0000
  H   H31       1.0  0.7808699999999995  0.2619199999999999  0.8070100000000001  1.0000
  H   H32       1.0  0.8883799999999998  0.14811  0.91623  1.0000
  H   H33       1.0  0.42117999999999994  0.26443  0.8826  1.0000
  H   H34       1.0  0.58498  0.25127999999999995  0.050140000000000004  1.0000
  H   H35       1.0  0.57126  0.09727  0.049890000000000004  1.0000
  H   H36       1.0  0.8143100000000001  0.14389999999999997  0.76277  1.0000
  H   H37       1.0  0.8247599999999996  0.30144  0.76081  1.0000
  H   H38       1.0  0.96507  0.9809499999999999  0.9198700000000001  1.0000
  H   H39       1.0  0.50063  0.26452  0.132  1.0000
  H   H40       1.0  0.49765  0.1772  0.13095  1.0000
  H   H41       1.0  0.48404999999999987  0.09413  0.13159  1.0000
  H   H42       1.0  0.8635999999999997  0.09096999999999997  0.72018  1.0000
  H   H43       1.0  0.89815  0.21870000000000003  0.68091  1.0000
  H   H44       1.0  0.8713399999999993  0.34475000000000006  0.71642  1.0000
  H   H45       1.0  0.5659199999999999  0.31551999999999997  0.07458  1.0000
  H   H46       1.0  0.54822  0.030649999999999997  0.07575000000000001  1.0000
  H   H47       1.0  0.8931999999999999  0.16330999999999996  0.6583100000000001  1.0000
  H   H48       1.0  0.9341199999999998  0.27785999999999994  0.66191  1.0000
  H   H49       1.0  0.36323000000000005  0.22599999999999998  0.88972  1.0000
  H   H50       1.0  0.24391999999999997  0.12059999999999998  0.00326  1.0000
  H   H51       1.0  0.15268000000000004  0.27087999999999995  0.80954  1.0000
  H   H52       1.0  0.03823000000000001  0.1667899999999999  0.9236500000000001  1.0000
  H   H53       1.0  0.25350000000000006  0.3480999999999999  0.8856700000000001  1.0000
  H   H54       1.0  0.13765999999999998  0.24423999999999998  0.00426  1.0000
  H   H55       1.0  0.2622999999999999  0.1497699999999999  0.8070100000000001  1.0000
  H   H56       1.0  0.14802000000000004  0.04730999999999998  0.91625  1.0000
  H   H57       1.0  0.26437000000000005  0.43150999999999995  0.88258  1.0000
  H   H58       1.0  0.25112  0.11372  0.04999  1.0000
  H   H59       1.0  0.09701000000000003  0.28189999999999993  0.04974  1.0000
  H   H60       1.0  0.14403000000000007  0.2789299999999999  0.76284  1.0000
  H   H61       1.0  0.30169999999999997  0.11274000000000003  0.7609  1.0000
  H   H62       1.0  0.9809300000000001  0.13426  0.91986  1.0000
  H   H63       1.0  0.26464999999999994  0.10285999999999998  0.13173  1.0000
  H   H64       1.0  0.17707999999999988  0.19421  0.13078000000000004  1.0000
  H   H65       1.0  0.09403999999999997  0.29028  0.13139  1.0000
  H   H66       1.0  0.09098999999999995  0.32526  0.7203  1.0000
  H   H67       1.0  0.21877000000000005  0.20218999999999998  0.68101  1.0000
  H   H68       1.0  0.34484999999999993  0.06713  0.71663  1.0000
  H   H69       1.0  0.31552  0.044129999999999996  0.07434  1.0000
  H   H70       1.0  0.03050000000000005  0.3457199999999999  0.07557  1.0000
  H   H71       1.0  0.16323999999999977  0.2852  0.65845  1.0000
  H   H72       1.0  0.27758999999999995  0.12601999999999997  0.6622400000000002  1.0000
  H   H73       1.0  0.020669999999999966  0.72591  0.38985  1.0000
  H   H74       1.0  0.13251000000000004  0.62077  0.50294  1.0000
  H   H75       1.0  0.26693000000000006  0.7709599999999998  0.30919  1.0000
  H   H76       1.0  0.37134999999999974  0.6671599999999999  0.42326000000000014  1.0000
  H   H77       1.0  0.01260999999999994  0.8479499999999999  0.38545  1.0000
  H   H78       1.0  0.11356999999999998  0.7444599999999999  0.5040500000000001  1.0000
  H   H79       1.0  0.28106000000000003  0.6497199999999999  0.3069700000000001  1.0000
  H   H80       1.0  0.3885799999999999  0.54748  0.41622000000000003  1.0000
  H   H81       1.0  0.9213200000000001  0.9314499999999999  0.38245  1.0000
  H   H82       1.0  0.08520000000000003  0.6137899999999998  0.54991  1.0000
  H   H83       1.0  0.07142999999999983  0.7818600000000001  0.54961  1.0000
  H   H84       1.0  0.3144499999999999  0.77871  0.26263  1.0000
  H   H85       1.0  0.32490999999999975  0.61257  0.26084  1.0000
  H   H86       1.0  0.46505000000000013  0.6343999999999997  0.41986  1.0000
  H   H87       1.0  0.0006399999999999275  0.6030799999999998  0.6317700000000002  1.0000
  H   H88       1.0  0.9980299999999999  0.69417  0.63073  1.0000
  H   H89       1.0  0.98422  0.79027  0.6313  1.0000
  H   H90       1.0  0.3634799999999999  0.8250299999999998  0.22004  1.0000
  H   H91       1.0  0.3982399999999999  0.7019399999999999  0.18084  1.0000
  H   H92       1.0  0.37142000000000003  0.5670099999999999  0.21665  1.0000
  H   H93       1.0  0.06572000000000013  0.5439099999999998  0.57454  1.0000
  H   H94       1.0  0.048420000000000026  0.8455199999999998  0.57548  1.0000
  H   H95       1.0  0.39303999999999994  0.7849999999999998  0.15827000000000002  1.0000
  H   H96       1.0  0.43405000000000005  0.6257799999999999  0.16198  1.0000
  H   H97       1.0  0.8633299999999998  0.020569999999999995  0.3898  1.0000
  H   H98       1.0  0.7440199999999997  0.1326099999999999  0.5028100000000001  1.0000
  H   H99       1.0  0.6525199999999998  0.26689  0.30918  1.0000
  H   H100      1.0  0.53826  0.3716499999999999  0.42330000000000007  1.0000
  H   H101      1.0  0.7536799999999999  0.01258999999999997  0.38550000000000006  1.0000
  H   H102      1.0  0.6381599999999998  0.11353999999999995  0.50414  1.0000
  H   H103      1.0  0.76195  0.28092  0.30696  1.0000
  H   H104      1.0  0.64807  0.3884099999999999  0.41618000000000005  1.0000
  H   H105      1.0  0.7645500000000002  0.9213099999999997  0.38250000000000006  1.0000
  H   H106      1.0  0.7514199999999996  0.08519999999999994  0.5498700000000001  1.0000
  H   H107      1.0  0.5974099999999999  0.07144  0.54962  1.0000
  H   H108      1.0  0.6439200000000002  0.31441  0.26267  1.0000
  H   H109      1.0  0.8014299999999998  0.32486  0.2608  1.0000
  H   H110      1.0  0.48088  0.46522  0.41989  1.0000
  H   H111      1.0  0.7644599999999998  0.0008699999999999983  0.63179  1.0000
  H   H112      1.0  0.6772899999999998  0.9979799999999999  0.6307100000000001  1.0000
  H   H113      1.0  0.5943999999999999  0.9842  0.6314  1.0000
  H   H114      1.0  0.5912000000000001  0.3635299999999999  0.22005  1.0000
  H   H115      1.0  0.7188899999999999  0.3981699999999999  0.18083000000000002  1.0000
  H   H116      1.0  0.8446799999999998  0.37144999999999995  0.21658000000000002  1.0000
  H   H117      1.0  0.8161300000000001  0.06574999999999993  0.57454  1.0000
  H   H118      1.0  0.5306399999999999  0.04839999999999994  0.5756400000000002  1.0000
  H   H119      1.0  0.6636899999999998  0.39319  0.15828  1.0000
  H   H120      1.0  0.77805  0.43411  0.16194  1.0000
  H   H121      1.0  0.7260399999999995  0.86341  0.38979  1.0000
  H   H122      1.0  0.62069  0.7439199999999999  0.5028100000000001  1.0000
  H   H123      1.0  0.7710500000000001  0.6528799999999999  0.30924  1.0000
  H   H124      1.0  0.6671199999999997  0.5384  0.42326000000000014  1.0000
  H   H125      1.0  0.84815  0.7537199999999997  0.38545  1.0000
  H   H126      1.0  0.7444299999999996  0.6379299999999999  0.50403  1.0000
  H   H127      1.0  0.6497399999999999  0.7624  0.30694  1.0000
  H   H128      1.0  0.5474199999999999  0.6480800000000001  0.4162  1.0000
  H   H129      1.0  0.93156  0.76447  0.38249000000000005  1.0000
  H   H130      1.0  0.6135800000000001  0.7513099999999998  0.54977  1.0000
  H   H131      1.0  0.7817799999999999  0.5971799999999999  0.54952  1.0000
  H   H132      1.0  0.77884  0.6441299999999999  0.26275  1.0000
  H   H133      1.0  0.6125499999999997  0.8017299999999999  0.26084  1.0000
  H   H134      1.0  0.63431  0.4809099999999999  0.41986  1.0000
  H   H135      1.0  0.6029399999999999  0.7645299999999998  0.6316  1.0000
  H   H136      1.0  0.6939899999999996  0.67719  0.63058  1.0000
  H   H137      1.0  0.79023  0.59416  0.63119  1.0000
  H   H138      1.0  0.82521  0.59118  0.22014000000000003  1.0000
  H   H139      1.0  0.70205  0.71893  0.18094  1.0000
  H   H140      1.0  0.5669099999999999  0.84484  0.21664000000000003  1.0000
  H   H141      1.0  0.5435400000000001  0.8162999999999999  0.57444  1.0000
  H   H142      1.0  0.8455500000000001  0.53069  0.57534  1.0000
  H   H143      1.0  0.78474  0.66381  0.15843000000000002  1.0000
  H   H144      1.0  0.6259299999999998  0.7779099999999999  0.16211  1.0000
  H   H145      1.0  0.9793400000000001  0.27409999999999995  0.61015  1.0000
  H   H146      1.0  0.8675  0.3792399999999999  0.49706000000000006  1.0000
  H   H147      1.0  0.7330799999999998  0.22904999999999995  0.6908100000000001  1.0000
  H   H148      1.0  0.6286499999999998  0.3328499999999999  0.57674  1.0000
  H   H149      1.0  0.9873899999999998  0.15206000000000003  0.61455  1.0000
  H   H150      1.0  0.8864300000000002  0.25554999999999994  0.49595  1.0000
  H   H151      1.0  0.7189400000000002  0.35028999999999977  0.69303  1.0000
  H   H152      1.0  0.61142  0.45253  0.58378  1.0000
  H   H153      1.0  0.07868000000000003  0.06855999999999998  0.61755  1.0000
  H   H154      1.0  0.9148000000000001  0.3862199999999999  0.45009  1.0000
  H   H155      1.0  0.92857  0.21815000000000004  0.45039000000000007  1.0000
  H   H156      1.0  0.6855600000000001  0.22129999999999997  0.73737  1.0000
  H   H157      1.0  0.6750899999999999  0.3874399999999998  0.73916  1.0000
  H   H158      1.0  0.5349500000000001  0.3656099999999999  0.58014  1.0000
  H   H159      1.0  0.99936  0.39693000000000006  0.36823  1.0000
  H   H160      1.0  0.001980000000000014  0.3058399999999999  0.36927000000000004  1.0000
  H   H161      1.0  0.01579000000000005  0.20973999999999998  0.3687  1.0000
  H   H162      1.0  0.6365199999999998  0.17497999999999994  0.7799600000000001  1.0000
  H   H163      1.0  0.6017599999999997  0.29807  0.8191600000000001  1.0000
  H   H164      1.0  0.62858  0.433  0.7833500000000001  1.0000
  H   H165      1.0  0.9342899999999995  0.45609999999999995  0.42546  1.0000
  H   H166      1.0  0.9515799999999999  0.15448999999999996  0.4245200000000001  1.0000
  H   H167      1.0  0.6069699999999997  0.21500999999999995  0.8417300000000001  1.0000
  H   H168      1.0  0.56595  0.37423  0.83802  1.0000
  H   H169      1.0  0.13667000000000004  0.97944  0.6102  1.0000
  H   H170      1.0  0.25598000000000004  0.8674  0.49719  1.0000
  H   H171      1.0  0.3474800000000001  0.7331199999999998  0.69082  1.0000
  H   H172      1.0  0.46173999999999993  0.62836  0.5767  1.0000
  H   H173      1.0  0.24632999999999994  0.9874200000000001  0.6145  1.0000
  H   H174      1.0  0.36184999999999995  0.88647  0.49586  1.0000
  H   H175      1.0  0.23804999999999998  0.71909  0.69304  1.0000
  H   H176      1.0  0.35193000000000035  0.6115999999999998  0.58382  1.0000
  H   H177      1.0  0.23545999999999995  0.0787  0.6175  1.0000
  H   H178      1.0  0.24858  0.91481  0.45013000000000003  1.0000
  H   H179      1.0  0.40259000000000006  0.9285699999999999  0.45038000000000006  1.0000
  H   H180      1.0  0.3560800000000001  0.6856  0.73733  1.0000
  H   H181      1.0  0.1985700000000001  0.67515  0.7392  1.0000
  H   H182      1.0  0.5191200000000001  0.53479  0.58011  1.0000
  H   H183      1.0  0.23553999999999997  0.9991399999999999  0.36821  1.0000
  H   H184      1.0  0.3227099999999999  0.0020299999999999897  0.36929  1.0000
  H   H185      1.0  0.40559999999999996  0.015809999999999994  0.3686  1.0000
  H   H186      1.0  0.40881  0.63648  0.77995  1.0000
  H   H187      1.0  0.28110999999999997  0.60184  0.81917  1.0000
  H   H188      1.0  0.15531999999999993  0.6285599999999999  0.7834200000000002  1.0000
  H   H189      1.0  0.1838800000000001  0.9342599999999999  0.42546  1.0000
  H   H190      1.0  0.4693600000000001  0.9516099999999997  0.42436  1.0000
  H   H191      1.0  0.3363100000000001  0.6068199999999998  0.84172  1.0000
  H   H192      1.0  0.2219499999999999  0.5659  0.8380600000000001  1.0000
  H   H193      1.0  0.27396000000000004  0.1365999999999999  0.6102100000000001  1.0000
  H   H194      1.0  0.3793099999999998  0.25609  0.49719  1.0000
  H   H195      1.0  0.2289500000000001  0.34713  0.69076  1.0000
  H   H196      1.0  0.3328799999999998  0.46161  0.57674  1.0000
  H   H197      1.0  0.15184999999999998  0.24629000000000004  0.61455  1.0000
  H   H198      1.0  0.2555700000000001  0.36208  0.49597  1.0000
  H   H199      1.0  0.35025999999999985  0.23760999999999985  0.69306  1.0000
  H   H200      1.0  0.4525799999999999  0.35193  0.5838000000000001  1.0000
  H   H201      1.0  0.06843999999999995  0.23554  0.61751  1.0000
  H   H202      1.0  0.38643000000000005  0.2486999999999999  0.4502300000000001  1.0000
  H   H203      1.0  0.21821999999999997  0.40283  0.4504800000000001  1.0000
  H   H204      1.0  0.22116000000000002  0.3558799999999999  0.73725  1.0000
  H   H205      1.0  0.38744999999999996  0.19828  0.73916  1.0000
  H   H206      1.0  0.36569  0.5191  0.58014  1.0000
  H   H207      1.0  0.39706  0.23547999999999997  0.36840000000000006  1.0000
  H   H208      1.0  0.30601  0.32282  0.36942  1.0000
  H   H209      1.0  0.20977000000000004  0.40584999999999993  0.36881  1.0000
  H   H210      1.0  0.1748000000000001  0.4088299999999998  0.77986  1.0000
  H   H211      1.0  0.2979500000000001  0.28107999999999994  0.81906  1.0000
  H   H212      1.0  0.4330899999999999  0.15516999999999997  0.78336  1.0000
  H   H213      1.0  0.45646  0.18370999999999996  0.42556000000000005  1.0000
  H   H214      1.0  0.15445000000000003  0.46931999999999996  0.4246600000000001  1.0000
  H   H215      1.0  0.2152599999999998  0.3362  0.84157  1.0000
  H   H216      1.0  0.37407  0.2221  0.83789  1.0000
  H   H217      1.0  0.77414  0.47926999999999986  0.11026000000000001  1.0000
  H   H218      1.0  0.87938  0.3680799999999999  0.99663  1.0000
  H   H219      1.0  0.7290299999999997  0.23314999999999994  0.19049  1.0000
  H   H220      1.0  0.8331999999999998  0.12869999999999998  0.07637  1.0000
  H   H221      1.0  0.65213  0.48754  0.11437000000000001  1.0000
  H   H222      1.0  0.75581  0.38636  0.99577  1.0000
  H   H223      1.0  0.8501099999999999  0.21909  0.19292000000000004  1.0000
  H   H224      1.0  0.9526599999999997  0.11148999999999999  0.08374  1.0000
  H   H225      1.0  0.5686299999999997  0.57881  0.11747  1.0000
  H   H226      1.0  0.8862099999999999  0.41503000000000007  0.94984  1.0000
  H   H227      1.0  0.7181700000000001  0.42862999999999996  0.95021  1.0000
  H   H228      1.0  0.7212199999999999  0.18563999999999994  0.23727000000000006  1.0000
  H   H229      1.0  0.88724  0.17537  0.23905  1.0000
  H   H230      1.0  0.8656899999999997  0.03504999999999999  0.08015  1.0000
  H   H231      1.0  0.8967900000000001  0.4996  0.86799  1.0000
  H   H232      1.0  0.8055999999999999  0.5023  0.86909  1.0000
  H   H233      1.0  0.70969  0.5159499999999998  0.86853  1.0000
  H   H234      1.0  0.6750099999999996  0.13647999999999993  0.2798  1.0000
  H   H235      1.0  0.7979899999999999  0.10182999999999999  0.31906  1.0000
  H   H236      1.0  0.9328499999999998  0.12877999999999995  0.28337  1.0000
  H   H237      1.0  0.9558499999999995  0.43416000000000005  0.9253  1.0000
  H   H238      1.0  0.6542900000000001  0.4518299999999998  0.9243100000000002  1.0000
  H   H239      1.0  0.7146599999999997  0.10711999999999999  0.34168  1.0000
  H   H240      1.0  0.87417  0.06590999999999997  0.33789  1.0000
  H   H241      1.0  0.4794300000000001  0.63671  0.1103  1.0000
  H   H242      1.0  0.3680199999999998  0.7558799999999999  0.9967300000000001  1.0000
  H   H243      1.0  0.23318000000000003  0.8475599999999998  0.19056000000000003  1.0000
  H   H244      1.0  0.12851999999999994  0.96174  0.07634  1.0000
  H   H245      1.0  0.48751999999999984  0.74648  0.11431000000000001  1.0000
  H   H246      1.0  0.38634999999999986  0.8621199999999999  0.99557  1.0000
  H   H247      1.0  0.2191300000000001  0.7380899999999998  0.19299000000000002  1.0000
  H   H248      1.0  0.11162000000000012  0.8518999999999998  0.08377  1.0000
  H   H249      1.0  0.5788200000000001  0.7355799999999998  0.11740000000000002  1.0000
  H   H250      1.0  0.4150199999999999  0.74873  0.9498600000000001  1.0000
  H   H251      1.0  0.42874000000000007  0.9027399999999999  0.95011  1.0000
  H   H252      1.0  0.1856899999999999  0.85611  0.23723000000000002  1.0000
  H   H253      1.0  0.17524000000000006  0.69857  0.23919  1.0000
  H   H254      1.0  0.03492999999999999  0.019059999999999997  0.08013  1.0000
  H   H255      1.0  0.4993699999999999  0.73549  0.868  1.0000
  H   H256      1.0  0.5023500000000002  0.8228099999999998  0.86905  1.0000
  H   H257      1.0  0.5159500000000001  0.9058799999999999  0.8684100000000001  1.0000
  H   H258      1.0  0.1364000000000001  0.9090399999999997  0.27982  1.0000
  H   H259      1.0  0.10186000000000006  0.78131  0.31909  1.0000
  H   H260      1.0  0.12865999999999997  0.65526  0.28358  1.0000
  H   H261      1.0  0.4340800000000001  0.6844899999999999  0.9254200000000001  1.0000
  H   H262      1.0  0.4517799999999998  0.96936  0.9242600000000001  1.0000
  H   H263      1.0  0.10679999999999995  0.8367  0.34169  1.0000
  H   H264      1.0  0.06588000000000013  0.7221499999999997  0.33809  1.0000
  H   H265      1.0  0.6367699999999998  0.77401  0.11028000000000002  1.0000
  H   H266      1.0  0.7560800000000001  0.87941  0.99674  1.0000
  H   H267      1.0  0.8473200000000001  0.7291299999999997  0.19046  1.0000
  H   H268      1.0  0.9617699999999997  0.83322  0.07635  1.0000
  H   H269      1.0  0.7465  0.65191  0.11433  1.0000
  H   H270      1.0  0.86234  0.7557699999999999  0.99574  1.0000
  H   H271      1.0  0.7376999999999998  0.85024  0.19299000000000002  1.0000
  H   H272      1.0  0.85199  0.9527  0.08375  1.0000
  H   H273      1.0  0.73564  0.5685  0.11742  1.0000
  H   H274      1.0  0.7488799999999999  0.8862899999999999  0.9500100000000001  1.0000
  H   H275      1.0  0.9029899999999997  0.7181100000000001  0.95026  1.0000
  H   H276      1.0  0.85598  0.7210799999999999  0.23716000000000004  1.0000
  H   H277      1.0  0.6983100000000002  0.8872699999999999  0.23911000000000002  1.0000
  H   H278      1.0  0.019070000000000083  0.8657499999999998  0.08014  1.0000
  H   H279      1.0  0.73535  0.89715  0.86827  1.0000
  H   H280      1.0  0.8229200000000001  0.8058  0.86922  1.0000
  H   H281      1.0  0.90596  0.70973  0.86861  1.0000
  H   H282      1.0  0.9090099999999997  0.6747499999999998  0.2797  1.0000
  H   H283      1.0  0.7812300000000002  0.7978199999999999  0.31899  1.0000
  H   H284      1.0  0.6551500000000002  0.9328799999999999  0.28337  1.0000
  H   H285      1.0  0.6844799999999999  0.95588  0.9256600000000001  1.0000
  H   H286      1.0  0.9695099999999999  0.6542900000000001  0.92443  1.0000
  H   H287      1.0  0.8367699999999996  0.71481  0.34155  1.0000
  H   H288      1.0  0.72242  0.8739899999999999  0.33776  1.0000
  C   C1        1.0  0.23639000000000002  0.5935899999999998  0.8946700000000001  1.0000
  C   C2        1.0  0.17540999999999998  0.6569400000000001  0.96298  1.0000
  C   C3        1.0  0.2175900000000002  0.7378599999999997  0.84883  1.0000
  C   C4        1.0  0.15544  0.80066  0.91645  1.0000
  C   C5        1.0  0.25938  0.53302  0.8895400000000001  1.0000
  C   C6        1.0  0.16327999999999995  0.63212  0.99574  1.0000
  C   C7        1.0  0.22918000000000005  0.7648999999999998  0.81654  1.0000
  C   C8        1.0  0.13370000000000004  0.8617299999999999  0.92043  1.0000
  C   C9        1.0  0.31783000000000006  0.49572  0.88555  1.0000
  C   C10       1.0  0.20305999999999988  0.61062  0.014370000000000003  1.0000
  C   C11       1.0  0.19011999999999976  0.78588  0.7975700000000001  1.0000
  C   C12       1.0  0.07729000000000012  0.9028499999999998  0.91915  1.0000
  C   C13       1.0  0.3448799999999999  0.4337399999999998  0.8827000000000003  1.0000
  C   C14       1.0  0.19780999999999999  0.58228  0.04656  1.0000
  C   C15       1.0  0.19561999999999993  0.8151399999999999  0.76565  1.0000
  C   C16       1.0  0.05225000000000004  0.9652199999999999  0.9206300000000001  1.0000
  C   C17       1.0  0.40577  0.39962  0.88242  1.0000
  C   C18       1.0  0.14955000000000002  0.5710799999999999  0.062180000000000006  1.0000
  C   C19       1.0  0.24425999999999995  0.56325  0.06212  1.0000
  C   C20       1.0  0.24352000000000004  0.82729  0.75053  1.0000
  C   C21       1.0  0.15040999999999996  0.83321  0.7493900000000001  1.0000
  C   C22       1.0  0.08691999999999991  0.9916  0.92062  1.0000
  C   C23       1.0  0.14756999999999998  0.54081  0.09259000000000002  1.0000
  C   C24       1.0  0.24377  0.53299  0.09263000000000002  1.0000
  C   C25       1.0  0.24674  0.8563799999999999  0.71988  1.0000
  C   C26       1.0  0.15174999999999994  0.86341  0.71885  1.0000
  C   C27       1.0  0.09921000000000009  0.5261699999999999  0.1089  1.0000
  C   C28       1.0  0.1951399999999999  0.52196  0.10745  1.0000
  C   C29       1.0  0.2926099999999999  0.51123  0.10883  1.0000
  C   C30       1.0  0.29692000000000024  0.8689499999999998  0.7052  1.0000
  C   C31       1.0  0.20041000000000017  0.8743699999999999  0.7044  1.0000
  C   C32       1.0  0.10159  0.88415  0.70384  1.0000
  C   C33       1.0  0.051350000000000076  0.5404599999999999  0.09755  1.0000
  C   C34       1.0  0.34031000000000006  0.52118  0.09791  1.0000
  C   C35       1.0  0.31014999999999987  0.8877800000000001  0.67491  1.0000
  C   C36       1.0  0.09376000000000008  0.91896  0.67607  1.0000
  C   C37       1.0  0.006110000000000012  0.52064  0.11396000000000002  1.0000
  C   C38       1.0  0.3903499999999999  0.49547  0.11419000000000001  1.0000
  C   C39       1.0  0.35679  0.9066800000000002  0.66157  1.0000
  C   C40       1.0  0.04115999999999994  0.94083  0.6624900000000001  1.0000
  C   C41       1.0  0.59347  0.27485  0.89468  1.0000
  C   C42       1.0  0.6573200000000002  0.20439999999999994  0.9629900000000001  1.0000
  C   C43       1.0  0.73777  0.19530999999999998  0.84881  1.0000
  C   C44       1.0  0.80078  0.12748000000000004  0.9163  1.0000
  C   C45       1.0  0.5329099999999998  0.31764999999999993  0.8895400000000001  1.0000
  C   C46       1.0  0.6322899999999999  0.20881999999999992  0.9957100000000001  1.0000
  C   C47       1.0  0.7648299999999998  0.18913999999999992  0.8165100000000002  1.0000
  C   C48       1.0  0.8618099999999997  0.08420999999999997  0.9204100000000001  1.0000
  C   C49       1.0  0.49565999999999977  0.30044999999999994  0.88558  1.0000
  C   C50       1.0  0.61064  0.17204  0.014420000000000004  1.0000
  C   C51       1.0  0.78582  0.22621999999999998  0.79754  1.0000
  C   C52       1.0  0.90282  0.10088999999999998  0.91914  1.0000
  C   C53       1.0  0.4336800000000001  0.3382599999999999  0.88271  1.0000
  C   C54       1.0  0.5821699999999999  0.17360999999999996  0.04659  1.0000
  C   C55       1.0  0.81513  0.22337  0.76562  1.0000
  C   C56       1.0  0.96521  0.062050000000000015  0.92064  1.0000
  C   C57       1.0  0.39959  0.31177  0.88246  1.0000
  C   C58       1.0  0.57099  0.21744  0.06217  1.0000
  C   C59       1.0  0.5631099999999999  0.13063999999999998  0.0622  1.0000
  C   C60       1.0  0.82727  0.17843999999999993  0.7505400000000001  1.0000
  C   C61       1.0  0.8332400000000002  0.26678999999999997  0.7493000000000001  1.0000
  C   C62       1.0  0.9916499999999999  0.0009499999999999977  0.92064  1.0000
  C   C63       1.0  0.5407500000000001  0.21925  0.09258  1.0000
  C   C64       1.0  0.5328599999999998  0.13084  0.09271  1.0000
  C   C65       1.0  0.85638  0.17674999999999993  0.7198900000000001  1.0000
  C   C66       1.0  0.8633900000000001  0.2658  0.71875  1.0000
  C   C67       1.0  0.5263099999999998  0.26586  0.10886  1.0000
  C   C68       1.0  0.5218499999999998  0.17568999999999996  0.10749  1.0000
  C   C69       1.0  0.5111899999999998  0.08744  0.10893  1.0000
  C   C70       1.0  0.8690499999999997  0.12869000000000003  0.7052  1.0000
  C   C71       1.0  0.8743399999999998  0.22060999999999997  0.70437  1.0000
  C   C72       1.0  0.8842099999999999  0.31017  0.70368  1.0000
  C   C73       1.0  0.5406799999999998  0.31073  0.09747  1.0000
  C   C74       1.0  0.52127  0.040699999999999986  0.09799  1.0000
  C   C75       1.0  0.8879999999999999  0.12701000000000004  0.67492  1.0000
  C   C76       1.0  0.91906  0.31095999999999996  0.67593  1.0000
  C   C77       1.0  0.52097  0.35925  0.11391000000000001  1.0000
  C   C78       1.0  0.49573999999999996  0.99988  0.11422000000000002  1.0000
  C   C79       1.0  0.90689  0.07485  0.66157  1.0000
  C   C80       1.0  0.9411499999999999  0.35514  0.66255  1.0000
  C   C81       1.0  0.27492  0.23656999999999997  0.8946500000000001  1.0000
  C   C82       1.0  0.20431999999999992  0.17551  0.96298  1.0000
  C   C83       1.0  0.1957199999999998  0.21754999999999994  0.84885  1.0000
  C   C84       1.0  0.1275299999999999  0.15518999999999997  0.9165000000000001  1.0000
  C   C85       1.0  0.31759999999999994  0.25956999999999997  0.8895400000000001  1.0000
  C   C86       1.0  0.2086399999999999  0.16328999999999988  0.9956900000000002  1.0000
  C   C87       1.0  0.18946000000000002  0.22908999999999993  0.81657  1.0000
  C   C88       1.0  0.08413999999999992  0.13360999999999992  0.9204600000000002  1.0000
  C   C89       1.0  0.3004  0.3180099999999999  0.88559  1.0000
  C   C90       1.0  0.17177999999999996  0.20308999999999996  0.014320000000000001  1.0000
  C   C91       1.0  0.22654000000000005  0.19005999999999995  0.7975700000000001  1.0000
  C   C92       1.0  0.10080000000000001  0.07721000000000003  0.91915  1.0000
  C   C93       1.0  0.3382299999999999  0.34498  0.88273  1.0000
  C   C94       1.0  0.17333000000000007  0.19778999999999994  0.04647000000000001  1.0000
  C   C95       1.0  0.22358999999999998  0.19567  0.7656700000000001  1.0000
  C   C96       1.0  0.06202999999999998  0.05217999999999998  0.92062  1.0000
  C   C97       1.0  0.3117  0.40587  0.8824500000000001  1.0000
  C   C98       1.0  0.21722  0.14947999999999997  0.06203  1.0000
  C   C99       1.0  0.13039999999999996  0.24426999999999993  0.06205000000000001  1.0000
  C   C100      1.0  0.17857999999999993  0.24363999999999997  0.7506100000000001  1.0000
  C   C101      1.0  0.26699999999999985  0.15044999999999992  0.7493700000000002  1.0000
  C   C102      1.0  0.0009300000000000263  0.08687999999999993  0.9206300000000001  1.0000
  C   C103      1.0  0.21913  0.14743999999999996  0.09242  1.0000
  C   C104      1.0  0.13068  0.24371999999999994  0.09254000000000001  1.0000
  C   C105      1.0  0.17685000000000003  0.24691000000000002  0.71997  1.0000
  C   C106      1.0  0.26594999999999996  0.15184999999999998  0.71885  1.0000
  C   C107      1.0  0.26593999999999995  0.09900999999999999  0.10861  1.0000
  C   C108      1.0  0.17556000000000002  0.19499999999999995  0.10733000000000001  1.0000
  C   C109      1.0  0.08730000000000003  0.29259  0.10875  1.0000
  C   C110      1.0  0.12869000000000003  0.2970999999999999  0.7053000000000001  1.0000
  C   C111      1.0  0.22072999999999998  0.20057999999999998  0.7044600000000001  1.0000
  C   C112      1.0  0.31027  0.10159999999999994  0.70385  1.0000
  C   C113      1.0  0.31093  0.05122999999999999  0.0972  1.0000
  C   C114      1.0  0.04054000000000006  0.3402799999999999  0.09782  1.0000
  C   C115      1.0  0.12693000000000002  0.31016999999999995  0.6750200000000001  1.0000
  C   C116      1.0  0.3108699999999999  0.09377999999999999  0.6761400000000001  1.0000
  C   C117      1.0  0.3594800000000001  0.005979999999999989  0.11369000000000001  1.0000
  C   C118      1.0  0.9997500000000001  0.39028  0.11414  1.0000
  C   C119      1.0  0.07477  0.35685  0.66165  1.0000
  C   C120      1.0  0.35508  0.04106000000000003  0.66263  1.0000
  C   C121      1.0  0.0937099999999999  0.7365999999999998  0.39435000000000003  1.0000
  C   C122      1.0  0.15701  0.67599  0.4626100000000001  1.0000
  C   C123      1.0  0.2378600000000001  0.7179399999999998  0.34859000000000007  1.0000
  C   C124      1.0  0.30086  0.65558  0.41602  1.0000
  C   C125      1.0  0.03301999999999994  0.75947  0.38948000000000005  1.0000
  C   C126      1.0  0.13238000000000016  0.6635699999999998  0.49538  1.0000
  C   C127      1.0  0.2649500000000002  0.7291799999999997  0.31631  1.0000
  C   C128      1.0  0.36184000000000016  0.63398  0.4201  1.0000
  C   C129      1.0  0.9957900000000001  0.8179199999999998  0.3854600000000001  1.0000
  C   C130      1.0  0.11075000000000003  0.7032099999999999  0.51411  1.0000
  C   C131      1.0  0.2859900000000001  0.6899699999999998  0.29743  1.0000
  C   C132      1.0  0.4028999999999999  0.57747  0.41906000000000004  1.0000
  C   C133      1.0  0.9338099999999998  0.8449699999999998  0.38266  1.0000
  C   C134      1.0  0.08249  0.6978  0.54633  1.0000
  C   C135      1.0  0.31525999999999993  0.6955  0.26554  1.0000
  C   C136      1.0  0.4652400000000001  0.55237  0.42064  1.0000
  C   C137      1.0  0.8997099999999999  0.90585  0.38238000000000005  1.0000
  C   C138      1.0  0.0712800000000001  0.64954  0.56193  1.0000
  C   C139      1.0  0.06340999999999995  0.74421  0.5619400000000001  1.0000
  C   C140      1.0  0.32737  0.7434400000000001  0.25043  1.0000
  C   C141      1.0  0.3333500000000001  0.6502899999999998  0.24928000000000003  1.0000
  C   C142      1.0  0.4916799999999998  0.587  0.42063  1.0000
  C   C143      1.0  0.040980000000000086  0.64752  0.59234  1.0000
  C   C144      1.0  0.03321000000000009  0.74366  0.59246  1.0000
  C   C145      1.0  0.35643000000000014  0.7466899999999997  0.21978  1.0000
  C   C146      1.0  0.36347999999999997  0.6517  0.21875000000000006  1.0000
  C   C147      1.0  0.026349999999999908  0.59918  0.60865  1.0000
  C   C148      1.0  0.022190000000000078  0.69501  0.60725  1.0000
  C   C149      1.0  0.011409999999999993  0.79254  0.60866  1.0000
  C   C150      1.0  0.36895000000000006  0.7968899999999999  0.20508000000000007  1.0000
  C   C151      1.0  0.37439999999999996  0.7003799999999999  0.2043  1.0000
  C   C152      1.0  0.38423999999999997  0.6015  0.2038  1.0000
  C   C153      1.0  0.04057999999999994  0.55124  0.5974200000000001  1.0000
  C   C154      1.0  0.02133000000000007  0.8402599999999998  0.59769  1.0000
  C   C155      1.0  0.38778  0.8100299999999999  0.17479  1.0000
  C   C156      1.0  0.4189900000000001  0.5936899999999999  0.17603  1.0000
  C   C157      1.0  0.02079000000000003  0.50606  0.61407  1.0000
  C   C158      1.0  0.9955199999999998  0.89048  0.61386  1.0000
  C   C159      1.0  0.40669  0.8566299999999998  0.16137  1.0000
  C   C160      1.0  0.4410400000000001  0.54092  0.1626  1.0000
  C   C161      1.0  0.775  0.09367  0.39426  1.0000
  C   C162      1.0  0.7045  0.15717  0.46255  1.0000
  C   C163      1.0  0.69508  0.23779999999999998  0.34861  1.0000
  C   C164      1.0  0.6275199999999999  0.30093  0.41601  1.0000
  C   C165      1.0  0.8177499999999999  0.03294  0.38946  1.0000
  C   C166      1.0  0.70886  0.13250999999999996  0.49531000000000003  1.0000
  C   C167      1.0  0.68914  0.26489  0.31632  1.0000
  C   C168      1.0  0.5842  0.3619599999999999  0.42012  1.0000
  C   C169      1.0  0.8005599999999999  0.99572  0.3854800000000001  1.0000
  C   C170      1.0  0.67221  0.11076999999999998  0.5141  1.0000
  C   C171      1.0  0.7262800000000001  0.28588  0.29744  1.0000
  C   C172      1.0  0.6008499999999998  0.4028899999999999  0.4190500000000001  1.0000
  C   C173      1.0  0.8383699999999998  0.9337599999999998  0.38267  1.0000
  C   C174      1.0  0.67372  0.08244000000000001  0.54631  1.0000
  C   C175      1.0  0.7234199999999997  0.31519  0.26555  1.0000
  C   C176      1.0  0.56205  0.46527  0.42063  1.0000
  C   C177      1.0  0.8118699999999999  0.89969  0.3824  1.0000
  C   C178      1.0  0.7175499999999998  0.07126000000000002  0.56189  1.0000
  C   C179      1.0  0.63075  0.06333999999999997  0.5619400000000001  1.0000
  C   C180      1.0  0.67851  0.32731  0.25046  1.0000
  C   C181      1.0  0.76684  0.3332800000000001  0.24927000000000002  1.0000
  C   C182      1.0  0.5009399999999996  0.4917599999999999  0.4206500000000001  1.0000
  C   C183      1.0  0.7193399999999996  0.04099999999999998  0.59231  1.0000
  C   C184      1.0  0.6308999999999999  0.03310999999999995  0.5924700000000002  1.0000
  C   C185      1.0  0.6769  0.3563899999999999  0.21981000000000006  1.0000
  C   C186      1.0  0.7658800000000001  0.3633999999999999  0.21873  1.0000
  C   C187      1.0  0.76588  0.026479999999999955  0.6086400000000001  1.0000
  C   C188      1.0  0.67576  0.02214  0.60723  1.0000
  C   C189      1.0  0.5875299999999999  0.011359999999999992  0.6087600000000001  1.0000
  C   C190      1.0  0.6288999999999999  0.36901  0.20510000000000003  1.0000
  C   C191      1.0  0.72077  0.37434  0.2043  1.0000
  C   C192      1.0  0.81023  0.38424999999999987  0.20376  1.0000
  C   C193      1.0  0.81086  0.04067999999999999  0.59743  1.0000
  C   C194      1.0  0.54074  0.021399999999999975  0.5978700000000001  1.0000
  C   C195      1.0  0.62734  0.38794  0.17481  1.0000
  C   C196      1.0  0.8110599999999999  0.41909  0.17601  1.0000
  C   C197      1.0  0.85902  0.020940000000000007  0.61414  1.0000
  C   C198      1.0  0.49987000000000015  0.9958499999999998  0.614  1.0000
  C   C199      1.0  0.5753099999999998  0.40686  0.16136  1.0000
  C   C200      1.0  0.8551199999999999  0.4413099999999999  0.16265  1.0000
  C   C201      1.0  0.7369400000000002  0.77512  0.39418  1.0000
  C   C202      1.0  0.6759899999999995  0.7044299999999998  0.46254  1.0000
  C   C203      1.0  0.7180799999999999  0.69558  0.3486  1.0000
  C   C204      1.0  0.6554899999999998  0.62775  0.4160400000000001  1.0000
  C   C205      1.0  0.7596799999999999  0.81785  0.38942  1.0000
  C   C206      1.0  0.66348  0.70873  0.49529000000000006  1.0000
  C   C207      1.0  0.7292499999999998  0.6895599999999997  0.31634000000000007  1.0000
  C   C208      1.0  0.6338900000000001  0.5842999999999998  0.42011  1.0000
  C   C209      1.0  0.8181199999999995  0.80061  0.38545  1.0000
  C   C210      1.0  0.7031299999999996  0.67199  0.51403  1.0000
  C   C211      1.0  0.6900100000000001  0.72667  0.29746  1.0000
  C   C212      1.0  0.5773899999999996  0.60087  0.4190500000000001  1.0000
  C   C213      1.0  0.8450800000000002  0.8383599999999998  0.38267  1.0000
  C   C214      1.0  0.6976699999999996  0.67351  0.54622  1.0000
  C   C215      1.0  0.6955600000000002  0.7237099999999997  0.26559  1.0000
  C   C216      1.0  0.5522800000000001  0.5620799999999998  0.42062  1.0000
  C   C217      1.0  0.9059599999999999  0.8118  0.3824  1.0000
  C   C218      1.0  0.6493600000000002  0.7174  0.5618  1.0000
  C   C219      1.0  0.7441200000000001  0.6305499999999999  0.56183  1.0000
  C   C220      1.0  0.7435499999999998  0.67871  0.25053  1.0000
  C   C221      1.0  0.6502999999999999  0.7670899999999999  0.24931  1.0000
  C   C222      1.0  0.5869199999999999  0.50096  0.42063  1.0000
  C   C223      1.0  0.6473500000000001  0.7192599999999999  0.59219  1.0000
  C   C224      1.0  0.7435599999999999  0.63077  0.5923500000000002  1.0000
  C   C225      1.0  0.74679  0.67702  0.21991  1.0000
  C   C226      1.0  0.65172  0.7660599999999999  0.21879  1.0000
  C   C227      1.0  0.59901  0.7659299999999999  0.6084800000000001  1.0000
  C   C228      1.0  0.6948599999999999  0.6756499999999999  0.6071200000000001  1.0000
  C   C229      1.0  0.79247  0.58741  0.60855  1.0000
  C   C230      1.0  0.7969600000000001  0.62895  0.20521000000000006  1.0000
  C   C231      1.0  0.70047  0.7208799999999997  0.20439  1.0000
  C   C232      1.0  0.6014599999999999  0.8103599999999997  0.20382  1.0000
  C   C233      1.0  0.5510500000000002  0.8110099999999999  0.5973  1.0000
  C   C234      1.0  0.84019  0.5407100000000001  0.59759  1.0000
  C   C235      1.0  0.8098599999999995  0.6274299999999999  0.17493  1.0000
  C   C236      1.0  0.59369  0.81106  0.17608  1.0000
  C   C237      1.0  0.50604  0.85918  0.61408  1.0000
  C   C238      1.0  0.8904  0.49995999999999985  0.61378  1.0000
  C   C239      1.0  0.8564200000000002  0.5753799999999999  0.16146  1.0000
  C   C240      1.0  0.5409  0.8551499999999997  0.16261  1.0000
  C   C241      1.0  0.9062899999999999  0.26341  0.60565  1.0000
  C   C242      1.0  0.84299  0.32402  0.53739  1.0000
  C   C243      1.0  0.76214  0.28207  0.65141  1.0000
  C   C244      1.0  0.6991499999999997  0.3444299999999999  0.58398  1.0000
  C   C245      1.0  0.9669799999999996  0.24053999999999998  0.6105200000000001  1.0000
  C   C246      1.0  0.86762  0.3364399999999999  0.50462  1.0000
  C   C247      1.0  0.7350500000000001  0.27083  0.68369  1.0000
  C   C248      1.0  0.6381699999999999  0.3660299999999999  0.5799  1.0000
  C   C249      1.0  0.004210000000000023  0.18208999999999995  0.61454  1.0000
  C   C250      1.0  0.88925  0.29679999999999995  0.48589  1.0000
  C   C251      1.0  0.7140100000000001  0.31004  0.70257  1.0000
  C   C252      1.0  0.59711  0.42254  0.58094  1.0000
  C   C253      1.0  0.06618999999999992  0.15504999999999997  0.6173400000000001  1.0000
  C   C254      1.0  0.9175199999999996  0.3022099999999999  0.45367  1.0000
  C   C255      1.0  0.68474  0.3045099999999999  0.73446  1.0000
  C   C256      1.0  0.5347599999999999  0.4476399999999999  0.57936  1.0000
  C   C257      1.0  0.10029  0.09416  0.61762  1.0000
  C   C258      1.0  0.9287199999999997  0.3504699999999999  0.43807  1.0000
  C   C259      1.0  0.9365900000000001  0.2558  0.43806  1.0000
  C   C260      1.0  0.67263  0.25657  0.74957  1.0000
  C   C261      1.0  0.6666499999999999  0.34972  0.7507200000000002  1.0000
  C   C262      1.0  0.5083299999999998  0.41300999999999977  0.5793700000000002  1.0000
  C   C263      1.0  0.95902  0.3524899999999999  0.40766000000000013  1.0000
  C   C264      1.0  0.9667899999999999  0.25635  0.4075400000000001  1.0000
  C   C265      1.0  0.64357  0.2533199999999999  0.7802200000000001  1.0000
  C   C266      1.0  0.6365199999999999  0.34830999999999995  0.78125  1.0000
  C   C267      1.0  0.9736499999999998  0.40083  0.3913500000000001  1.0000
  C   C268      1.0  0.9778100000000001  0.3049999999999999  0.39275000000000004  1.0000
  C   C269      1.0  0.98859  0.20746999999999985  0.3913400000000001  1.0000
  C   C270      1.0  0.63105  0.20311999999999994  0.7949200000000002  1.0000
  C   C271      1.0  0.6255999999999998  0.29962999999999995  0.7957000000000001  1.0000
  C   C272      1.0  0.6157599999999999  0.3985099999999999  0.7962000000000001  1.0000
  C   C273      1.0  0.9594299999999999  0.44877  0.40258000000000005  1.0000
  C   C274      1.0  0.9786799999999998  0.15974999999999998  0.4023100000000001  1.0000
  C   C275      1.0  0.61222  0.18997999999999982  0.8252100000000002  1.0000
  C   C276      1.0  0.58101  0.40632  0.82397  1.0000
  C   C277      1.0  0.9792099999999998  0.49395  0.38593  1.0000
  C   C278      1.0  0.004489999999999965  0.10952999999999999  0.38614000000000004  1.0000
  C   C279      1.0  0.59331  0.14337999999999995  0.83863  1.0000
  C   C280      1.0  0.5589600000000002  0.4590899999999997  0.8374  1.0000
  C   C281      1.0  0.2250000000000002  0.9063399999999998  0.60574  1.0000
  C   C282      1.0  0.29549999999999993  0.8428400000000001  0.53745  1.0000
  C   C283      1.0  0.3049200000000001  0.76221  0.6513900000000001  1.0000
  C   C284      1.0  0.37248  0.6990799999999999  0.58399  1.0000
  C   C285      1.0  0.18224999999999994  0.9670699999999999  0.61054  1.0000
  C   C286      1.0  0.29113999999999984  0.8675  0.5046900000000001  1.0000
  C   C287      1.0  0.31086  0.73512  0.68368  1.0000
  C   C288      1.0  0.4158100000000001  0.6380499999999999  0.57988  1.0000
  C   C289      1.0  0.19943999999999998  0.004290000000000021  0.61452  1.0000
  C   C290      1.0  0.32779  0.88924  0.4859  1.0000
  C   C291      1.0  0.2737200000000002  0.7141299999999998  0.70256  1.0000
  C   C292      1.0  0.39916000000000007  0.5971199999999999  0.58095  1.0000
  C   C293      1.0  0.16164  0.06625  0.61733  1.0000
  C   C294      1.0  0.32628  0.9175699999999999  0.45369  1.0000
  C   C295      1.0  0.27658  0.68482  0.73445  1.0000
  C   C296      1.0  0.43794999999999995  0.5347399999999999  0.5793700000000002  1.0000
  C   C297      1.0  0.18813  0.10032000000000002  0.6176  1.0000
  C   C298      1.0  0.2824500000000002  0.9287499999999995  0.43811  1.0000
  C   C299      1.0  0.36926  0.9366699999999998  0.43806  1.0000
  C   C300      1.0  0.3215  0.6726999999999997  0.7495400000000001  1.0000
  C   C301      1.0  0.23317000000000007  0.66673  0.75073  1.0000
  C   C302      1.0  0.49906  0.5082499999999999  0.57935  1.0000
  C   C303      1.0  0.28066000000000013  0.9590099999999998  0.40769000000000005  1.0000
  C   C304      1.0  0.36911  0.9669  0.40753  1.0000
  C   C305      1.0  0.32309999999999994  0.64362  0.78019  1.0000
  C   C306      1.0  0.23412000000000002  0.63661  0.78127  1.0000
  C   C307      1.0  0.23412000000000008  0.9735299999999998  0.39136000000000004  1.0000
  C   C308      1.0  0.32424  0.97787  0.39277  1.0000
  C   C309      1.0  0.4124700000000001  0.9886499999999998  0.39124000000000003  1.0000
  C   C310      1.0  0.3710999999999999  0.6309999999999999  0.7949000000000002  1.0000
  C   C311      1.0  0.2792399999999999  0.62567  0.7957000000000001  1.0000
  C   C312      1.0  0.18977000000000005  0.6157599999999999  0.7962400000000001  1.0000
  C   C313      1.0  0.18914000000000009  0.9593299999999998  0.40257  1.0000
  C   C314      1.0  0.45926  0.9786099999999998  0.40213  1.0000
  C   C315      1.0  0.3726599999999999  0.61207  0.82519  1.0000
  C   C316      1.0  0.1889399999999998  0.5809199999999999  0.8239900000000001  1.0000
  C   C317      1.0  0.14097999999999997  0.97907  0.3858600000000001  1.0000
  C   C318      1.0  0.5001299999999999  0.004159999999999988  0.38600000000000007  1.0000
  C   C319      1.0  0.42468999999999946  0.5931500000000001  0.83864  1.0000
  C   C320      1.0  0.14487999999999998  0.5587  0.83735  1.0000
  C   C321      1.0  0.2630600000000001  0.22488999999999987  0.60582  1.0000
  C   C322      1.0  0.32401999999999975  0.2955799999999999  0.5374600000000002  1.0000
  C   C323      1.0  0.28192000000000006  0.30443  0.6514  1.0000
  C   C324      1.0  0.34451  0.3722599999999998  0.58396  1.0000
  C   C325      1.0  0.24031999999999992  0.18216000000000002  0.61058  1.0000
  C   C326      1.0  0.3365200000000001  0.2912799999999999  0.50471  1.0000
  C   C327      1.0  0.27075000000000005  0.31045  0.68366  1.0000
  C   C328      1.0  0.36611  0.41570999999999997  0.57989  1.0000
  C   C329      1.0  0.18188999999999989  0.1994  0.61455  1.0000
  C   C330      1.0  0.2968700000000001  0.32801999999999987  0.48597  1.0000
  C   C331      1.0  0.30998999999999993  0.27333999999999997  0.7025400000000002  1.0000
  C   C332      1.0  0.4226099999999998  0.39914000000000005  0.58095  1.0000
  C   C333      1.0  0.15492  0.16165  0.61733  1.0000
  C   C334      1.0  0.30233000000000004  0.32649999999999996  0.45378  1.0000
  C   C335      1.0  0.3044399999999998  0.2763  0.73441  1.0000
  C   C336      1.0  0.4477199999999998  0.43793  0.57938  1.0000
  C   C337      1.0  0.09403999999999997  0.18820999999999996  0.6176  1.0000
  C   C338      1.0  0.35063999999999995  0.28261  0.4382  1.0000
  C   C339      1.0  0.25587999999999994  0.36946  0.43817  1.0000
  C   C340      1.0  0.25646000000000013  0.32129999999999986  0.74947  1.0000
  C   C341      1.0  0.3496999999999999  0.23292  0.7506900000000001  1.0000
  C   C342      1.0  0.41307999999999984  0.4990499999999997  0.5793700000000002  1.0000
  C   C343      1.0  0.35266  0.28074999999999994  0.40781000000000006  1.0000
  C   C344      1.0  0.25644000000000006  0.36924  0.40765  1.0000
  C   C345      1.0  0.25320999999999977  0.3229899999999999  0.7800900000000002  1.0000
  C   C346      1.0  0.34827999999999987  0.2339499999999999  0.78121  1.0000
  C   C347      1.0  0.40098999999999985  0.23407999999999995  0.39152  1.0000
  C   C348      1.0  0.30515  0.3243599999999999  0.39288  1.0000
  C   C349      1.0  0.20754  0.41259999999999997  0.3914500000000001  1.0000
  C   C350      1.0  0.20305000000000004  0.3710599999999998  0.7947900000000001  1.0000
  C   C351      1.0  0.29954000000000003  0.27912999999999993  0.79561  1.0000
  C   C352      1.0  0.3985399999999999  0.18964999999999999  0.7961800000000001  1.0000
  C   C353      1.0  0.44895000000000007  0.18899999999999995  0.40270000000000006  1.0000
  C   C354      1.0  0.15980999999999998  0.4593  0.40241  1.0000
  C   C355      1.0  0.19014000000000003  0.37257999999999997  0.8250700000000001  1.0000
  C   C356      1.0  0.4063099999999999  0.1889499999999998  0.8239200000000001  1.0000
  C   C357      1.0  0.49396000000000007  0.14082999999999996  0.38592  1.0000
  C   C358      1.0  0.10960000000000006  0.5000499999999999  0.38622000000000006  1.0000
  C   C359      1.0  0.1435800000000001  0.4246299999999998  0.83854  1.0000
  C   C360      1.0  0.4591  0.14485999999999996  0.83739  1.0000
  C   C361      1.0  0.7636099999999999  0.4064199999999999  0.10533000000000001  1.0000
  C   C362      1.0  0.82459  0.34307  0.03702  1.0000
  C   C363      1.0  0.78241  0.26215  0.15117  1.0000
  C   C364      1.0  0.84456  0.19934999999999994  0.08355  1.0000
  C   C365      1.0  0.7406199999999996  0.46699  0.11046  1.0000
  C   C366      1.0  0.8367199999999998  0.36789  0.00426  1.0000
  C   C367      1.0  0.7708299999999999  0.23510999999999999  0.18346000000000004  1.0000
  C   C368      1.0  0.8662999999999998  0.13827999999999996  0.07957000000000002  1.0000
  C   C369      1.0  0.68217  0.5042899999999999  0.11445  1.0000
  C   C370      1.0  0.7969399999999995  0.38939000000000007  0.98563  1.0000
  C   C371      1.0  0.8098799999999997  0.21412999999999996  0.20243  1.0000
  C   C372      1.0  0.9227100000000001  0.09715999999999997  0.08085  1.0000
  C   C373      1.0  0.6551300000000001  0.5662699999999999  0.11730000000000002  1.0000
  C   C374      1.0  0.8021999999999998  0.41773  0.9534400000000001  1.0000
  C   C375      1.0  0.8043800000000001  0.18486999999999998  0.23435000000000003  1.0000
  C   C376      1.0  0.9477499999999998  0.03479  0.07937000000000001  1.0000
  C   C377      1.0  0.59423  0.60039  0.11758000000000002  1.0000
  C   C378      1.0  0.85045  0.42893  0.93782  1.0000
  C   C379      1.0  0.7557399999999996  0.43676  0.9378800000000002  1.0000
  C   C380      1.0  0.75649  0.17272  0.24947000000000003  1.0000
  C   C381      1.0  0.8496  0.16679999999999998  0.25061  1.0000
  C   C382      1.0  0.9130799999999999  0.008409999999999996  0.07938000000000002  1.0000
  C   C383      1.0  0.8524299999999997  0.45920000000000005  0.90741  1.0000
  C   C384      1.0  0.75623  0.46701999999999966  0.9073700000000001  1.0000
  C   C385      1.0  0.7532599999999998  0.14362999999999998  0.28012  1.0000
  C   C386      1.0  0.84825  0.13659999999999997  0.28115000000000007  1.0000
  C   C387      1.0  0.9007900000000001  0.47384  0.8911  1.0000
  C   C388      1.0  0.8048700000000001  0.4780499999999999  0.89255  1.0000
  C   C389      1.0  0.7073900000000001  0.4887799999999999  0.8911700000000001  1.0000
  C   C390      1.0  0.7030799999999998  0.13105999999999998  0.2948  1.0000
  C   C391      1.0  0.79959  0.12563999999999997  0.2956  1.0000
  C   C392      1.0  0.8984099999999996  0.11585999999999998  0.29616  1.0000
  C   C393      1.0  0.9486500000000001  0.45954999999999996  0.90245  1.0000
  C   C394      1.0  0.6597  0.4788299999999999  0.90209  1.0000
  C   C395      1.0  0.6898499999999997  0.11222999999999995  0.32509000000000005  1.0000
  C   C396      1.0  0.9062399999999999  0.08104999999999997  0.32393  1.0000
  C   C397      1.0  0.99389  0.4793699999999999  0.88604  1.0000
  C   C398      1.0  0.6096499999999994  0.50454  0.88581  1.0000
  C   C399      1.0  0.6432099999999998  0.09332999999999997  0.33843000000000006  1.0000
  C   C400      1.0  0.95885  0.05917999999999999  0.33751000000000003  1.0000
  C   C401      1.0  0.40653000000000006  0.7251599999999998  0.10532  1.0000
  C   C402      1.0  0.34268  0.79561  0.03701  1.0000
  C   C403      1.0  0.26223  0.8046999999999997  0.15119000000000002  1.0000
  C   C404      1.0  0.19921999999999998  0.87253  0.0837  1.0000
  C   C405      1.0  0.46709  0.68236  0.11046  1.0000
  C   C406      1.0  0.36771000000000015  0.7911899999999997  0.00429  1.0000
  C   C407      1.0  0.23517000000000005  0.81087  0.18349  1.0000
  C   C408      1.0  0.13818999999999987  0.9157999999999998  0.07959000000000001  1.0000
  C   C409      1.0  0.5043399999999999  0.6995599999999998  0.11442  1.0000
  C   C410      1.0  0.38936  0.8279699999999998  0.9855800000000001  1.0000
  C   C411      1.0  0.2141800000000001  0.7737899999999998  0.20246  1.0000
  C   C412      1.0  0.09718000000000006  0.8991199999999998  0.08086  1.0000
  C   C413      1.0  0.5663199999999999  0.66175  0.11729  1.0000
  C   C414      1.0  0.41783  0.8263999999999999  0.95341  1.0000
  C   C415      1.0  0.18487000000000003  0.7766399999999999  0.23438  1.0000
  C   C416      1.0  0.03478999999999993  0.9379599999999999  0.07936  1.0000
  C   C417      1.0  0.6004200000000001  0.6882399999999999  0.11754  1.0000
  C   C418      1.0  0.4290100000000001  0.7825699999999998  0.93783  1.0000
  C   C419      1.0  0.4368999999999999  0.8693699999999999  0.9378  1.0000
  C   C420      1.0  0.17273000000000005  0.8215699999999998  0.24946000000000002  1.0000
  C   C421      1.0  0.16676000000000013  0.7332199999999999  0.2507  1.0000
  C   C422      1.0  0.008359999999999947  0.99906  0.07936  1.0000
  C   C423      1.0  0.45925000000000027  0.7807599999999999  0.90742  1.0000
  C   C424      1.0  0.4671399999999999  0.86917  0.9072900000000003  1.0000
  C   C425      1.0  0.1436200000000001  0.8232599999999998  0.28011  1.0000
  C   C426      1.0  0.13661999999999994  0.73421  0.28125  1.0000
  C   C427      1.0  0.47369000000000006  0.7341500000000001  0.89114  1.0000
  C   C428      1.0  0.47815  0.82432  0.89251  1.0000
  C   C429      1.0  0.4888099999999999  0.91257  0.8910700000000003  1.0000
  C   C430      1.0  0.13095999999999994  0.87132  0.2948  1.0000
  C   C431      1.0  0.1256699999999998  0.7794  0.29563000000000006  1.0000
  C   C432      1.0  0.11579000000000007  0.68984  0.29632  1.0000
  C   C433      1.0  0.45932999999999996  0.6892799999999998  0.9025300000000003  1.0000
  C   C434      1.0  0.47872999999999993  0.95931  0.90201  1.0000
  C   C435      1.0  0.11200000000000009  0.8729999999999998  0.32508  1.0000
  C   C436      1.0  0.08094000000000008  0.6890499999999999  0.3240700000000001  1.0000
  C   C437      1.0  0.47903  0.6407599999999998  0.8860900000000002  1.0000
  C   C438      1.0  0.5042699999999998  0.0001299999999999749  0.8857800000000001  1.0000
  C   C439      1.0  0.09311000000000007  0.9251599999999996  0.33843000000000006  1.0000
  C   C440      1.0  0.05884999999999995  0.64487  0.33745  1.0000
  C   C441      1.0  0.7250800000000001  0.7634399999999999  0.10535  1.0000
  C   C442      1.0  0.7956799999999997  0.8244999999999998  0.03702  1.0000
  C   C443      1.0  0.80428  0.7824599999999998  0.15115000000000003  1.0000
  C   C444      1.0  0.8724699999999999  0.84482  0.0835  1.0000
  C   C445      1.0  0.6824000000000001  0.7404399999999999  0.11046  1.0000
  C   C446      1.0  0.7913599999999998  0.8367199999999998  0.00431  1.0000
  C   C447      1.0  0.8105399999999997  0.7709199999999999  0.18343000000000004  1.0000
  C   C448      1.0  0.9158600000000001  0.8664  0.07954000000000001  1.0000
  C   C449      1.0  0.6996  0.682  0.11441000000000001  1.0000
  C   C450      1.0  0.8282199999999998  0.7969199999999999  0.98568  1.0000
  C   C451      1.0  0.7734599999999998  0.80995  0.20243  1.0000
  C   C452      1.0  0.8991999999999998  0.9228  0.08085  1.0000
  C   C453      1.0  0.6617699999999997  0.65503  0.11727000000000001  1.0000
  C   C454      1.0  0.8266699999999996  0.80222  0.9535300000000001  1.0000
  C   C455      1.0  0.77642  0.80434  0.23433  1.0000
  C   C456      1.0  0.9379700000000001  0.9478299999999997  0.07938000000000002  1.0000
  C   C457      1.0  0.6883  0.5941399999999999  0.11755000000000002  1.0000
  C   C458      1.0  0.7827799999999996  0.85053  0.93797  1.0000
  C   C459      1.0  0.8695999999999999  0.75574  0.93795  1.0000
  C   C460      1.0  0.8214199999999999  0.75637  0.24939000000000003  1.0000
  C   C461      1.0  0.7330000000000004  0.84956  0.25063  1.0000
  C   C462      1.0  0.9990699999999998  0.9131299999999999  0.07937000000000001  1.0000
  C   C463      1.0  0.7808700000000001  0.85257  0.90758  1.0000
  C   C464      1.0  0.8693199999999996  0.75629  0.9074600000000002  1.0000
  C   C465      1.0  0.8231499999999996  0.7531  0.28003  1.0000
  C   C466      1.0  0.7340499999999998  0.8481599999999999  0.28115000000000007  1.0000
  C   C467      1.0  0.7340599999999998  0.9009999999999998  0.8913900000000001  1.0000
  C   C468      1.0  0.8244399999999998  0.8050099999999999  0.8926700000000001  1.0000
  C   C469      1.0  0.9126999999999996  0.70742  0.89125  1.0000
  C   C470      1.0  0.87132  0.70291  0.2947  1.0000
  C   C471      1.0  0.7792799999999998  0.7994299999999999  0.29554  1.0000
  C   C472      1.0  0.68973  0.89841  0.29615  1.0000
  C   C473      1.0  0.6890700000000001  0.9487799999999997  0.9028  1.0000
  C   C474      1.0  0.9594599999999999  0.6597299999999999  0.90218  1.0000
  C   C475      1.0  0.87307  0.68984  0.32498  1.0000
  C   C476      1.0  0.68913  0.9062299999999999  0.32386  1.0000
  C   C477      1.0  0.6405200000000003  0.99403  0.88631  1.0000
  C   C478      1.0  0.00025000000000014507  0.6097299999999999  0.88586  1.0000
  C   C479      1.0  0.9252299999999999  0.64316  0.33835  1.0000
  C   C480      1.0  0.64492  0.95895  0.33737000000000006  1.0000
  O   O1        1.0  0.27313999999999977  0.60916  0.89742  1.0000
  O   O2        1.0  0.2265399999999999  0.65468  0.95196  1.0000
  O   O3        1.0  0.25837000000000027  0.7200799999999998  0.86437  1.0000
  O   O4        1.0  0.21033  0.76631  0.9178500000000002  1.0000
  O   O5        1.0  0.18040999999999993  0.62608  0.89612  1.0000
  O   O6        1.0  0.11918  0.7867599999999999  0.91156  1.0000
  O   O7        1.0  0.13295999999999975  0.67829  0.94806  1.0000
  O   O8        1.0  0.16894000000000006  0.7343599999999998  0.859  1.0000
  O   O9        1.0  0.008630000000000002  0.49244  0.14162  1.0000
  O   O10       1.0  0.96731  0.53328  0.09816  1.0000
  O   O11       1.0  0.38942000000000004  0.4621199999999999  0.14049  1.0000
  O   O12       1.0  0.43232999999999994  0.5089  0.09952000000000003  1.0000
  O   O13       1.0  0.35507999999999995  0.9343299999999999  0.6336500000000002  1.0000
  O   O14       1.0  0.3934699999999999  0.89649  0.67803  1.0000
  O   O15       1.0  0.0006700000000001268  0.9254599999999997  0.67729  1.0000
  O   O16       1.0  0.040260000000000046  0.97499  0.63618  1.0000
  O   O17       1.0  0.6091099999999998  0.21969999999999998  0.8974800000000002  1.0000
  O   O18       1.0  0.6552299999999996  0.16638999999999998  0.95206  1.0000
  O   O19       1.0  0.7200599999999999  0.15668  0.86437  1.0000
  O   O20       1.0  0.7664999999999997  0.10542000000000003  0.91784  1.0000
  O   O21       1.0  0.6258799999999999  0.29695999999999995  0.8961100000000002  1.0000
  O   O22       1.0  0.7868599999999996  0.18260999999999986  0.9111100000000001  1.0000
  O   O23       1.0  0.6787099999999996  0.24038000000000004  0.948  1.0000
  O   O24       1.0  0.73416  0.2373699999999999  0.85894  1.0000
  O   O25       1.0  0.49335  0.35679999999999995  0.1417  1.0000
  O   O26       1.0  0.5330599999999999  0.40153999999999995  0.09805  1.0000
  O   O27       1.0  0.46250999999999987  0.007519999999999992  0.14056  1.0000
  O   O28       1.0  0.50912  0.9592999999999998  0.09947  1.0000
  O   O29       1.0  0.93447  0.07699999999999999  0.63363  1.0000
  O   O30       1.0  0.8967499999999998  0.031819999999999966  0.6780200000000001  1.0000
  O   O31       1.0  0.9262199999999996  0.39565  0.6776200000000001  1.0000
  O   O32       1.0  0.97508  0.34856  0.6361700000000001  1.0000
  O   O33       1.0  0.21976000000000007  0.2732299999999999  0.89747  1.0000
  O   O34       1.0  0.16611000000000004  0.2264699999999999  0.9520300000000002  1.0000
  O   O35       1.0  0.15716999999999992  0.2584299999999999  0.8643400000000001  1.0000
  O   O36       1.0  0.10557000000000001  0.2101  0.9178000000000001  1.0000
  O   O37       1.0  0.29714999999999986  0.1806099999999999  0.89601  1.0000
  O   O38       1.0  0.18264999999999998  0.11884999999999997  0.9117400000000001  1.0000
  O   O39       1.0  0.24065999999999999  0.13320999999999997  0.948  1.0000
  O   O40       1.0  0.23764000000000002  0.16883  0.85905  1.0000
  O   O41       1.0  0.35723  0.008580000000000003  0.14138  1.0000
  O   O42       1.0  0.4015799999999999  0.9670999999999998  0.09798  1.0000
  O   O43       1.0  0.007410000000000011  0.38916  0.14052  1.0000
  O   O44       1.0  0.9591699999999999  0.43247999999999986  0.09944  1.0000
  O   O45       1.0  0.07679  0.35496  0.63376  1.0000
  O   O46       1.0  0.03186000000000001  0.3937699999999999  0.67803  1.0000
  O   O47       1.0  0.39590000000000003  0.000399999999999997  0.67755  1.0000
  O   O48       1.0  0.34828  0.04027999999999999  0.63628  1.0000
  O   O49       1.0  0.1094100000000001  0.77345  0.39683000000000007  1.0000
  O   O50       1.0  0.15443000000000007  0.7272499999999998  0.45158  1.0000
  O   O51       1.0  0.21998000000000006  0.7589999999999999  0.36395000000000005  1.0000
  O   O52       1.0  0.2664600000000001  0.7105099999999999  0.41730000000000006  1.0000
  O   O53       1.0  0.12623999999999996  0.68065  0.39575000000000005  1.0000
  O   O54       1.0  0.2871599999999999  0.6192  0.4111  1.0000
  O   O55       1.0  0.17859999999999984  0.6335699999999999  0.44764000000000004  1.0000
  O   O56       1.0  0.23444000000000004  0.6692399999999997  0.35894  1.0000
  O   O57       1.0  0.9926999999999996  0.50856  0.6417800000000001  1.0000
  O   O58       1.0  0.03342000000000005  0.46721999999999997  0.59831  1.0000
  O   O59       1.0  0.9624599999999998  0.8894599999999999  0.64027  1.0000
  O   O60       1.0  0.008539999999999872  0.93266  0.5989600000000002  1.0000
  O   O61       1.0  0.43478  0.85439  0.13355  1.0000
  O   O62       1.0  0.3961499999999998  0.89379  0.17760000000000004  1.0000
  O   O63       1.0  0.42549000000000015  0.5005299999999998  0.17739  1.0000
  O   O64       1.0  0.47559999999999975  0.53987  0.13642000000000004  1.0000
  O   O65       1.0  0.7198799999999997  0.10939999999999993  0.39688  1.0000
  O   O66       1.0  0.6666000000000001  0.15485  0.4516200000000001  1.0000
  O   O67       1.0  0.6565199999999999  0.21992999999999993  0.36399  1.0000
  O   O68       1.0  0.6055100000000001  0.26677  0.41724  1.0000
  O   O69       1.0  0.7971899999999997  0.12614999999999996  0.39548000000000005  1.0000
  O   O70       1.0  0.6826299999999998  0.28690999999999994  0.41112  1.0000
  O   O71       1.0  0.74051  0.17849  0.44748  1.0000
  O   O72       1.0  0.7368699999999999  0.23436999999999997  0.35890000000000005  1.0000
  O   O73       1.0  0.85652  0.9931499999999998  0.6419000000000001  1.0000
  O   O74       1.0  0.9011999999999998  0.03325999999999999  0.59838  1.0000
  O   O75       1.0  0.50737  0.9626299999999999  0.64038  1.0000
  O   O76       1.0  0.4595000000000001  0.009249999999999984  0.59908  1.0000
  O   O77       1.0  0.5775099999999999  0.43466999999999995  0.13349  1.0000
  O   O78       1.0  0.53235  0.39648999999999995  0.17764  1.0000
  O   O79       1.0  0.8960199999999998  0.42603  0.17753  1.0000
  O   O80       1.0  0.8480999999999997  0.47568000000000005  0.13641  1.0000
  O   O81       1.0  0.7737699999999996  0.7199999999999999  0.39687  1.0000
  O   O82       1.0  0.7271199999999994  0.66644  0.45159  1.0000
  O   O83       1.0  0.7592499999999999  0.6570999999999999  0.36393  1.0000
  O   O84       1.0  0.7104499999999999  0.6058099999999998  0.41724  1.0000
  O   O85       1.0  0.6810599999999999  0.79726  0.39535000000000003  1.0000
  O   O86       1.0  0.6191400000000001  0.6828499999999997  0.41121  1.0000
  O   O87       1.0  0.6337300000000001  0.74058  0.44750000000000006  1.0000
  O   O88       1.0  0.6693  0.7372999999999997  0.35894  1.0000
  O   O89       1.0  0.50869  0.8565699999999999  0.6418100000000001  1.0000
  O   O90       1.0  0.46718  0.90146  0.59841  1.0000
  O   O91       1.0  0.88924  0.5071899999999999  0.6402900000000001  1.0000
  O   O92       1.0  0.9327599999999997  0.45982999999999996  0.59884  1.0000
  O   O93       1.0  0.8538499999999999  0.57736  0.13372  1.0000
  O   O94       1.0  0.8939400000000001  0.53263  0.17758  1.0000
  O   O95       1.0  0.50032  0.89615  0.17744  1.0000
  O   O96       1.0  0.5400200000000001  0.8480299999999998  0.13636000000000004  1.0000
  O   O97       1.0  0.8905899999999997  0.22656000000000004  0.60317  1.0000
  O   O98       1.0  0.8455699999999998  0.2727599999999999  0.54842  1.0000
  O   O99       1.0  0.7800199999999996  0.24100999999999995  0.6360500000000001  1.0000
  O   O100      1.0  0.73355  0.2895  0.5827  1.0000
  O   O101      1.0  0.87377  0.31936  0.60425  1.0000
  O   O102      1.0  0.71285  0.3808099999999999  0.5889  1.0000
  O   O103      1.0  0.8214  0.3664399999999999  0.5523600000000001  1.0000
  O   O104      1.0  0.7655599999999999  0.33076999999999995  0.64106  1.0000
  O   O105      1.0  0.0072999999999999714  0.49145  0.35822000000000004  1.0000
  O   O106      1.0  0.9665799999999999  0.53279  0.40169  1.0000
  O   O107      1.0  0.03753999999999999  0.11055000000000001  0.35973  1.0000
  O   O108      1.0  0.9914599999999999  0.06734999999999998  0.40104  1.0000
  O   O109      1.0  0.56522  0.14561999999999997  0.86645  1.0000
  O   O110      1.0  0.6038499999999997  0.10621999999999998  0.8224000000000001  1.0000
  O   O111      1.0  0.5745099999999997  0.4994799999999997  0.82261  1.0000
  O   O112      1.0  0.52441  0.4601399999999998  0.8635800000000001  1.0000
  O   O113      1.0  0.28013000000000005  0.8906099999999998  0.6031200000000001  1.0000
  O   O114      1.0  0.3333999999999999  0.84516  0.54838  1.0000
  O   O115      1.0  0.3434799999999999  0.7800799999999998  0.63601  1.0000
  O   O116      1.0  0.3945  0.7332399999999999  0.58276  1.0000
  O   O117      1.0  0.20282000000000003  0.87386  0.60452  1.0000
  O   O118      1.0  0.31737000000000004  0.7130999999999998  0.58888  1.0000
  O   O119      1.0  0.25949  0.82152  0.55252  1.0000
  O   O120      1.0  0.26313  0.7656399999999999  0.6411  1.0000
  O   O121      1.0  0.14348  0.006859999999999977  0.35810000000000003  1.0000
  O   O122      1.0  0.09880000000000005  0.9667499999999999  0.40162000000000003  1.0000
  O   O123      1.0  0.4926299999999998  0.037380000000000004  0.35962  1.0000
  O   O124      1.0  0.54051  0.99076  0.40092  1.0000
  O   O125      1.0  0.4224999999999998  0.56534  0.86651  1.0000
  O   O126      1.0  0.46764999999999995  0.6035199999999997  0.8223600000000002  1.0000
  O   O127      1.0  0.10398000000000002  0.57398  0.8224700000000001  1.0000
  O   O128      1.0  0.15191000000000007  0.5243299999999997  0.86359  1.0000
  O   O129      1.0  0.2262299999999999  0.2800099999999999  0.60313  1.0000
  O   O130      1.0  0.27288000000000007  0.3335699999999999  0.54841  1.0000
  O   O131      1.0  0.24076000000000006  0.34292  0.63607  1.0000
  O   O132      1.0  0.28954999999999975  0.3942  0.58276  1.0000
  O   O133      1.0  0.3189399999999999  0.20275000000000004  0.60465  1.0000
  O   O134      1.0  0.38085999999999987  0.3171599999999999  0.58879  1.0000
  O   O135      1.0  0.36626999999999993  0.2594299999999999  0.5525  1.0000
  O   O136      1.0  0.3307  0.26270999999999994  0.64106  1.0000
  O   O137      1.0  0.4913099999999999  0.14344  0.35819  1.0000
  O   O138      1.0  0.53282  0.09854999999999993  0.40159000000000006  1.0000
  O   O139      1.0  0.11076000000000012  0.49281999999999987  0.35971  1.0000
  O   O140      1.0  0.0672399999999999  0.54018  0.40116  1.0000
  O   O141      1.0  0.14615999999999998  0.42264999999999997  0.8662800000000002  1.0000
  O   O142      1.0  0.10606000000000011  0.46737999999999996  0.82242  1.0000
  O   O143      1.0  0.49967999999999996  0.10386000000000002  0.82256  1.0000
  O   O144      1.0  0.4599899999999999  0.15197999999999992  0.8636400000000001  1.0000
  O   O145      1.0  0.7268599999999997  0.39084999999999986  0.10258000000000002  1.0000
  O   O146      1.0  0.7734599999999998  0.3453299999999999  0.04804  1.0000
  O   O147      1.0  0.7416300000000001  0.27992999999999996  0.13563  1.0000
  O   O148      1.0  0.7896699999999999  0.2337  0.08215  1.0000
  O   O149      1.0  0.81959  0.37393  0.10388  1.0000
  O   O150      1.0  0.88083  0.21324999999999997  0.08844000000000002  1.0000
  O   O151      1.0  0.8670399999999998  0.32171999999999995  0.05194  1.0000
  O   O152      1.0  0.83106  0.26565  0.141  1.0000
  O   O153      1.0  0.99138  0.5075699999999997  0.85838  1.0000
  O   O154      1.0  0.032689999999999955  0.46673  0.90184  1.0000
  O   O155      1.0  0.6105799999999999  0.53789  0.85951  1.0000
  O   O156      1.0  0.5676700000000001  0.49110999999999994  0.90048  1.0000
  O   O157      1.0  0.64492  0.06567999999999999  0.36635  1.0000
  O   O158      1.0  0.6065299999999998  0.10351999999999995  0.32197  1.0000
  O   O159      1.0  0.9993299999999997  0.07454999999999999  0.32271000000000005  1.0000
  O   O160      1.0  0.9597399999999998  0.025019999999999997  0.36382  1.0000
  O   O161      1.0  0.3908899999999998  0.78031  0.10252000000000001  1.0000
  O   O162      1.0  0.34476999999999997  0.8336199999999999  0.04794  1.0000
  O   O163      1.0  0.27995000000000014  0.8433299999999998  0.13563  1.0000
  O   O164      1.0  0.23349999999999999  0.89459  0.08216000000000001  1.0000
  O   O165      1.0  0.37412000000000006  0.7030499999999998  0.1039  1.0000
  O   O166      1.0  0.21313999999999997  0.8174  0.08889  1.0000
  O   O167      1.0  0.32129000000000013  0.7596199999999997  0.052  1.0000
  O   O168      1.0  0.2658399999999999  0.76264  0.14106  1.0000
  O   O169      1.0  0.5066500000000002  0.6432099999999997  0.8583  1.0000
  O   O170      1.0  0.46694000000000013  0.5984699999999998  0.90195  1.0000
  O   O171      1.0  0.5374999999999994  0.9924900000000001  0.85944  1.0000
  O   O172      1.0  0.49088  0.04071000000000001  0.90053  1.0000
  O   O173      1.0  0.06552999999999998  0.92301  0.36637  1.0000
  O   O174      1.0  0.10325000000000002  0.9681899999999998  0.32198  1.0000
  O   O175      1.0  0.07378000000000008  0.6043599999999999  0.32239000000000007  1.0000
  O   O176      1.0  0.024920000000000025  0.65145  0.36383000000000004  1.0000
  O   O177      1.0  0.7802399999999999  0.72678  0.10253  1.0000
  O   O178      1.0  0.8338999999999996  0.7735399999999999  0.047970000000000006  1.0000
  O   O179      1.0  0.84283  0.7415799999999998  0.13566  1.0000
  O   O180      1.0  0.89443  0.7899099999999999  0.0822  1.0000
  O   O181      1.0  0.7028500000000001  0.8193999999999997  0.10399000000000001  1.0000
  O   O182      1.0  0.81736  0.8811599999999999  0.08826  1.0000
  O   O183      1.0  0.7593500000000003  0.8667999999999999  0.052  1.0000
  O   O184      1.0  0.7623599999999999  0.83118  0.14095  1.0000
  O   O185      1.0  0.6427700000000001  0.9914299999999998  0.85862  1.0000
  O   O186      1.0  0.59842  0.03291000000000001  0.90202  1.0000
  O   O187      1.0  0.9925899999999999  0.6108499999999998  0.85948  1.0000
  O   O188      1.0  0.04084000000000004  0.56753  0.90056  1.0000
  O   O189      1.0  0.9232099999999999  0.64505  0.36624  1.0000
  O   O190      1.0  0.9681399999999999  0.6062399999999998  0.32197  1.0000
  O   O191      1.0  0.6040999999999997  0.99961  0.32245000000000007  1.0000
  O   O192      1.0  0.65172  0.9597299999999997  0.36372  1.0000
