data_image0
_chemical_formula_structural       Zn32H160C296O160
_chemical_formula_sum              "Zn32 H160 C296 O160"
_cell_length_a       21.79591
_cell_length_b       21.79591
_cell_length_c       40.50524
_cell_angle_alpha    90.0
_cell_angle_beta     90.0
_cell_angle_gamma    90.0

_symmetry_space_group_name_H-M    'P 1'
_symmetry_Int_Tables_number       1

loop_
  _symmetry_equiv_pos_as_xyz
  'x,y,z'

loop_
  _atom_site_type_symbol
  _atom_site_label
  _atom_site_symmetry_multiplicity
  _atom_site_fract_x
  _atom_site_fract_y
  _atom_site_fract_z
  _atom_site_occupancy
  Zn  Zn1       1.0  0.37047  0.08919999999999999  0.36742  1.0000
  Zn  Zn2       1.0  0.4472099999999999  0.98297  0.41592999999999997  1.0000
  Zn  Zn3       1.0  0.9531299999999998  0.9537699999999998  0.38583  1.0000
  Zn  Zn4       1.0  0.013709999999999998  0.04104  0.3381  1.0000
  Zn  Zn5       1.0  0.6295399999999999  0.9108  0.8674199999999999  1.0000
  Zn  Zn6       1.0  0.55279  0.01703  0.91593  1.0000
  Zn  Zn7       1.0  0.04687  0.046239999999999996  0.88583  1.0000
  Zn  Zn8       1.0  0.9862899999999998  0.9589699999999998  0.8381099999999999  1.0000
  Zn  Zn9       1.0  0.41079999999999994  0.8704699999999999  0.61742  1.0000
  Zn  Zn10      1.0  0.51703  0.94721  0.66593  1.0000
  Zn  Zn11      1.0  0.5462399999999998  0.4531299999999999  0.63583  1.0000
  Zn  Zn12      1.0  0.45896999999999993  0.51371  0.5881  1.0000
  Zn  Zn13      1.0  0.5892  0.12953999999999996  0.11742  1.0000
  Zn  Zn14      1.0  0.4829699999999999  0.05278999999999999  0.16593  1.0000
  Zn  Zn15      1.0  0.45377  0.5468799999999999  0.13583  1.0000
  Zn  Zn16      1.0  0.54104  0.48628999999999994  0.0881  1.0000
  Zn  Zn17      1.0  0.12953999999999996  0.5892  0.88258  1.0000
  Zn  Zn18      1.0  0.05278999999999999  0.4829699999999999  0.8340799999999999  1.0000
  Zn  Zn19      1.0  0.5468799999999999  0.45377  0.86417  1.0000
  Zn  Zn20      1.0  0.48628999999999994  0.54104  0.9119  1.0000
  Zn  Zn21      1.0  0.8704699999999999  0.41079999999999994  0.38258  1.0000
  Zn  Zn22      1.0  0.94721  0.51703  0.33407  1.0000
  Zn  Zn23      1.0  0.4531299999999999  0.5462399999999998  0.36417  1.0000
  Zn  Zn24      1.0  0.51371  0.45896999999999993  0.4119  1.0000
  Zn  Zn25      1.0  0.08919999999999999  0.37047  0.63258  1.0000
  Zn  Zn26      1.0  0.98297  0.4472099999999999  0.58408  1.0000
  Zn  Zn27      1.0  0.9537699999999998  0.9531299999999998  0.61417  1.0000
  Zn  Zn28      1.0  0.04104  0.013709999999999998  0.6619  1.0000
  Zn  Zn29      1.0  0.9108  0.6295399999999999  0.13258  1.0000
  Zn  Zn30      1.0  0.01703  0.55279  0.08407  1.0000
  Zn  Zn31      1.0  0.046239999999999996  0.04687  0.11417  1.0000
  Zn  Zn32      1.0  0.9589699999999998  0.9862899999999998  0.1619  1.0000
  H   H1        1.0  0.23751  0.7813  0.50068  1.0000
  H   H2        1.0  0.21222999999999997  0.7191699999999999  0.52621  1.0000
  H   H3        1.0  0.07842  0.71751  0.50288  1.0000
  H   H4        1.0  0.12763  0.6522599999999998  0.50681  1.0000
  H   H5        1.0  0.25287  0.7080699999999998  0.45212  1.0000
  H   H6        1.0  0.19093999999999997  0.65913  0.43989000000000006  1.0000
  H   H7        1.0  0.11766  0.80757  0.46553  1.0000
  H   H8        1.0  0.12784  0.7560899999999999  0.43143  1.0000
  H   H9        1.0  0.2980499999999999  0.8774199999999999  0.43156999999999995  1.0000
  H   H10       1.0  0.19396  0.01602  0.37967  1.0000
  H   H11       1.0  0.10200999999999999  0.8585799999999998  0.41989  1.0000
  H   H12       1.0  0.26583  0.8033799999999998  0.55237  1.0000
  H   H13       1.0  0.20178999999999994  0.9213999999999999  0.63019  1.0000
  H   H14       1.0  0.07496999999999998  0.85588  0.55623  1.0000
  H   H15       1.0  0.03511999999999999  0.6046499999999999  0.41302  1.0000
  H   H16       1.0  0.94949  0.45891999999999994  0.4686  1.0000
  H   H17       1.0  0.05356  0.5978199999999999  0.51924  1.0000
  H   H18       1.0  0.29539  0.59673  0.53342  1.0000
  H   H19       1.0  0.45173  0.5375899999999999  0.47690999999999995  1.0000
  H   H20       1.0  0.29729999999999995  0.62117  0.42744  1.0000
  H   H21       1.0  0.76249  0.21869999999999998  0.00067  1.0000
  H   H22       1.0  0.78777  0.28083  0.026209999999999997  1.0000
  H   H23       1.0  0.92158  0.28249  0.00288  1.0000
  H   H24       1.0  0.87237  0.34775  0.006809999999999999  1.0000
  H   H25       1.0  0.7471299999999998  0.29194  0.95212  1.0000
  H   H26       1.0  0.80907  0.34086999999999995  0.93989  1.0000
  H   H27       1.0  0.8823399999999999  0.19243  0.96553  1.0000
  H   H28       1.0  0.8721599999999999  0.24391  0.93143  1.0000
  H   H29       1.0  0.7019599999999999  0.12258  0.93157  1.0000
  H   H30       1.0  0.80604  0.9839799999999997  0.87967  1.0000
  H   H31       1.0  0.89799  0.14142  0.9198899999999999  1.0000
  H   H32       1.0  0.73417  0.19661999999999996  0.05237000000000001  1.0000
  H   H33       1.0  0.79821  0.07861  0.13019  1.0000
  H   H34       1.0  0.92503  0.14411999999999997  0.05623  1.0000
  H   H35       1.0  0.96488  0.39535  0.9130199999999999  1.0000
  H   H36       1.0  0.05052  0.54108  0.9685999999999999  1.0000
  H   H37       1.0  0.9464399999999998  0.40218  0.01923  1.0000
  H   H38       1.0  0.7046099999999998  0.4032699999999999  0.03342  1.0000
  H   H39       1.0  0.54827  0.46241  0.9769099999999998  1.0000
  H   H40       1.0  0.7026999999999999  0.3788399999999999  0.9274399999999999  1.0000
  H   H41       1.0  0.7186999999999999  0.7375099999999999  0.75068  1.0000
  H   H42       1.0  0.7808299999999999  0.71224  0.77621  1.0000
  H   H43       1.0  0.78249  0.57843  0.75288  1.0000
  H   H44       1.0  0.8477499999999999  0.6276399999999998  0.75681  1.0000
  H   H45       1.0  0.7919399999999999  0.75288  0.70212  1.0000
  H   H46       1.0  0.8408699999999998  0.6909399999999999  0.68989  1.0000
  H   H47       1.0  0.69243  0.61766  0.71553  1.0000
  H   H48       1.0  0.74391  0.6278399999999998  0.68143  1.0000
  H   H49       1.0  0.62258  0.7980499999999999  0.68157  1.0000
  H   H50       1.0  0.4839799999999999  0.6939599999999999  0.62967  1.0000
  H   H51       1.0  0.64142  0.6020099999999999  0.66989  1.0000
  H   H52       1.0  0.6966299999999999  0.7658299999999998  0.8023700000000001  1.0000
  H   H53       1.0  0.57861  0.7017899999999999  0.8802  1.0000
  H   H54       1.0  0.64412  0.5749799999999999  0.8062299999999999  1.0000
  H   H55       1.0  0.89535  0.5351199999999999  0.66302  1.0000
  H   H56       1.0  0.04108  0.44948999999999995  0.7186  1.0000
  H   H57       1.0  0.9021799999999999  0.5535599999999999  0.76924  1.0000
  H   H58       1.0  0.90327  0.7953899999999999  0.78342  1.0000
  H   H59       1.0  0.9624099999999999  0.95174  0.72692  1.0000
  H   H60       1.0  0.87884  0.79731  0.67744  1.0000
  H   H61       1.0  0.2813  0.26248999999999995  0.25068  1.0000
  H   H62       1.0  0.21917  0.28776999999999997  0.27621  1.0000
  H   H63       1.0  0.21751  0.4215799999999999  0.25288  1.0000
  H   H64       1.0  0.15226  0.37237  0.25681  1.0000
  H   H65       1.0  0.20807  0.24713  0.20212  1.0000
  H   H66       1.0  0.15912999999999997  0.30906  0.18989  1.0000
  H   H67       1.0  0.30756999999999995  0.38234  0.21553  1.0000
  H   H68       1.0  0.25608999999999993  0.3721599999999999  0.18143  1.0000
  H   H69       1.0  0.37742  0.20196  0.18157  1.0000
  H   H70       1.0  0.51602  0.30604  0.12967  1.0000
  H   H71       1.0  0.35858  0.39798999999999995  0.16988  1.0000
  H   H72       1.0  0.30338  0.23417  0.30237  1.0000
  H   H73       1.0  0.42139  0.2982099999999999  0.38019  1.0000
  H   H74       1.0  0.3558799999999999  0.42502  0.30623  1.0000
  H   H75       1.0  0.10465  0.46487999999999996  0.16302  1.0000
  H   H76       1.0  0.9589199999999999  0.55052  0.2186  1.0000
  H   H77       1.0  0.09781999999999999  0.44643999999999995  0.26923  1.0000
  H   H78       1.0  0.09673  0.20460999999999996  0.28342  1.0000
  H   H79       1.0  0.03759  0.04825999999999999  0.22691  1.0000
  H   H80       1.0  0.12116  0.20269  0.17744  1.0000
  H   H81       1.0  0.26248999999999995  0.2813  0.74933  1.0000
  H   H82       1.0  0.28776999999999997  0.21917  0.72379  1.0000
  H   H83       1.0  0.4215799999999999  0.21751  0.74713  1.0000
  H   H84       1.0  0.37237  0.15226  0.74319  1.0000
  H   H85       1.0  0.24713  0.20807  0.79788  1.0000
  H   H86       1.0  0.30906  0.15912999999999997  0.81012  1.0000
  H   H87       1.0  0.38234  0.30756999999999995  0.78447  1.0000
  H   H88       1.0  0.3721599999999999  0.25608999999999993  0.81857  1.0000
  H   H89       1.0  0.20196  0.37742  0.8184299999999999  1.0000
  H   H90       1.0  0.30604  0.51602  0.8703400000000001  1.0000
  H   H91       1.0  0.39798999999999995  0.35858  0.83012  1.0000
  H   H92       1.0  0.23417  0.30338  0.69763  1.0000
  H   H93       1.0  0.2982099999999999  0.42139  0.61981  1.0000
  H   H94       1.0  0.42502  0.3558799999999999  0.6937699999999999  1.0000
  H   H95       1.0  0.46487999999999996  0.10465  0.8369799999999998  1.0000
  H   H96       1.0  0.55052  0.9589199999999999  0.7814  1.0000
  H   H97       1.0  0.44643999999999995  0.09781999999999999  0.73077  1.0000
  H   H98       1.0  0.20460999999999996  0.09673  0.71658  1.0000
  H   H99       1.0  0.04825999999999999  0.03759  0.77309  1.0000
  H   H100      1.0  0.20269  0.12116  0.82256  1.0000
  H   H101      1.0  0.7375099999999999  0.7186999999999999  0.24933  1.0000
  H   H102      1.0  0.71223  0.7808299999999999  0.22379  1.0000
  H   H103      1.0  0.57843  0.78249  0.24711999999999998  1.0000
  H   H104      1.0  0.6276399999999998  0.8477499999999999  0.24319  1.0000
  H   H105      1.0  0.75288  0.7919399999999999  0.29788  1.0000
  H   H106      1.0  0.6909399999999999  0.8408699999999998  0.31011  1.0000
  H   H107      1.0  0.61766  0.69243  0.28447  1.0000
  H   H108      1.0  0.6278399999999998  0.74391  0.31857  1.0000
  H   H109      1.0  0.7980499999999999  0.62258  0.31843  1.0000
  H   H110      1.0  0.6939599999999999  0.4839799999999999  0.37033  1.0000
  H   H111      1.0  0.6020099999999999  0.64142  0.33012  1.0000
  H   H112      1.0  0.7658299999999998  0.6966299999999999  0.19763  1.0000
  H   H113      1.0  0.7017899999999999  0.57861  0.11981  1.0000
  H   H114      1.0  0.5749799999999999  0.64412  0.19377  1.0000
  H   H115      1.0  0.5351199999999999  0.89535  0.33698  1.0000
  H   H116      1.0  0.44948999999999995  0.04108  0.2814  1.0000
  H   H117      1.0  0.5535599999999999  0.9021799999999999  0.23076999999999998  1.0000
  H   H118      1.0  0.7953899999999999  0.90327  0.21658  1.0000
  H   H119      1.0  0.95174  0.9624099999999999  0.27309  1.0000
  H   H120      1.0  0.79731  0.87884  0.32256  1.0000
  H   H121      1.0  0.7813  0.23751  0.49933  1.0000
  H   H122      1.0  0.7191699999999999  0.21222999999999997  0.47379000000000004  1.0000
  H   H123      1.0  0.71751  0.07842  0.49712  1.0000
  H   H124      1.0  0.6522599999999998  0.12763  0.49319  1.0000
  H   H125      1.0  0.7080699999999998  0.25287  0.54788  1.0000
  H   H126      1.0  0.65913  0.19093999999999997  0.56012  1.0000
  H   H127      1.0  0.80757  0.11766  0.53447  1.0000
  H   H128      1.0  0.7560899999999999  0.12784  0.56857  1.0000
  H   H129      1.0  0.8774199999999999  0.2980499999999999  0.56843  1.0000
  H   H130      1.0  0.01602  0.19396  0.62034  1.0000
  H   H131      1.0  0.8585799999999998  0.10200999999999999  0.58012  1.0000
  H   H132      1.0  0.8033799999999998  0.26583  0.44763  1.0000
  H   H133      1.0  0.9213999999999999  0.20178999999999994  0.36981  1.0000
  H   H134      1.0  0.85588  0.07497999999999999  0.44376999999999994  1.0000
  H   H135      1.0  0.6046499999999999  0.03511999999999999  0.58698  1.0000
  H   H136      1.0  0.45891999999999994  0.94949  0.5314  1.0000
  H   H137      1.0  0.5978199999999999  0.05356  0.48077  1.0000
  H   H138      1.0  0.59673  0.29539  0.46657999999999994  1.0000
  H   H139      1.0  0.5375899999999999  0.45173999999999986  0.52309  1.0000
  H   H140      1.0  0.62117  0.29729999999999995  0.57256  1.0000
  H   H141      1.0  0.21869999999999998  0.76249  0.9993299999999999  1.0000
  H   H142      1.0  0.28083  0.78777  0.97379  1.0000
  H   H143      1.0  0.28249  0.92158  0.9971299999999998  1.0000
  H   H144      1.0  0.34774  0.87237  0.9931899999999999  1.0000
  H   H145      1.0  0.29193  0.7471299999999998  0.04788  1.0000
  H   H146      1.0  0.34086999999999995  0.80907  0.06010999999999999  1.0000
  H   H147      1.0  0.19243  0.8823399999999999  0.03447  1.0000
  H   H148      1.0  0.24391  0.8721599999999999  0.06857  1.0000
  H   H149      1.0  0.12258  0.7019599999999999  0.06843  1.0000
  H   H150      1.0  0.9839799999999997  0.80604  0.12032999999999999  1.0000
  H   H151      1.0  0.14142  0.89799  0.08012  1.0000
  H   H152      1.0  0.19661999999999996  0.73417  0.94763  1.0000
  H   H153      1.0  0.07861  0.79821  0.86981  1.0000
  H   H154      1.0  0.14411999999999997  0.92503  0.9437699999999999  1.0000
  H   H155      1.0  0.39535  0.96488  0.08698  1.0000
  H   H156      1.0  0.54108  0.05052  0.0314  1.0000
  H   H157      1.0  0.40218  0.9464399999999998  0.98077  1.0000
  H   H158      1.0  0.4032699999999999  0.7046099999999998  0.96658  1.0000
  H   H159      1.0  0.46241  0.54827  0.02309  1.0000
  H   H160      1.0  0.3788399999999999  0.7026999999999999  0.07256  1.0000
  C   C1        1.0  0.16736  0.72475  0.47804  1.0000
  C   C2        1.0  0.19747999999999996  0.75424  0.50843  1.0000
  C   C3        1.0  0.11121999999999997  0.6879599999999998  0.48982999999999993  1.0000
  C   C4        1.0  0.21317999999999998  0.68182  0.46098  1.0000
  C   C5        1.0  0.14954  0.7754299999999998  0.45360999999999996  1.0000
  C   C6        1.0  0.20045  0.8608899999999998  0.42772  1.0000
  C   C7        1.0  0.25447  0.8943799999999998  0.42224  1.0000
  C   C8        1.0  0.25224  0.9503  0.40510000000000007  1.0000
  C   C9        1.0  0.31048999999999993  0.9859399999999999  0.40030999999999994  1.0000
  C   C10       1.0  0.19602999999999995  0.9728599999999998  0.39306  1.0000
  C   C11       1.0  0.14253  0.93901  0.39885  1.0000
  C   C12       1.0  0.14461999999999997  0.8832199999999999  0.41606  1.0000
  C   C13       1.0  0.0811  0.9605899999999999  0.3874  1.0000
  C   C14       1.0  0.16835999999999998  0.8253199999999999  0.55087  1.0000
  C   C15       1.0  0.22763999999999998  0.8274799999999998  0.56366  1.0000
  C   C16       1.0  0.23962  0.8625799999999999  0.59208  1.0000
  C   C17       1.0  0.30465999999999993  0.86457  0.60325  1.0000
  C   C18       1.0  0.19251  0.89454  0.60812  1.0000
  C   C19       1.0  0.13283  0.89153  0.5949  1.0000
  C   C20       1.0  0.12105999999999999  0.85755  0.56636  1.0000
  C   C21       1.0  0.08009  0.92388  0.61061  1.0000
  C   C22       1.0  0.04816999999999999  0.6081  0.46578  1.0000
  C   C23       1.0  0.02532  0.58259  0.4365  1.0000
  C   C24       1.0  0.98989  0.52922  0.43747  1.0000
  C   C25       1.0  0.96524  0.5039099999999999  0.40573999999999993  1.0000
  C   C26       1.0  0.97712  0.5004  0.46786  1.0000
  C   C27       1.0  0.00098  0.5255  0.4970300000000001  1.0000
  C   C28       1.0  0.03633  0.5796  0.49607  1.0000
  C   C29       1.0  0.9909999999999998  0.49492  0.52971  1.0000
  C   C30       1.0  0.28942  0.61188  0.48073999999999995  1.0000
  C   C31       1.0  0.31794  0.59159  0.50963  1.0000
  C   C32       1.0  0.37629999999999997  0.5656599999999999  0.5081  1.0000
  C   C33       1.0  0.40637  0.5473399999999999  0.53933  1.0000
  C   C34       1.0  0.40654999999999997  0.5587199999999999  0.47789000000000004  1.0000
  C   C35       1.0  0.37745  0.57913  0.44911999999999996  1.0000
  C   C36       1.0  0.3187999999999999  0.60613  0.45025  1.0000
  C   C37       1.0  0.4090899999999999  0.57081  0.4173299999999999  1.0000
  C   C38       1.0  0.8326399999999999  0.27525  0.9780499999999999  1.0000
  C   C39       1.0  0.80252  0.24575999999999998  0.00843  1.0000
  C   C40       1.0  0.8887899999999999  0.31205  0.98984  1.0000
  C   C41       1.0  0.78683  0.31817999999999996  0.9609799999999998  1.0000
  C   C42       1.0  0.8504699999999998  0.22457  0.95361  1.0000
  C   C43       1.0  0.79956  0.13911  0.9277199999999999  1.0000
  C   C44       1.0  0.74553  0.10562  0.92224  1.0000
  C   C45       1.0  0.7477599999999999  0.04971  0.9050999999999999  1.0000
  C   C46       1.0  0.6895099999999998  0.014059999999999998  0.90031  1.0000
  C   C47       1.0  0.8039699999999997  0.027139999999999994  0.89306  1.0000
  C   C48       1.0  0.85748  0.06098999999999999  0.8988499999999999  1.0000
  C   C49       1.0  0.8553799999999998  0.11677999999999998  0.9160599999999999  1.0000
  C   C50       1.0  0.9189  0.039409999999999994  0.8874  1.0000
  C   C51       1.0  0.83164  0.17469  0.05087  1.0000
  C   C52       1.0  0.7723599999999999  0.17252  0.06366  1.0000
  C   C53       1.0  0.76038  0.13742  0.09208  1.0000
  C   C54       1.0  0.6953399999999998  0.13542999999999997  0.10324999999999998  1.0000
  C   C55       1.0  0.80749  0.10545999999999998  0.10812  1.0000
  C   C56       1.0  0.86717  0.10847  0.0949  1.0000
  C   C57       1.0  0.8789399999999998  0.14246  0.06636  1.0000
  C   C58       1.0  0.9199099999999999  0.07612  0.11060999999999999  1.0000
  C   C59       1.0  0.95183  0.3918999999999999  0.9657799999999999  1.0000
  C   C60       1.0  0.9746799999999998  0.41741  0.93651  1.0000
  C   C61       1.0  0.010109999999999997  0.47077999999999987  0.93747  1.0000
  C   C62       1.0  0.03476  0.49608999999999986  0.90574  1.0000
  C   C63       1.0  0.022879999999999994  0.4996  0.96786  1.0000
  C   C64       1.0  0.9990199999999999  0.4744999999999999  0.9970299999999999  1.0000
  C   C65       1.0  0.96367  0.42039999999999994  0.99607  1.0000
  C   C66       1.0  0.009  0.50508  0.02971  1.0000
  C   C67       1.0  0.7105799999999999  0.3881199999999999  0.9807399999999998  1.0000
  C   C68       1.0  0.6820599999999999  0.40841  0.00963  1.0000
  C   C69       1.0  0.6236999999999999  0.43433999999999995  0.0081  1.0000
  C   C70       1.0  0.5936299999999999  0.45265999999999995  0.03933  1.0000
  C   C71       1.0  0.5934499999999999  0.44128  0.97789  1.0000
  C   C72       1.0  0.62255  0.4208699999999999  0.9491199999999999  1.0000
  C   C73       1.0  0.6812  0.39387  0.9502499999999999  1.0000
  C   C74       1.0  0.59091  0.42919  0.91733  1.0000
  C   C75       1.0  0.77525  0.66736  0.72804  1.0000
  C   C76       1.0  0.7457599999999998  0.69749  0.75843  1.0000
  C   C77       1.0  0.8120499999999998  0.6112199999999999  0.73984  1.0000
  C   C78       1.0  0.8181799999999998  0.71318  0.71098  1.0000
  C   C79       1.0  0.72458  0.64954  0.70361  1.0000
  C   C80       1.0  0.63911  0.70045  0.67772  1.0000
  C   C81       1.0  0.6056199999999999  0.75448  0.67224  1.0000
  C   C82       1.0  0.54971  0.75224  0.6551  1.0000
  C   C83       1.0  0.51406  0.8104899999999999  0.65031  1.0000
  C   C84       1.0  0.52714  0.69603  0.64306  1.0000
  C   C85       1.0  0.56099  0.64253  0.64885  1.0000
  C   C86       1.0  0.61678  0.64462  0.66606  1.0000
  C   C87       1.0  0.5394099999999998  0.5811  0.6374  1.0000
  C   C88       1.0  0.67469  0.66836  0.8008700000000001  1.0000
  C   C89       1.0  0.67252  0.72764  0.81366  1.0000
  C   C90       1.0  0.6374199999999999  0.7396199999999998  0.84208  1.0000
  C   C91       1.0  0.6354299999999998  0.8046599999999999  0.8532500000000001  1.0000
  C   C92       1.0  0.60546  0.69251  0.85812  1.0000
  C   C93       1.0  0.6084699999999998  0.63283  0.8449  1.0000
  C   C94       1.0  0.6424599999999999  0.6210699999999999  0.81636  1.0000
  C   C95       1.0  0.57612  0.5800899999999999  0.86061  1.0000
  C   C96       1.0  0.8919  0.54817  0.7157799999999999  1.0000
  C   C97       1.0  0.9174099999999997  0.52533  0.6865  1.0000
  C   C98       1.0  0.97078  0.48989  0.68747  1.0000
  C   C99       1.0  0.9960999999999999  0.4652399999999999  0.65574  1.0000
  C   C100      1.0  0.9995999999999999  0.47711999999999993  0.71786  1.0000
  C   C101      1.0  0.9745  0.5009799999999999  0.74703  1.0000
  C   C102      1.0  0.9204  0.5363299999999999  0.74607  1.0000
  C   C103      1.0  0.00508  0.4909999999999999  0.77971  1.0000
  C   C104      1.0  0.88812  0.78942  0.73074  1.0000
  C   C105      1.0  0.90841  0.81794  0.75963  1.0000
  C   C106      1.0  0.93434  0.8762999999999999  0.7581  1.0000
  C   C107      1.0  0.95266  0.9063799999999997  0.78933  1.0000
  C   C108      1.0  0.9412899999999997  0.9065599999999998  0.72789  1.0000
  C   C109      1.0  0.9208699999999997  0.8774599999999999  0.69912  1.0000
  C   C110      1.0  0.89387  0.81881  0.70025  1.0000
  C   C111      1.0  0.92919  0.9090999999999999  0.66733  1.0000
  C   C112      1.0  0.22474999999999995  0.33264  0.22804  1.0000
  C   C113      1.0  0.25423999999999997  0.30252  0.25843  1.0000
  C   C114      1.0  0.18794999999999998  0.38878  0.23983  1.0000
  C   C115      1.0  0.18182  0.28681999999999996  0.21098  1.0000
  C   C116      1.0  0.27542999999999995  0.35046  0.20360000000000003  1.0000
  C   C117      1.0  0.36088999999999993  0.29956  0.17772  1.0000
  C   C118      1.0  0.39437999999999995  0.24552999999999997  0.17224  1.0000
  C   C119      1.0  0.4503  0.24776  0.1551  1.0000
  C   C120      1.0  0.48594  0.18951  0.15031  1.0000
  C   C121      1.0  0.47286  0.30397  0.14306  1.0000
  C   C122      1.0  0.43900999999999996  0.35748  0.14885  1.0000
  C   C123      1.0  0.38322  0.3553799999999999  0.16606  1.0000
  C   C124      1.0  0.4605899999999999  0.4189  0.1374  1.0000
  C   C125      1.0  0.32531999999999994  0.33163999999999993  0.30087  1.0000
  C   C126      1.0  0.32748  0.27236  0.31366  1.0000
  C   C127      1.0  0.36258  0.26037999999999994  0.34208  1.0000
  C   C128      1.0  0.36456999999999995  0.19534  0.35325  1.0000
  C   C129      1.0  0.3945399999999999  0.30749  0.35812  1.0000
  C   C130      1.0  0.39153  0.36716999999999994  0.3449  1.0000
  C   C131      1.0  0.35754  0.37893999999999994  0.31636  1.0000
  C   C132      1.0  0.42388  0.41991  0.36061  1.0000
  C   C133      1.0  0.1081  0.4518299999999999  0.21578  1.0000
  C   C134      1.0  0.08259  0.4746799999999999  0.1865  1.0000
  C   C135      1.0  0.029219999999999996  0.51011  0.18747  1.0000
  C   C136      1.0  0.003909999999999999  0.53476  0.15574  1.0000
  C   C137      1.0  0.00039999999999999996  0.52288  0.21785999999999997  1.0000
  C   C138      1.0  0.0255  0.49902  0.24702999999999997  1.0000
  C   C139      1.0  0.07959999999999999  0.46367  0.24606  1.0000
  C   C140      1.0  0.9949199999999999  0.509  0.27971  1.0000
  C   C141      1.0  0.11187999999999997  0.21057999999999996  0.23074  1.0000
  C   C142      1.0  0.09159  0.18206  0.25963  1.0000
  C   C143      1.0  0.06565999999999998  0.1237  0.2581  1.0000
  C   C144      1.0  0.04734  0.09363  0.28933  1.0000
  C   C145      1.0  0.05872  0.09343999999999997  0.22789  1.0000
  C   C146      1.0  0.07913  0.12254  0.19912  1.0000
  C   C147      1.0  0.10613  0.18119  0.20025  1.0000
  C   C148      1.0  0.07081  0.0909  0.16733  1.0000
  C   C149      1.0  0.33264  0.22474999999999995  0.77196  1.0000
  C   C150      1.0  0.30252  0.25423999999999997  0.74157  1.0000
  C   C151      1.0  0.38878  0.18794999999999998  0.76017  1.0000
  C   C152      1.0  0.28681999999999996  0.18182  0.78902  1.0000
  C   C153      1.0  0.35046  0.27542999999999995  0.7964  1.0000
  C   C154      1.0  0.29956  0.36088999999999993  0.82228  1.0000
  C   C155      1.0  0.24552999999999997  0.39437999999999995  0.8277599999999999  1.0000
  C   C156      1.0  0.24776  0.4503  0.8449  1.0000
  C   C157      1.0  0.18951  0.48594  0.8496900000000001  1.0000
  C   C158      1.0  0.30397  0.47286  0.85694  1.0000
  C   C159      1.0  0.35748  0.43900999999999996  0.85116  1.0000
  C   C160      1.0  0.3553799999999999  0.38322  0.83394  1.0000
  C   C161      1.0  0.4189  0.4605899999999999  0.8625999999999999  1.0000
  C   C162      1.0  0.33163999999999993  0.32531999999999994  0.69913  1.0000
  C   C163      1.0  0.27236  0.32748  0.68634  1.0000
  C   C164      1.0  0.26037999999999994  0.36258  0.65792  1.0000
  C   C165      1.0  0.19534  0.36456999999999995  0.64675  1.0000
  C   C166      1.0  0.30749  0.3945399999999999  0.64188  1.0000
  C   C167      1.0  0.36716999999999994  0.39153  0.6551  1.0000
  C   C168      1.0  0.37893999999999994  0.3575499999999999  0.68364  1.0000
  C   C169      1.0  0.41991  0.42388  0.6394  1.0000
  C   C170      1.0  0.4518299999999999  0.1081  0.78422  1.0000
  C   C171      1.0  0.4746799999999999  0.08259  0.8135  1.0000
  C   C172      1.0  0.51011  0.029219999999999996  0.81253  1.0000
  C   C173      1.0  0.53476  0.003909999999999999  0.8442599999999999  1.0000
  C   C174      1.0  0.52288  0.00039999999999999996  0.78214  1.0000
  C   C175      1.0  0.49902  0.0255  0.75297  1.0000
  C   C176      1.0  0.46367  0.07959999999999999  0.75394  1.0000
  C   C177      1.0  0.509  0.9949199999999999  0.72029  1.0000
  C   C178      1.0  0.21057999999999996  0.11187999999999997  0.76926  1.0000
  C   C179      1.0  0.18206  0.09159  0.74037  1.0000
  C   C180      1.0  0.1237  0.06565999999999998  0.74191  1.0000
  C   C181      1.0  0.09363  0.04734  0.71067  1.0000
  C   C182      1.0  0.09343999999999997  0.05872  0.77211  1.0000
  C   C183      1.0  0.12254  0.07913  0.80088  1.0000
  C   C184      1.0  0.18119  0.10613  0.79975  1.0000
  C   C185      1.0  0.0909  0.07081  0.8326699999999999  1.0000
  C   C186      1.0  0.66736  0.77525  0.27196  1.0000
  C   C187      1.0  0.69749  0.7457599999999998  0.24156999999999998  1.0000
  C   C188      1.0  0.6112199999999999  0.8120499999999998  0.26017  1.0000
  C   C189      1.0  0.71318  0.8181799999999998  0.28902  1.0000
  C   C190      1.0  0.64954  0.72458  0.2964  1.0000
  C   C191      1.0  0.70045  0.6391199999999999  0.32228  1.0000
  C   C192      1.0  0.7544699999999999  0.6056199999999999  0.32776  1.0000
  C   C193      1.0  0.75224  0.54971  0.3449  1.0000
  C   C194      1.0  0.8104899999999999  0.51406  0.34969  1.0000
  C   C195      1.0  0.69603  0.52714  0.35694  1.0000
  C   C196      1.0  0.64253  0.56099  0.35115  1.0000
  C   C197      1.0  0.64462  0.61678  0.33394  1.0000
  C   C198      1.0  0.5811  0.5394099999999998  0.3626  1.0000
  C   C199      1.0  0.66836  0.67469  0.19912999999999997  1.0000
  C   C200      1.0  0.72764  0.67252  0.18634  1.0000
  C   C201      1.0  0.7396199999999998  0.6374199999999999  0.15792  1.0000
  C   C202      1.0  0.8046599999999999  0.6354299999999998  0.14675  1.0000
  C   C203      1.0  0.69251  0.60546  0.14188  1.0000
  C   C204      1.0  0.63283  0.6084699999999998  0.1551  1.0000
  C   C205      1.0  0.6210699999999999  0.6424599999999999  0.18364  1.0000
  C   C206      1.0  0.5800899999999999  0.57612  0.13939  1.0000
  C   C207      1.0  0.54817  0.8919  0.28422  1.0000
  C   C208      1.0  0.52532  0.91742  0.3135  1.0000
  C   C209      1.0  0.48989  0.97078  0.31253  1.0000
  C   C210      1.0  0.4652399999999999  0.9960999999999999  0.34426  1.0000
  C   C211      1.0  0.47711999999999993  0.9995999999999999  0.28214  1.0000
  C   C212      1.0  0.5009799999999999  0.9745  0.25297  1.0000
  C   C213      1.0  0.5363299999999999  0.9204  0.25394  1.0000
  C   C214      1.0  0.4909999999999999  0.00508  0.22029  1.0000
  C   C215      1.0  0.78942  0.88812  0.26926  1.0000
  C   C216      1.0  0.81794  0.90841  0.24036999999999997  1.0000
  C   C217      1.0  0.8762999999999999  0.93434  0.2419  1.0000
  C   C218      1.0  0.9063799999999997  0.95266  0.21067  1.0000
  C   C219      1.0  0.9065599999999998  0.9412899999999997  0.27211  1.0000
  C   C220      1.0  0.8774599999999999  0.92088  0.30088  1.0000
  C   C221      1.0  0.81881  0.89387  0.29975  1.0000
  C   C222      1.0  0.9090999999999999  0.92919  0.33267  1.0000
  C   C223      1.0  0.72475  0.16736  0.52196  1.0000
  C   C224      1.0  0.75424  0.19747999999999996  0.49156999999999995  1.0000
  C   C225      1.0  0.6879599999999998  0.11121999999999997  0.51017  1.0000
  C   C226      1.0  0.68182  0.21317999999999998  0.53902  1.0000
  C   C227      1.0  0.7754299999999998  0.14954  0.5464  1.0000
  C   C228      1.0  0.8608899999999998  0.20045  0.57228  1.0000
  C   C229      1.0  0.8943799999999998  0.25447  0.57776  1.0000
  C   C230      1.0  0.9503  0.25224  0.5949  1.0000
  C   C231      1.0  0.9859399999999999  0.31048999999999993  0.59969  1.0000
  C   C232      1.0  0.9728599999999998  0.19602999999999995  0.60694  1.0000
  C   C233      1.0  0.93901  0.14253  0.60116  1.0000
  C   C234      1.0  0.8832199999999999  0.14461999999999997  0.58394  1.0000
  C   C235      1.0  0.9605899999999999  0.0811  0.6126  1.0000
  C   C236      1.0  0.8253199999999999  0.16835999999999998  0.4491299999999999  1.0000
  C   C237      1.0  0.8274799999999998  0.22763999999999998  0.43633999999999995  1.0000
  C   C238      1.0  0.8625799999999999  0.23962  0.40791999999999995  1.0000
  C   C239      1.0  0.86457  0.30465999999999993  0.39675  1.0000
  C   C240      1.0  0.89454  0.19251  0.39188  1.0000
  C   C241      1.0  0.89153  0.13283  0.40510000000000007  1.0000
  C   C242      1.0  0.85755  0.12105999999999999  0.43364  1.0000
  C   C243      1.0  0.92388  0.08009  0.3894  1.0000
  C   C244      1.0  0.6081  0.04816999999999999  0.53422  1.0000
  C   C245      1.0  0.58259  0.02532  0.5635  1.0000
  C   C246      1.0  0.52922  0.98989  0.56253  1.0000
  C   C247      1.0  0.5039099999999999  0.96524  0.59426  1.0000
  C   C248      1.0  0.5004  0.97712  0.53214  1.0000
  C   C249      1.0  0.5255  0.00098  0.50297  1.0000
  C   C250      1.0  0.5796  0.03633  0.50394  1.0000
  C   C251      1.0  0.49492  0.9909999999999998  0.47029  1.0000
  C   C252      1.0  0.61188  0.28942  0.51926  1.0000
  C   C253      1.0  0.59159  0.31794  0.4903699999999999  1.0000
  C   C254      1.0  0.5656599999999999  0.37629999999999997  0.49191000000000007  1.0000
  C   C255      1.0  0.5473399999999999  0.40637  0.46067  1.0000
  C   C256      1.0  0.5587199999999999  0.40656  0.52211  1.0000
  C   C257      1.0  0.57913  0.37745  0.55088  1.0000
  C   C258      1.0  0.60613  0.3187999999999999  0.54975  1.0000
  C   C259      1.0  0.57081  0.4090899999999999  0.58267  1.0000
  C   C260      1.0  0.27525  0.8326399999999999  0.02196  1.0000
  C   C261      1.0  0.24575999999999998  0.80252  0.99157  1.0000
  C   C262      1.0  0.31205  0.8887899999999999  0.01017  1.0000
  C   C263      1.0  0.31817999999999996  0.78683  0.03902  1.0000
  C   C264      1.0  0.22457  0.8504699999999998  0.0464  1.0000
  C   C265      1.0  0.13911  0.79956  0.07228  1.0000
  C   C266      1.0  0.10562  0.74553  0.07776  1.0000
  C   C267      1.0  0.04971  0.7477599999999999  0.0949  1.0000
  C   C268      1.0  0.014059999999999998  0.6895099999999998  0.09969  1.0000
  C   C269      1.0  0.027139999999999994  0.8039699999999997  0.10694  1.0000
  C   C270      1.0  0.06098999999999999  0.85748  0.10115  1.0000
  C   C271      1.0  0.11677999999999998  0.8553799999999998  0.08394  1.0000
  C   C272      1.0  0.039409999999999994  0.9189  0.11259999999999999  1.0000
  C   C273      1.0  0.17468  0.83164  0.94913  1.0000
  C   C274      1.0  0.17252  0.7723599999999999  0.93634  1.0000
  C   C275      1.0  0.13742  0.76038  0.90792  1.0000
  C   C276      1.0  0.13542999999999997  0.6953399999999998  0.89675  1.0000
  C   C277      1.0  0.10545999999999998  0.80749  0.89188  1.0000
  C   C278      1.0  0.10847  0.86717  0.9050999999999999  1.0000
  C   C279      1.0  0.14246  0.8789399999999998  0.93364  1.0000
  C   C280      1.0  0.07612  0.9199099999999999  0.8894  1.0000
  C   C281      1.0  0.3918999999999999  0.95183  0.03422  1.0000
  C   C282      1.0  0.41741  0.9746799999999998  0.0635  1.0000
  C   C283      1.0  0.47077999999999987  0.010109999999999997  0.06253  1.0000
  C   C284      1.0  0.49608999999999986  0.03476  0.09426  1.0000
  C   C285      1.0  0.4996  0.022879999999999994  0.03214  1.0000
  C   C286      1.0  0.4744999999999999  0.9990199999999999  0.00297  1.0000
  C   C287      1.0  0.42039999999999994  0.96367  0.00394  1.0000
  C   C288      1.0  0.50508  0.009  0.9702900000000001  1.0000
  C   C289      1.0  0.3881199999999999  0.7105799999999999  0.01926  1.0000
  C   C290      1.0  0.40841  0.6820599999999999  0.99037  1.0000
  C   C291      1.0  0.43433999999999995  0.6236999999999999  0.99191  1.0000
  C   C292      1.0  0.45265999999999995  0.5936299999999999  0.9606699999999999  1.0000
  C   C293      1.0  0.44128  0.5934499999999999  0.02211  1.0000
  C   C294      1.0  0.4208699999999999  0.62255  0.05088  1.0000
  C   C295      1.0  0.39387  0.6812  0.04975  1.0000
  C   C296      1.0  0.42919  0.59091  0.08266999999999998  1.0000
  O   O1        1.0  0.36024  0.96087  0.41014000000000006  1.0000
  O   O2        1.0  0.30609  0.03906  0.38694  1.0000
  O   O3        1.0  0.024129999999999995  0.5115899999999999  0.55479  1.0000
  O   O4        1.0  0.9513799999999998  0.45241999999999993  0.53338  1.0000
  O   O5        1.0  0.07858  0.0063599999999999985  0.36807  1.0000
  O   O6        1.0  0.03469  0.9300599999999999  0.3986199999999999  1.0000
  O   O7        1.0  0.37893  0.55475  0.56681  1.0000
  O   O8        1.0  0.46075  0.5242499999999999  0.53836  1.0000
  O   O9        1.0  0.9301099999999999  0.45731  0.40823000000000004  1.0000
  O   O10       1.0  0.9812599999999999  0.53024  0.37873  1.0000
  O   O11       1.0  0.08826  0.94868  0.63862  1.0000
  O   O12       1.0  0.029119999999999997  0.92391  0.59438  1.0000
  O   O13       1.0  0.3848099999999999  0.5880599999999999  0.38987  1.0000
  O   O14       1.0  0.46264  0.54534  0.41664000000000007  1.0000
  O   O15       1.0  0.34508999999999995  0.83405  0.5869  1.0000
  O   O16       1.0  0.32146  0.89679  0.62831  1.0000
  O   O17       1.0  0.20582999999999999  0.80686  0.44485  1.0000
  O   O18       1.0  0.15176  0.7934199999999999  0.52314  1.0000
  O   O19       1.0  0.23237  0.6371899999999998  0.48496999999999996  1.0000
  O   O20       1.0  0.08198999999999998  0.6606899999999999  0.46153999999999995  1.0000
  O   O21       1.0  0.63976  0.03914  0.91014  1.0000
  O   O22       1.0  0.69391  0.9609399999999999  0.8869399999999998  1.0000
  O   O23       1.0  0.9758699999999998  0.48841  0.05479  1.0000
  O   O24       1.0  0.04863  0.54758  0.03338  1.0000
  O   O25       1.0  0.9214199999999998  0.9936399999999997  0.86807  1.0000
  O   O26       1.0  0.9653099999999999  0.06994999999999998  0.89862  1.0000
  O   O27       1.0  0.62108  0.44525  0.06681  1.0000
  O   O28       1.0  0.53925  0.47575  0.03836  1.0000
  O   O29       1.0  0.06989  0.5426899999999999  0.9082299999999999  1.0000
  O   O30       1.0  0.01874  0.46977  0.8787299999999999  1.0000
  O   O31       1.0  0.9117399999999999  0.051329999999999994  0.13862  1.0000
  O   O32       1.0  0.9708799999999999  0.07608999999999999  0.09438  1.0000
  O   O33       1.0  0.61519  0.41195  0.88987  1.0000
  O   O34       1.0  0.5373599999999998  0.45467  0.91664  1.0000
  O   O35       1.0  0.65491  0.16595  0.0869  1.0000
  O   O36       1.0  0.6785499999999999  0.10320999999999998  0.12831  1.0000
  O   O37       1.0  0.79418  0.19314  0.9448499999999999  1.0000
  O   O38       1.0  0.84824  0.20658999999999994  0.02314  1.0000
  O   O39       1.0  0.76763  0.36280999999999997  0.98497  1.0000
  O   O40       1.0  0.91801  0.33931  0.96154  1.0000
  O   O41       1.0  0.53914  0.8602399999999999  0.66014  1.0000
  O   O42       1.0  0.46093999999999996  0.80609  0.63694  1.0000
  O   O43       1.0  0.98841  0.52414  0.8047899999999999  1.0000
  O   O44       1.0  0.04758  0.45137999999999995  0.78338  1.0000
  O   O45       1.0  0.49364  0.57858  0.61807  1.0000
  O   O46       1.0  0.5699499999999998  0.5346899999999999  0.64862  1.0000
  O   O47       1.0  0.9452499999999998  0.8789299999999999  0.8168099999999999  1.0000
  O   O48       1.0  0.9757599999999998  0.9607499999999998  0.78836  1.0000
  O   O49       1.0  0.04269  0.43011  0.65823  1.0000
  O   O50       1.0  0.96977  0.48126  0.62873  1.0000
  O   O51       1.0  0.55133  0.5882699999999998  0.8886199999999999  1.0000
  O   O52       1.0  0.57609  0.52912  0.84438  1.0000
  O   O53       1.0  0.91195  0.8848099999999998  0.63987  1.0000
  O   O54       1.0  0.9546599999999997  0.9626599999999998  0.66664  1.0000
  O   O55       1.0  0.66595  0.84509  0.8369  1.0000
  O   O56       1.0  0.6032099999999999  0.82146  0.87831  1.0000
  O   O57       1.0  0.6931399999999999  0.70583  0.69485  1.0000
  O   O58       1.0  0.7065899999999999  0.6517599999999998  0.77314  1.0000
  O   O59       1.0  0.86281  0.7323699999999997  0.73497  1.0000
  O   O60       1.0  0.8393099999999999  0.5819999999999999  0.71154  1.0000
  O   O61       1.0  0.4608699999999999  0.13976  0.16014  1.0000
  O   O62       1.0  0.53906  0.19390999999999997  0.13694  1.0000
  O   O63       1.0  0.01159  0.47587  0.30479  1.0000
  O   O64       1.0  0.9524199999999999  0.54863  0.28338  1.0000
  O   O65       1.0  0.50636  0.42141999999999996  0.11807000000000001  1.0000
  O   O66       1.0  0.43006  0.46531  0.14861  1.0000
  O   O67       1.0  0.05474999999999999  0.12106999999999997  0.31681  1.0000
  O   O68       1.0  0.024249999999999994  0.03925  0.28836  1.0000
  O   O69       1.0  0.95731  0.5698899999999999  0.15823  1.0000
  O   O70       1.0  0.030239999999999993  0.5187399999999999  0.12872  1.0000
  O   O71       1.0  0.44867  0.41174  0.38862  1.0000
  O   O72       1.0  0.4239099999999999  0.4708799999999999  0.34438  1.0000
  O   O73       1.0  0.08804999999999999  0.11519  0.13987  1.0000
  O   O74       1.0  0.04534  0.03735  0.16664  1.0000
  O   O75       1.0  0.33405  0.15491  0.3369  1.0000
  O   O76       1.0  0.39679  0.17853999999999998  0.37831  1.0000
  O   O77       1.0  0.30686  0.29417  0.19485  1.0000
  O   O78       1.0  0.29342  0.34823999999999994  0.27314  1.0000
  O   O79       1.0  0.13719  0.26763  0.23497  1.0000
  O   O80       1.0  0.16068999999999997  0.41801  0.21154  1.0000
  O   O81       1.0  0.13976  0.4608699999999999  0.8398600000000002  1.0000
  O   O82       1.0  0.19390999999999997  0.53906  0.86306  1.0000
  O   O83       1.0  0.47587  0.01159  0.69521  1.0000
  O   O84       1.0  0.54862  0.9524199999999999  0.71662  1.0000
  O   O85       1.0  0.42141999999999996  0.50636  0.8819299999999999  1.0000
  O   O86       1.0  0.46531  0.43006  0.8513899999999999  1.0000
  O   O87       1.0  0.12106999999999997  0.05474999999999999  0.68319  1.0000
  O   O88       1.0  0.03925  0.024249999999999994  0.71164  1.0000
  O   O89       1.0  0.5698899999999999  0.95732  0.8417699999999999  1.0000
  O   O90       1.0  0.5187399999999999  0.030239999999999993  0.87128  1.0000
  O   O91       1.0  0.4117299999999999  0.44868  0.61138  1.0000
  O   O92       1.0  0.4708799999999999  0.4239099999999999  0.65562  1.0000
  O   O93       1.0  0.11519  0.08804999999999999  0.8601299999999998  1.0000
  O   O94       1.0  0.03735  0.04534  0.8333699999999999  1.0000
  O   O95       1.0  0.15491  0.33405  0.6631  1.0000
  O   O96       1.0  0.17853999999999998  0.39679  0.62169  1.0000
  O   O97       1.0  0.29417  0.30686  0.8051499999999999  1.0000
  O   O98       1.0  0.34823999999999994  0.29342  0.72686  1.0000
  O   O99       1.0  0.26763  0.13719  0.76503  1.0000
  O   O100      1.0  0.41801  0.16068999999999997  0.78846  1.0000
  O   O101      1.0  0.8602399999999999  0.53914  0.33986  1.0000
  O   O102      1.0  0.80609  0.46093999999999996  0.36306  1.0000
  O   O103      1.0  0.52414  0.98841  0.19521  1.0000
  O   O104      1.0  0.45137999999999995  0.04758  0.21662  1.0000
  O   O105      1.0  0.57858  0.49364  0.38193  1.0000
  O   O106      1.0  0.5346899999999999  0.5699499999999998  0.35139  1.0000
  O   O107      1.0  0.8789299999999999  0.9452499999999998  0.18319  1.0000
  O   O108      1.0  0.9607499999999998  0.9757599999999998  0.21164000000000002  1.0000
  O   O109      1.0  0.43011  0.04269  0.34177  1.0000
  O   O110      1.0  0.48126  0.96977  0.37128  1.0000
  O   O111      1.0  0.5882699999999998  0.55133  0.11138  1.0000
  O   O112      1.0  0.52912  0.57609  0.15562  1.0000
  O   O113      1.0  0.8848099999999998  0.91195  0.36013  1.0000
  O   O114      1.0  0.9626599999999998  0.9546599999999997  0.33337  1.0000
  O   O115      1.0  0.84509  0.66595  0.1631  1.0000
  O   O116      1.0  0.82146  0.6032099999999999  0.12169  1.0000
  O   O117      1.0  0.70583  0.6931399999999999  0.30515  1.0000
  O   O118      1.0  0.6517599999999998  0.7065899999999999  0.22686  1.0000
  O   O119      1.0  0.7323699999999997  0.86281  0.26503  1.0000
  O   O120      1.0  0.5819899999999999  0.8393099999999999  0.28846  1.0000
  O   O121      1.0  0.96087  0.36024  0.58986  1.0000
  O   O122      1.0  0.03906  0.30609  0.61306  1.0000
  O   O123      1.0  0.5115899999999999  0.024129999999999995  0.44521  1.0000
  O   O124      1.0  0.45241999999999993  0.9513799999999998  0.46662  1.0000
  O   O125      1.0  0.0063599999999999985  0.07858  0.63193  1.0000
  O   O126      1.0  0.9300599999999999  0.03469  0.60139  1.0000
  O   O127      1.0  0.55475  0.37893  0.43319  1.0000
  O   O128      1.0  0.5242499999999999  0.46075  0.46163999999999994  1.0000
  O   O129      1.0  0.45731  0.9301099999999999  0.59177  1.0000
  O   O130      1.0  0.53024  0.9812599999999999  0.62128  1.0000
  O   O131      1.0  0.94868  0.08826999999999999  0.36138  1.0000
  O   O132      1.0  0.92391  0.029119999999999997  0.40562  1.0000
  O   O133      1.0  0.58805  0.3848099999999999  0.61014  1.0000
  O   O134      1.0  0.54534  0.46264  0.58337  1.0000
  O   O135      1.0  0.83405  0.34508999999999995  0.4131  1.0000
  O   O136      1.0  0.89679  0.32146  0.37169  1.0000
  O   O137      1.0  0.80686  0.20582999999999999  0.55515  1.0000
  O   O138      1.0  0.7934199999999999  0.15176  0.47685999999999995  1.0000
  O   O139      1.0  0.6371899999999998  0.23237  0.51503  1.0000
  O   O140      1.0  0.6606899999999999  0.08198999999999998  0.53846  1.0000
  O   O141      1.0  0.03914  0.63976  0.08986  1.0000
  O   O142      1.0  0.9609399999999999  0.69391  0.11305999999999998  1.0000
  O   O143      1.0  0.48841  0.9758699999999998  0.94521  1.0000
  O   O144      1.0  0.54758  0.04863  0.96662  1.0000
  O   O145      1.0  0.9936399999999997  0.9214299999999999  0.13193  1.0000
  O   O146      1.0  0.06994999999999998  0.9653099999999999  0.10139000000000001  1.0000
  O   O147      1.0  0.44525  0.62108  0.9332  1.0000
  O   O148      1.0  0.47575  0.53925  0.9616399999999999  1.0000
  O   O149      1.0  0.5426899999999999  0.06989  0.09177  1.0000
  O   O150      1.0  0.46977  0.01874  0.12128  1.0000
  O   O151      1.0  0.051329999999999994  0.9117399999999999  0.86138  1.0000
  O   O152      1.0  0.07608999999999999  0.9708799999999999  0.9056200000000001  1.0000
  O   O153      1.0  0.41195  0.61519  0.11012999999999999  1.0000
  O   O154      1.0  0.45467  0.5373599999999998  0.08337  1.0000
  O   O155      1.0  0.16595  0.65491  0.9130999999999999  1.0000
  O   O156      1.0  0.10320999999999998  0.6785499999999999  0.8716900000000001  1.0000
  O   O157      1.0  0.19314  0.79418  0.05514999999999999  1.0000
  O   O158      1.0  0.20658  0.84824  0.97686  1.0000
  O   O159      1.0  0.36280999999999997  0.76764  0.015029999999999998  1.0000
  O   O160      1.0  0.33931  0.91801  0.03846  1.0000
