data_image0
_chemical_formula_structural       Mn24H456C408N64O72
_chemical_formula_sum              "Mn24 H456 C408 N64 O72"
_cell_length_a       17.39705
_cell_length_b       29.96992
_cell_length_c       29.9597
_cell_angle_alpha    85.14129000000001
_cell_angle_beta     73.18680999999998
_cell_angle_gamma    73.15815

_symmetry_space_group_name_H-M    'P 1'
_symmetry_Int_Tables_number       1

loop_
  _symmetry_equiv_pos_as_xyz
  'x,y,z'

loop_
  _atom_site_type_symbol
  _atom_site_label
  _atom_site_symmetry_multiplicity
  _atom_site_fract_x
  _atom_site_fract_y
  _atom_site_fract_z
  _atom_site_occupancy
  Mn  Mn1       1.0  0.55904  0.08334  0.3569199999999999  1.0000
  Mn  Mn2       1.0  0.28223000000000004  0.11331  0.4610999999999999  1.0000
  Mn  Mn3       1.0  0.7894000000000001  0.99888  0.4188999999999999  1.0000
  Mn  Mn4       1.0  0.99887  0.41688000000000003  0.14332999999999996  1.0000
  Mn  Mn5       1.0  0.8554200000000001  0.38678  0.03917  1.0000
  Mn  Mn6       1.0  0.2079400000000001  0.50087  0.08088  1.0000
  Mn  Mn7       1.0  0.14092000000000007  0.3575  0.4171399999999999  1.0000
  Mn  Mn8       1.0  0.89575  0.46224  0.38558  1.0000
  Mn  Mn9       1.0  0.28838  0.41895  0.50116  1.0000
  Mn  Mn10      1.0  0.9160400000000001  0.14334  0.08320999999999998  1.0000
  Mn  Mn11      1.0  0.74266  0.03918  0.11325999999999997  1.0000
  Mn  Mn12      1.0  0.2085599999999999  0.08095  0.99876  1.0000
  Mn  Mn13      1.0  0.44095000000000006  0.91666  0.6430799999999998  1.0000
  Mn  Mn14      1.0  0.7177600000000001  0.88669  0.53889  1.0000
  Mn  Mn15      1.0  0.21059000000000008  0.0011200000000000001  0.5810999999999997  1.0000
  Mn  Mn16      1.0  0.0011300000000000912  0.58312  0.8566699999999998  1.0000
  Mn  Mn17      1.0  0.1445800000000001  0.61322  0.9608299999999997  1.0000
  Mn  Mn18      1.0  0.7920600000000005  0.49914  0.9191199999999998  1.0000
  Mn  Mn19      1.0  0.85908  0.64251  0.58285  1.0000
  Mn  Mn20      1.0  0.10424999999999994  0.53776  0.61442  1.0000
  Mn  Mn21      1.0  0.71161  0.58106  0.4988399999999999  1.0000
  Mn  Mn22      1.0  0.08395999999999999  0.85666  0.91679  1.0000
  Mn  Mn23      1.0  0.25734  0.9608300000000001  0.88674  1.0000
  Mn  Mn24      1.0  0.7914399999999999  0.91906  0.0012399999999999996  1.0000
  H   H1        1.0  0.32151000000000013  0.24619  0.4062699999999999  1.0000
  H   H2        1.0  0.3683199999999999  0.31053000000000003  0.36133  1.0000
  H   H3        1.0  0.51314  0.29403  0.30615  1.0000
  H   H4        1.0  0.6086  0.21307  0.29944  1.0000
  H   H5        1.0  0.4515500000000001  0.96982  0.4374299999999999  1.0000
  H   H6        1.0  0.34942  0.007410000000000001  0.4460099999999999  1.0000
  H   H7        1.0  0.46666999999999986  0.96555  0.3517099999999999  1.0000
  H   H8        1.0  0.36183000000000004  0.9988999999999999  0.3606599999999999  1.0000
  H   H9        1.0  0.4172400000000001  0.90376  0.4065999999999999  1.0000
  H   H10       1.0  0.38428000000000007  0.91191  0.3556699999999999  1.0000
  H   H11       1.0  0.27635999999999994  0.95201  0.45178  1.0000
  H   H12       1.0  0.24423000000000017  0.96387  0.4006699999999999  1.0000
  H   H13       1.0  0.28906  0.86705  0.4464299999999999  1.0000
  H   H14       1.0  0.1882300000000001  0.90034  0.4426599999999999  1.0000
  H   H15       1.0  0.26694  0.87582  0.3917899999999999  1.0000
  H   H16       1.0  0.6124100000000003  0.0891  0.24478  1.0000
  H   H17       1.0  0.55469  0.0922  0.17757  1.0000
  H   H18       1.0  0.32014000000000004  0.0879  0.27666  1.0000
  H   H19       1.0  0.38643  0.08625  0.3394499999999999  1.0000
  H   H20       1.0  0.43257999999999996  0.05779  0.16016  1.0000
  H   H21       1.0  0.41212000000000015  0.11802999999999998  0.15644999999999995  1.0000
  H   H22       1.0  0.06532000000000002  0.01091  0.48734  1.0000
  H   H23       1.0  0.02052000000000005  0.00959  0.4153599999999999  1.0000
  H   H24       1.0  0.08288000000000009  0.05071  0.3440199999999999  1.0000
  H   H25       1.0  0.18190999999999996  0.09561  0.34657  1.0000
  H   H26       1.0  0.3262900000000002  0.0503  0.6077999999999998  1.0000
  H   H27       1.0  0.4085400000000002  0.07154  0.5722199999999997  1.0000
  H   H28       1.0  0.3473300000000001  0.11647  0.64462  1.0000
  H   H29       1.0  0.32721000000000006  0.15342  0.5979599999999999  1.0000
  H   H30       1.0  0.20154000000000014  0.10751  0.6651799999999998  1.0000
  H   H31       1.0  0.18181  0.14291  0.6179399999999999  1.0000
  H   H32       1.0  0.22448000000000015  0.17424  0.7006999999999998  1.0000
  H   H33       1.0  0.20725000000000002  0.20954000000000003  0.6528899999999997  1.0000
  H   H34       1.0  0.07671000000000008  0.16657  0.7210699999999999  1.0000
  H   H35       1.0  0.07678000000000003  0.22584  0.72019  1.0000
  H   H36       1.0  0.059260000000000077  0.20235000000000003  0.6728499999999997  1.0000
  H   H37       1.0  0.7604100000000001  0.01394  0.24380999999999994  1.0000
  H   H38       1.0  0.89025  0.96926  0.18869  1.0000
  H   H39       1.0  0.009659999999999985  0.92235  0.21964999999999996  1.0000
  H   H40       1.0  0.99648  0.9233  0.30461  1.0000
  H   H41       1.0  0.54089  0.07877  0.5117299999999998  1.0000
  H   H42       1.0  0.5119200000000002  0.10867  0.4629399999999999  1.0000
  H   H43       1.0  0.53713  0.15921  0.51849  1.0000
  H   H44       1.0  0.6429500000000001  0.12634  0.5042499999999999  1.0000
  H   H45       1.0  0.55268  0.18325  0.4347299999999999  1.0000
  H   H46       1.0  0.6574100000000002  0.15016  0.4196  1.0000
  H   H47       1.0  0.5817100000000002  0.23453  0.4855699999999999  1.0000
  H   H48       1.0  0.6856200000000001  0.19978  0.4748999999999999  1.0000
  H   H49       1.0  0.71015  0.21945  0.3882799999999999  1.0000
  H   H50       1.0  0.68047  0.27012  0.42284  1.0000
  H   H51       1.0  0.6066600000000001  0.25598  0.40011999999999986  1.0000
  H   H52       1.0  0.29663  0.01694  0.06589  1.0000
  H   H53       1.0  0.32009000000000004  0.017690000000000004  0.14419999999999994  1.0000
  H   H54       1.0  0.24022  0.16799  0.13860999999999998  1.0000
  H   H55       1.0  0.21705  0.16094  0.06146999999999998  1.0000
  H   H56       1.0  0.26738  0.12737  0.21159999999999995  1.0000
  H   H57       1.0  0.2883  0.06589  0.21569999999999995  1.0000
  H   H58       1.0  0.9748800000000001  0.25399  0.09278999999999998  1.0000
  H   H59       1.0  0.04100999999999999  0.18949  0.13762999999999997  1.0000
  H   H60       1.0  0.11157000000000003  0.20606999999999998  0.19422  1.0000
  H   H61       1.0  0.11849  0.28713  0.20169  1.0000
  H   H62       1.0  0.8592400000000001  0.53045  0.06243999999999999  1.0000
  H   H63       1.0  0.80361  0.49267  0.05374  1.0000
  H   H64       1.0  0.7843800000000001  0.53428  0.14831999999999995  1.0000
  H   H65       1.0  0.7222000000000002  0.5009  0.13889999999999997  1.0000
  H   H66       1.0  0.72757  0.59642  0.09368999999999997  1.0000
  H   H67       1.0  0.6522899999999999  0.5877300000000001  0.14453  1.0000
  H   H68       1.0  0.6804599999999998  0.54795  0.04824  1.0000
  H   H69       1.0  0.6092699999999999  0.53594  0.09934  1.0000
  H   H70       1.0  0.6024300000000001  0.63287  0.053659999999999985  1.0000
  H   H71       1.0  0.53153  0.5993  0.05733999999999999  1.0000
  H   H72       1.0  0.53464  0.6239  0.10827  1.0000
  H   H73       1.0  0.94466  0.41230999999999995  0.25498  1.0000
  H   H74       1.0  0.8233400000000001  0.40833  0.32193  1.0000
  H   H75       1.0  0.6836800000000001  0.41288  0.22256  1.0000
  H   H76       1.0  0.81067  0.41548  0.15999  1.0000
  H   H77       1.0  0.65039  0.44148  0.3397499999999999  1.0000
  H   H78       1.0  0.68682  0.38119  0.34237  1.0000
  H   H79       1.0  0.5624300000000001  0.48979  0.012859999999999996  1.0000
  H   H80       1.0  0.44493  0.49122  0.08498999999999998  1.0000
  H   H81       1.0  0.4772300000000001  0.44958  0.15610999999999994  1.0000
  H   H82       1.0  0.62382  0.40455  0.15324999999999994  1.0000
  H   H83       1.0  0.98344  0.44985  0.8926199999999997  1.0000
  H   H84       1.0  0.050590000000000176  0.42883  0.9287099999999998  1.0000
  H   H85       1.0  0.10771000000000008  0.38387  0.8561599999999998  1.0000
  H   H86       1.0  0.0778000000000001  0.34690999999999994  0.9027399999999998  1.0000
  H   H87       1.0  0.9738900000000001  0.39259  0.8351999999999999  1.0000
  H   H88       1.0  0.94238  0.35709  0.88232  1.0000
  H   H89       1.0  0.09920000000000014  0.32597  0.7997999999999997  1.0000
  H   H90       1.0  0.06935999999999996  0.29061  0.84749  1.0000
  H   H91       1.0  0.96411  0.33369  0.77927  1.0000
  H   H92       1.0  0.02256000000000014  0.27439  0.7799699999999998  1.0000
  H   H93       1.0  0.93439  0.29773  0.82734  1.0000
  H   H94       1.0  0.01881000000000005  0.48635  0.25600999999999996  1.0000
  H   H95       1.0  0.048460000000000135  0.53166  0.3108199999999999  1.0000
  H   H96       1.0  0.15240000000000015  0.57821  0.2798199999999999  1.0000
  H   H97       1.0  0.22492999999999996  0.57699  0.1949  1.0000
  H   H98       1.0  0.13163000000000016  0.42063  0.9882299999999998  1.0000
  H   H99       1.0  0.08366000000000001  0.3910699999999999  0.0372  1.0000
  H   H100      1.0  0.21484000000000011  0.34019  0.9817499999999998  1.0000
  H   H101      1.0  0.27354000000000006  0.37326  0.9959199999999998  1.0000
  H   H102      1.0  0.17059  0.31655  0.06565  1.0000
  H   H103      1.0  0.22749  0.34961  0.08062  1.0000
  H   H104      1.0  0.30154999999999993  0.26517  0.01482  1.0000
  H   H105      1.0  0.36023  0.29983  0.025529999999999994  1.0000
  H   H106      1.0  0.31791  0.28026  0.11210999999999997  1.0000
  H   H107      1.0  0.37305000000000005  0.22949  0.07762999999999998  1.0000
  H   H108      1.0  0.26245000000000007  0.24382  0.10031  1.0000
  H   H109      1.0  0.38051000000000007  0.48277999999999993  0.4343499999999999  1.0000
  H   H110      1.0  0.48211000000000037  0.48216  0.3558899999999999  1.0000
  H   H111      1.0  0.54676  0.33186  0.3613099999999999  1.0000
  H   H112      1.0  0.4400900000000001  0.33876  0.4385199999999999  1.0000
  H   H113      1.0  0.6049900000000001  0.3726  0.2879299999999999  1.0000
  H   H114      1.0  0.5687700000000001  0.43412  0.28411  1.0000
  H   H115      1.0  0.06732000000000002  0.40654  0.25399  1.0000
  H   H116      1.0  0.17881000000000002  0.36162  0.18980999999999995  1.0000
  H   H117      1.0  0.30664  0.30637  0.20683  1.0000
  H   H118      1.0  0.3206400000000001  0.2996  0.2878999999999999  1.0000
  H   H119      1.0  0.9192499999999999  0.43837000000000004  0.5298  1.0000
  H   H120      1.0  0.8554000000000004  0.446  0.49191  1.0000
  H   H121      1.0  0.9316800000000001  0.35222  0.5343599999999997  1.0000
  H   H122      1.0  0.85989  0.36082  0.50116  1.0000
  H   H123      1.0  0.82067  0.40682  0.59623  1.0000
  H   H124      1.0  0.7960400000000001  0.35585  0.58813  1.0000
  H   H125      1.0  0.72755  0.45196  0.54804  1.0000
  H   H126      1.0  0.70754  0.40079  0.53621  1.0000
  H   H127      1.0  0.65585  0.44634  0.6330699999999998  1.0000
  H   H128      1.0  0.5881399999999999  0.44258  0.59981  1.0000
  H   H129      1.0  0.64265  0.3917  0.6242899999999998  1.0000
  H   H130      1.0  0.20066  0.24545  0.41136999999999996  1.0000
  H   H131      1.0  0.14666  0.17807000000000003  0.40798  1.0000
  H   H132      1.0  0.9073699999999999  0.2768  0.4122699999999999  1.0000
  H   H133      1.0  0.9715000000000005  0.33975  0.41415999999999986  1.0000
  H   H134      1.0  0.99089  0.16025  0.4421199999999999  1.0000
  H   H135      1.0  0.03038000000000005  0.15674  0.3818799999999999  1.0000
  H   H136      1.0  0.5774900000000004  0.48673  0.48947  1.0000
  H   H137      1.0  0.53282  0.41437  0.4905299999999999  1.0000
  H   H138      1.0  0.63626  0.34391  0.4480499999999999  1.0000
  H   H139      1.0  0.7787699999999999  0.34766  0.40209  1.0000
  H   H140      1.0  0.8750400000000002  0.60856  0.4499199999999999  1.0000
  H   H141      1.0  0.97888  0.5733  0.42955  1.0000
  H   H142      1.0  0.96291  0.64567  0.38434999999999997  1.0000
  H   H143      1.0  0.9809300000000003  0.59897  0.34727999999999987  1.0000
  H   H144      1.0  0.80892  0.66593  0.39241  1.0000
  H   H145      1.0  0.8248200000000002  0.61843  0.35737999999999986  1.0000
  H   H146      1.0  0.8986199999999999  0.70116  0.32543  1.0000
  H   H147      1.0  0.91683  0.65309  0.29051  1.0000
  H   H148      1.0  0.7432300000000002  0.72121  0.3329699999999999  1.0000
  H   H149      1.0  0.8024999999999999  0.7200500000000001  0.27365999999999996  1.0000
  H   H150      1.0  0.76179  0.67274  0.2975799999999999  1.0000
  H   H151      1.0  0.2737  0.24389000000000002  0.4858299999999999  1.0000
  H   H152      1.0  0.35903000000000007  0.18873000000000004  0.53053  1.0000
  H   H153      1.0  0.43179999999999996  0.21938  0.5774199999999998  1.0000
  H   H154      1.0  0.41925000000000023  0.30433  0.5767199999999998  1.0000
  H   H155      1.0  0.12012  0.51217  0.42079999999999995  1.0000
  H   H156      1.0  0.12043999999999996  0.46352  0.39108  1.0000
  H   H157      1.0  0.19676000000000005  0.51873  0.3402699999999999  1.0000
  H   H158      1.0  0.2696700000000001  0.5044  0.37333  1.0000
  H   H159      1.0  0.23585  0.43487  0.31664  1.0000
  H   H160      1.0  0.30756  0.41978  0.3497899999999999  1.0000
  H   H161      1.0  0.31643000000000004  0.4855  0.2651899999999999  1.0000
  H   H162      1.0  0.38565999999999995  0.47488  0.29996  1.0000
  H   H163      1.0  0.42937  0.38823  0.28074  1.0000
  H   H164      1.0  0.45064999999999994  0.42262999999999995  0.22986  1.0000
  H   H165      1.0  0.3625800000000001  0.40005000000000007  0.24402999999999994  1.0000
  H   H166      1.0  0.81371  0.06585  0.48311  1.0000
  H   H167      1.0  0.8380600000000001  0.14411  0.48232999999999987  1.0000
  H   H168      1.0  0.9082899999999999  0.13863  0.3319899999999999  1.0000
  H   H169      1.0  0.8777399999999999  0.06161  0.33909  1.0000
  H   H170      1.0  0.89469  0.21159000000000003  0.37256999999999996  1.0000
  H   H171      1.0  0.8544000000000006  0.2156  0.4340499999999999  1.0000
  H   H172      1.0  0.7285500000000001  0.09327  0.24602999999999994  1.0000
  H   H173      1.0  0.73032  0.13804  0.3105099999999999  1.0000
  H   H174      1.0  0.81941  0.1935  0.29424  1.0000
  H   H175      1.0  0.90678  0.20135  0.21319  1.0000
  H   H176      1.0  0.8893500000000003  0.06273  0.9694399999999997  1.0000
  H   H177      1.0  0.79619  0.05394000000000001  0.0074399999999999996  1.0000
  H   H178      1.0  0.81849  0.14845  0.9654699999999999  1.0000
  H   H179      1.0  0.72298  0.13919000000000004  0.9990599999999998  1.0000
  H   H180      1.0  0.8234899999999999  0.09386  0.9036299999999998  1.0000
  H   H181      1.0  0.7395600000000002  0.14465000000000003  0.9121199999999998  1.0000
  H   H182      1.0  0.7280700000000002  0.04838  0.95213  1.0000
  H   H183      1.0  0.6447799999999999  0.09939  0.96384  1.0000
  H   H184      1.0  0.7356900000000001  0.0537  0.8670699999999998  1.0000
  H   H185      1.0  0.6311900000000001  0.0572  0.9002799999999997  1.0000
  H   H186      1.0  0.65875  0.10819  0.8757099999999998  1.0000
  H   H187      1.0  0.8573300000000003  0.25487  0.089  1.0000
  H   H188      1.0  0.7324299999999999  0.3221  0.09265  1.0000
  H   H189      1.0  0.59671  0.22317  0.08779999999999998  1.0000
  H   H190      1.0  0.72602  0.16036  0.08533  1.0000
  H   H191      1.0  0.59315  0.33964000000000005  0.05802  1.0000
  H   H192      1.0  0.56908  0.34323  0.11827999999999997  1.0000
  H   H193      1.0  0.55216  0.01262  0.01079  1.0000
  H   H194      1.0  0.43591  0.08459  0.008969999999999997  1.0000
  H   H195      1.0  0.4264299999999999  0.15586000000000003  0.05036999999999999  1.0000
  H   H196      1.0  0.52796  0.15334  0.09531999999999997  1.0000
  H   H197      1.0  0.9338100000000001  0.8929  0.05014  1.0000
  H   H198      1.0  0.9795999999999998  0.9286900000000001  0.07176999999999997  1.0000
  H   H199      1.0  0.9919700000000001  0.8557399999999998  0.11602  1.0000
  H   H200      1.0  0.9257000000000002  0.90207  0.15329999999999994  1.0000
  H   H201      1.0  0.8669300000000001  0.83486  0.10755999999999998  1.0000
  H   H202      1.0  0.7999499999999999  0.882  0.14293  1.0000
  H   H203      1.0  0.92526  0.79936  0.17441999999999996  1.0000
  H   H204      1.0  0.8602399999999999  0.8471  0.20963  1.0000
  H   H205      1.0  0.7978700000000001  0.77907  0.16643  1.0000
  H   H206      1.0  0.79668  0.77983  0.22580999999999998  1.0000
  H   H207      1.0  0.7323499999999998  0.82726  0.20211999999999997  1.0000
  H   H208      1.0  0.00478999999999999  0.25632  0.014129999999999997  1.0000
  H   H209      1.0  0.07989000000000002  0.31125  0.96921  1.0000
  H   H210      1.0  0.23002000000000009  0.28018  0.9223899999999998  1.0000
  H   H211      1.0  0.3011200000000001  0.19519999999999998  0.9233999999999998  1.0000
  H   H212      1.0  0.053010000000000085  0.98796  0.07872999999999997  1.0000
  H   H213      1.0  0.9751099999999999  0.03677  0.10832999999999997  1.0000
  H   H214      1.0  0.05495000000000005  0.98129  0.15947  1.0000
  H   H215      1.0  0.14683  0.99532  0.12671  1.0000
  H   H216      1.0  0.9872599999999999  0.06509  0.18314  1.0000
  H   H217      1.0  0.0771  0.08008  0.15004  1.0000
  H   H218      1.0  0.06698000000000004  0.01432  0.23464999999999994  1.0000
  H   H219      1.0  0.16015000000000001  0.02506  0.19990999999999995  1.0000
  H   H220      1.0  0.09823000000000004  0.11161  0.21928999999999996  1.0000
  H   H221      1.0  0.10284000000000004  0.07722  0.27015  1.0000
  H   H222      1.0  0.006470000000000008  0.09981  0.25579  1.0000
  H   H223      1.0  0.36315000000000003  0.43403  0.01681  1.0000
  H   H224      1.0  0.46538000000000007  0.35602  0.017709999999999997  1.0000
  H   H225      1.0  0.37931000000000004  0.3614  0.16803999999999994  1.0000
  H   H226      1.0  0.27853000000000006  0.43822  0.1608  1.0000
  H   H227      1.0  0.47883  0.28836  0.12763  1.0000
  H   H228      1.0  0.5039099999999999  0.28426  0.06612  1.0000
  H   H229      1.0  0.6784900000000001  0.75381  0.5937299999999998  1.0000
  H   H230      1.0  0.6316700000000003  0.68947  0.63866  1.0000
  H   H231      1.0  0.48685000000000017  0.70597  0.6938399999999998  1.0000
  H   H232      1.0  0.39139999999999997  0.78693  0.70056  1.0000
  H   H233      1.0  0.54844  0.030189999999999998  0.5625599999999997  1.0000
  H   H234      1.0  0.6505800000000003  0.99259  0.5539899999999998  1.0000
  H   H235      1.0  0.53333  0.03445  0.64829  1.0000
  H   H236      1.0  0.63817  0.0010999999999999996  0.63933  1.0000
  H   H237      1.0  0.5827500000000003  0.09625  0.5933899999999998  1.0000
  H   H238      1.0  0.6157200000000003  0.08809  0.6443299999999997  1.0000
  H   H239      1.0  0.72364  0.04799  0.54821  1.0000
  H   H240      1.0  0.75577  0.03613  0.59932  1.0000
  H   H241      1.0  0.71094  0.13295  0.55357  1.0000
  H   H242      1.0  0.8117600000000001  0.09966  0.55734  1.0000
  H   H243      1.0  0.7330600000000003  0.12418  0.6082099999999999  1.0000
  H   H244      1.0  0.38759  0.9109  0.7552099999999999  1.0000
  H   H245      1.0  0.44531000000000015  0.9078  0.8224299999999998  1.0000
  H   H246      1.0  0.67986  0.9120999999999999  0.72333  1.0000
  H   H247      1.0  0.6135700000000002  0.91376  0.6605499999999997  1.0000
  H   H248      1.0  0.56742  0.94221  0.8398399999999998  1.0000
  H   H249      1.0  0.58788  0.8819800000000001  0.84354  1.0000
  H   H250      1.0  0.93468  0.9890899999999999  0.51265  1.0000
  H   H251      1.0  0.97948  0.99041  0.5846399999999999  1.0000
  H   H252      1.0  0.91712  0.94929  0.65598  1.0000
  H   H253      1.0  0.8180900000000001  0.90439  0.65343  1.0000
  H   H254      1.0  0.6737  0.9497  0.3922  1.0000
  H   H255      1.0  0.59146  0.92846  0.4277799999999999  1.0000
  H   H256      1.0  0.6526700000000002  0.88353  0.3553699999999999  1.0000
  H   H257      1.0  0.6727800000000003  0.84658  0.4020399999999999  1.0000
  H   H258      1.0  0.7984600000000001  0.89249  0.33482  1.0000
  H   H259      1.0  0.8181900000000001  0.85709  0.3820499999999999  1.0000
  H   H260      1.0  0.77552  0.82576  0.2993  1.0000
  H   H261      1.0  0.7927500000000001  0.7904600000000002  0.34710999999999986  1.0000
  H   H262      1.0  0.9232900000000002  0.8334300000000001  0.27892999999999996  1.0000
  H   H263      1.0  0.9232100000000001  0.77416  0.27981  1.0000
  H   H264      1.0  0.94074  0.79765  0.32715  1.0000
  H   H265      1.0  0.23959000000000005  0.9860600000000002  0.7561899999999998  1.0000
  H   H266      1.0  0.10975000000000008  0.030740000000000007  0.8112999999999999  1.0000
  H   H267      1.0  0.9903399999999999  0.07765  0.7803399999999998  1.0000
  H   H268      1.0  0.003510000000000114  0.0767  0.6953899999999997  1.0000
  H   H269      1.0  0.4591  0.9212400000000001  0.48826999999999987  1.0000
  H   H270      1.0  0.48808000000000007  0.89133  0.53706  1.0000
  H   H271      1.0  0.46287000000000006  0.84079  0.48149999999999993  1.0000
  H   H272      1.0  0.35705  0.87366  0.4957399999999999  1.0000
  H   H273      1.0  0.4473200000000002  0.81675  0.56526  1.0000
  H   H274      1.0  0.3425800000000001  0.8498400000000002  0.5803999999999998  1.0000
  H   H275      1.0  0.41828000000000004  0.76547  0.51443  1.0000
  H   H276      1.0  0.31437  0.80022  0.5251  1.0000
  H   H277      1.0  0.28985000000000005  0.78055  0.6117099999999999  1.0000
  H   H278      1.0  0.31951999999999997  0.72988  0.5771599999999998  1.0000
  H   H279      1.0  0.3933300000000001  0.74402  0.5998799999999997  1.0000
  H   H280      1.0  0.7033700000000002  0.98306  0.9340999999999998  1.0000
  H   H281      1.0  0.6799100000000002  0.98231  0.8557999999999998  1.0000
  H   H282      1.0  0.75977  0.83202  0.86139  1.0000
  H   H283      1.0  0.78295  0.83906  0.9385299999999998  1.0000
  H   H284      1.0  0.7326200000000004  0.87264  0.78839  1.0000
  H   H285      1.0  0.7116899999999999  0.93412  0.7843  1.0000
  H   H286      1.0  0.025120000000000094  0.74602  0.9072099999999997  1.0000
  H   H287      1.0  0.9589800000000002  0.81051  0.8623699999999997  1.0000
  H   H288      1.0  0.88843  0.79393  0.8057799999999998  1.0000
  H   H289      1.0  0.88151  0.71287  0.7983  1.0000
  H   H290      1.0  0.14075000000000004  0.46955  0.9375599999999998  1.0000
  H   H291      1.0  0.19639000000000006  0.50734  0.94625  1.0000
  H   H292      1.0  0.21562000000000006  0.46572  0.8516799999999999  1.0000
  H   H293      1.0  0.27780000000000016  0.49910999999999994  0.8610999999999998  1.0000
  H   H294      1.0  0.2724199999999999  0.40358  0.9063  1.0000
  H   H295      1.0  0.3477100000000001  0.4122700000000001  0.8554599999999998  1.0000
  H   H296      1.0  0.31953000000000026  0.45206  0.9517599999999998  1.0000
  H   H297      1.0  0.39072000000000007  0.46406  0.90066  1.0000
  H   H298      1.0  0.3975699999999999  0.36713  0.94633  1.0000
  H   H299      1.0  0.46847000000000016  0.4007  0.9426499999999998  1.0000
  H   H300      1.0  0.46535000000000004  0.37610000000000005  0.8917299999999998  1.0000
  H   H301      1.0  0.0553300000000001  0.58769  0.7450099999999997  1.0000
  H   H302      1.0  0.17666000000000015  0.59167  0.6780699999999997  1.0000
  H   H303      1.0  0.31632000000000005  0.58712  0.7774399999999998  1.0000
  H   H304      1.0  0.1893300000000003  0.5845199999999999  0.8400099999999998  1.0000
  H   H305      1.0  0.3496100000000001  0.55852  0.66025  1.0000
  H   H306      1.0  0.3131800000000001  0.61882  0.6576299999999999  1.0000
  H   H307      1.0  0.43756  0.51021  0.98714  1.0000
  H   H308      1.0  0.5550600000000001  0.50879  0.91501  1.0000
  H   H309      1.0  0.52277  0.55042  0.84388  1.0000
  H   H310      1.0  0.37617000000000006  0.59545  0.8467499999999998  1.0000
  H   H311      1.0  0.016549999999999968  0.55015  0.10737999999999998  1.0000
  H   H312      1.0  0.94941  0.57117  0.07128999999999998  1.0000
  H   H313      1.0  0.89229  0.61613  0.14383999999999994  1.0000
  H   H314      1.0  0.9222000000000001  0.65309  0.09726  1.0000
  H   H315      1.0  0.026110000000000036  0.60741  0.16479999999999995  1.0000
  H   H316      1.0  0.057609999999999995  0.64292  0.11767999999999998  1.0000
  H   H317      1.0  0.9007999999999999  0.6740300000000001  0.20019999999999996  1.0000
  H   H318      1.0  0.9306400000000001  0.7093900000000001  0.15251  1.0000
  H   H319      1.0  0.03588999999999995  0.66631  0.22072999999999998  1.0000
  H   H320      1.0  0.97744  0.72561  0.22002999999999995  1.0000
  H   H321      1.0  0.06561  0.70227  0.17264999999999994  1.0000
  H   H322      1.0  0.9811900000000001  0.51365  0.74399  1.0000
  H   H323      1.0  0.9515300000000001  0.46834  0.6891699999999997  1.0000
  H   H324      1.0  0.8476000000000001  0.42179000000000005  0.72018  1.0000
  H   H325      1.0  0.7750700000000003  0.42301  0.8050999999999998  1.0000
  H   H326      1.0  0.8683700000000001  0.57937  0.011769999999999996  1.0000
  H   H327      1.0  0.9163399999999999  0.60893  0.9627999999999998  1.0000
  H   H328      1.0  0.78516  0.6598099999999999  0.01824  1.0000
  H   H329      1.0  0.72646  0.62675  0.00408  1.0000
  H   H330      1.0  0.8294100000000002  0.68345  0.9343499999999998  1.0000
  H   H331      1.0  0.77251  0.65039  0.9193799999999999  1.0000
  H   H332      1.0  0.69844  0.73483  0.98518  1.0000
  H   H333      1.0  0.6397700000000001  0.70017  0.9744699999999997  1.0000
  H   H334      1.0  0.68209  0.71974  0.8878899999999997  1.0000
  H   H335      1.0  0.62695  0.77051  0.92236  1.0000
  H   H336      1.0  0.7375499999999999  0.75618  0.8996899999999998  1.0000
  H   H337      1.0  0.61949  0.51723  0.56565  1.0000
  H   H338      1.0  0.5178900000000002  0.51784  0.6440999999999998  1.0000
  H   H339      1.0  0.4532300000000001  0.66814  0.6386899999999999  1.0000
  H   H340      1.0  0.5599099999999997  0.66124  0.56148  1.0000
  H   H341      1.0  0.3949999999999999  0.6274  0.71207  1.0000
  H   H342      1.0  0.4312200000000002  0.56589  0.7158899999999998  1.0000
  H   H343      1.0  0.9326800000000002  0.59346  0.7459999999999998  1.0000
  H   H344      1.0  0.8211899999999996  0.63838  0.81018  1.0000
  H   H345      1.0  0.6933500000000001  0.69363  0.79317  1.0000
  H   H346      1.0  0.67935  0.7004  0.71209  1.0000
  H   H347      1.0  0.08075000000000004  0.56163  0.4701899999999999  1.0000
  H   H348      1.0  0.14459000000000002  0.554  0.5080899999999999  1.0000
  H   H349      1.0  0.06831000000000004  0.64778  0.4656399999999999  1.0000
  H   H350      1.0  0.14011000000000004  0.63918  0.4988399999999999  1.0000
  H   H351      1.0  0.17933000000000002  0.59318  0.40376999999999996  1.0000
  H   H352      1.0  0.20396  0.64415  0.41187  1.0000
  H   H353      1.0  0.27243999999999996  0.54804  0.45195  1.0000
  H   H354      1.0  0.29245000000000004  0.59922  0.46378  1.0000
  H   H355      1.0  0.34415000000000007  0.55366  0.36693  1.0000
  H   H356      1.0  0.41186000000000034  0.55742  0.4001899999999999  1.0000
  H   H357      1.0  0.35735000000000006  0.6083  0.37571  1.0000
  H   H358      1.0  0.79934  0.75456  0.58863  1.0000
  H   H359      1.0  0.8533300000000003  0.82194  0.5920199999999998  1.0000
  H   H360      1.0  0.09263000000000009  0.72321  0.5877199999999999  1.0000
  H   H361      1.0  0.02850000000000003  0.66025  0.58583  1.0000
  H   H362      1.0  0.009099999999999903  0.83975  0.55788  1.0000
  H   H363      1.0  0.9696100000000003  0.84326  0.6181199999999998  1.0000
  H   H364      1.0  0.4225100000000002  0.51327  0.5105299999999998  1.0000
  H   H365      1.0  0.4671699999999999  0.58564  0.5094699999999998  1.0000
  H   H366      1.0  0.36372999999999994  0.6560900000000001  0.55195  1.0000
  H   H367      1.0  0.22122000000000014  0.65235  0.5978999999999998  1.0000
  H   H368      1.0  0.12494999999999996  0.39144  0.55007  1.0000
  H   H369      1.0  0.02111999999999991  0.4267000000000001  0.57045  1.0000
  H   H370      1.0  0.03709000000000007  0.35434  0.6156499999999998  1.0000
  H   H371      1.0  0.019070000000000076  0.40103  0.6527199999999997  1.0000
  H   H372      1.0  0.19107999999999992  0.33407  0.60759  1.0000
  H   H373      1.0  0.17518000000000009  0.38157  0.6426199999999997  1.0000
  H   H374      1.0  0.10137000000000017  0.29884  0.6745699999999998  1.0000
  H   H375      1.0  0.0831700000000001  0.34690999999999994  0.7094899999999997  1.0000
  H   H376      1.0  0.2567700000000001  0.27879000000000004  0.66702  1.0000
  H   H377      1.0  0.19749999999999998  0.27995  0.72633  1.0000
  H   H378      1.0  0.23821000000000006  0.32727  0.70242  1.0000
  H   H379      1.0  0.7262999999999998  0.75611  0.5141599999999998  1.0000
  H   H380      1.0  0.64096  0.8112700000000002  0.4694699999999999  1.0000
  H   H381      1.0  0.5682  0.7806199999999999  0.42258  1.0000
  H   H382      1.0  0.5807399999999999  0.69567  0.42327999999999993  1.0000
  H   H383      1.0  0.8798800000000004  0.48783  0.5791999999999998  1.0000
  H   H384      1.0  0.87956  0.53648  0.6089199999999998  1.0000
  H   H385      1.0  0.80323  0.48127  0.65973  1.0000
  H   H386      1.0  0.73033  0.4956  0.6266699999999997  1.0000
  H   H387      1.0  0.7641500000000001  0.56513  0.6833499999999998  1.0000
  H   H388      1.0  0.6924300000000001  0.58022  0.6502099999999998  1.0000
  H   H389      1.0  0.68357  0.5145  0.7348  1.0000
  H   H390      1.0  0.61434  0.52512  0.70003  1.0000
  H   H391      1.0  0.5706299999999997  0.6117700000000001  0.71925  1.0000
  H   H392      1.0  0.54935  0.57737  0.77014  1.0000
  H   H393      1.0  0.6374100000000003  0.59995  0.75597  1.0000
  H   H394      1.0  0.1862800000000001  0.93415  0.5168899999999998  1.0000
  H   H395      1.0  0.16194000000000008  0.85589  0.5176599999999998  1.0000
  H   H396      1.0  0.09171000000000011  0.86137  0.6679999999999998  1.0000
  H   H397      1.0  0.12226000000000005  0.93839  0.6609099999999998  1.0000
  H   H398      1.0  0.10531000000000001  0.78841  0.6274199999999999  1.0000
  H   H399      1.0  0.14560000000000015  0.7844  0.56595  1.0000
  H   H400      1.0  0.27144000000000007  0.90673  0.7539699999999998  1.0000
  H   H401      1.0  0.26968  0.86196  0.6894899999999998  1.0000
  H   H402      1.0  0.18058  0.8065  0.70576  1.0000
  H   H403      1.0  0.09321000000000007  0.79865  0.7868099999999998  1.0000
  H   H404      1.0  0.11064000000000004  0.93727  0.03056  1.0000
  H   H405      1.0  0.20380000000000015  0.94606  0.9925599999999998  1.0000
  H   H406      1.0  0.18151000000000006  0.85155  0.03453  1.0000
  H   H407      1.0  0.27702  0.86081  0.00094  1.0000
  H   H408      1.0  0.17650999999999997  0.90614  0.09636999999999997  1.0000
  H   H409      1.0  0.26042999999999994  0.85535  0.08788  1.0000
  H   H410      1.0  0.27193000000000006  0.95162  0.047859999999999986  1.0000
  H   H411      1.0  0.35522  0.90061  0.03616  1.0000
  H   H412      1.0  0.2642999999999999  0.9463  0.13293  1.0000
  H   H413      1.0  0.36880999999999997  0.9428  0.09970999999999997  1.0000
  H   H414      1.0  0.34125  0.89181  0.12427999999999999  1.0000
  H   H415      1.0  0.1426600000000001  0.74513  0.911  1.0000
  H   H416      1.0  0.26756000000000013  0.67791  0.9073499999999998  1.0000
  H   H417      1.0  0.40329000000000004  0.77683  0.9121999999999999  1.0000
  H   H418      1.0  0.27397000000000005  0.83964  0.91467  1.0000
  H   H419      1.0  0.4068499999999998  0.66036  0.94198  1.0000
  H   H420      1.0  0.43091999999999997  0.6567700000000001  0.88171  1.0000
  H   H421      1.0  0.4478400000000001  0.98738  0.9892099999999998  1.0000
  H   H422      1.0  0.5640800000000001  0.91541  0.9910299999999997  1.0000
  H   H423      1.0  0.5735700000000001  0.84414  0.9496299999999998  1.0000
  H   H424      1.0  0.47202999999999995  0.84666  0.90468  1.0000
  H   H425      1.0  0.06618000000000002  0.1071  0.9498499999999999  1.0000
  H   H426      1.0  0.02039999999999996  0.07132  0.92823  1.0000
  H   H427      1.0  0.008030000000000146  0.14426  0.8839799999999998  1.0000
  H   H428      1.0  0.07430000000000003  0.09794  0.8467  1.0000
  H   H429      1.0  0.13307000000000013  0.16514  0.8924299999999997  1.0000
  H   H430      1.0  0.20005000000000012  0.118  0.8570599999999998  1.0000
  H   H431      1.0  0.07473000000000009  0.20064  0.8255799999999998  1.0000
  H   H432      1.0  0.13975  0.15290000000000004  0.79036  1.0000
  H   H433      1.0  0.20213  0.22094  0.83357  1.0000
  H   H434      1.0  0.20331000000000005  0.22017  0.7741899999999998  1.0000
  H   H435      1.0  0.26764999999999994  0.17274000000000003  0.79788  1.0000
  H   H436      1.0  0.9952  0.74368  0.9858699999999999  1.0000
  H   H437      1.0  0.9201100000000001  0.6887500000000001  0.03077999999999999  1.0000
  H   H438      1.0  0.76998  0.71982  0.07760999999999997  1.0000
  H   H439      1.0  0.69888  0.8048  0.0766  1.0000
  H   H440      1.0  0.9469900000000002  0.01204  0.9212599999999997  1.0000
  H   H441      1.0  0.024890000000000165  0.96324  0.8916699999999997  1.0000
  H   H442      1.0  0.9450400000000002  0.01871  0.8405299999999998  1.0000
  H   H443      1.0  0.8531700000000002  0.00468  0.8732899999999998  1.0000
  H   H444      1.0  0.012740000000000069  0.93492  0.8168599999999998  1.0000
  H   H445      1.0  0.9228999999999999  0.91992  0.84995  1.0000
  H   H446      1.0  0.9330099999999998  0.98569  0.76534  1.0000
  H   H447      1.0  0.8398500000000001  0.97494  0.80009  1.0000
  H   H448      1.0  0.90177  0.88839  0.7806999999999997  1.0000
  H   H449      1.0  0.89716  0.92279  0.72985  1.0000
  H   H450      1.0  0.99353  0.9002  0.7441999999999999  1.0000
  H   H451      1.0  0.6368500000000001  0.56597  0.9831899999999998  1.0000
  H   H452      1.0  0.53462  0.64398  0.9822899999999999  1.0000
  H   H453      1.0  0.6206900000000001  0.63861  0.8319599999999998  1.0000
  H   H454      1.0  0.72147  0.56178  0.8392  1.0000
  H   H455      1.0  0.5211700000000001  0.71164  0.8723699999999998  1.0000
  H   H456      1.0  0.49608999999999986  0.71574  0.93387  1.0000
  C   C1        1.0  0.51942  0.18368  0.34853  1.0000
  C   C2        1.0  0.43585999999999997  0.19274  0.3782999999999999  1.0000
  C   C3        1.0  0.38413000000000014  0.23909  0.38268  1.0000
  C   C4        1.0  0.4110000000000001  0.27557  0.35771999999999987  1.0000
  C   C5        1.0  0.4920200000000003  0.26605  0.32707999999999987  1.0000
  C   C6        1.0  0.54556  0.22112  0.3228899999999999  1.0000
  C   C7        1.0  0.40089  0.15564  0.40303  1.0000
  C   C8        1.0  0.44800000000000006  0.03563  0.4055399999999999  1.0000
  C   C9        1.0  0.41034000000000004  0.99584  0.4202  1.0000
  C   C10       1.0  0.40475000000000005  0.97325  0.37721  1.0000
  C   C11       1.0  0.37592  0.92879  0.38862999999999986  1.0000
  C   C12       1.0  0.2845500000000001  0.9372  0.4178199999999999  1.0000
  C   C13       1.0  0.2555700000000001  0.89272  0.42515  1.0000
  C   C14       1.0  0.5478200000000001  0.08897000000000001  0.2503999999999999  1.0000
  C   C15       1.0  0.51523  0.09051  0.21294  1.0000
  C   C16       1.0  0.4320900000000001  0.08962  0.22117999999999996  1.0000
  C   C17       1.0  0.38522000000000006  0.08818  0.26757999999999993  1.0000
  C   C18       1.0  0.4223700000000001  0.0871  0.3031699999999999  1.0000
  C   C19       1.0  0.39766000000000007  0.08990000000000001  0.18056999999999995  1.0000
  C   C20       1.0  0.17725000000000002  0.08022  0.4184599999999999  1.0000
  C   C21       1.0  0.14518999999999993  0.05462  0.45819  1.0000
  C   C22       1.0  0.08872  0.02975  0.45614  1.0000
  C   C23       1.0  0.06479000000000006  0.02864  0.4159599999999999  1.0000
  C   C24       1.0  0.09952000000000008  0.05208  0.3761199999999999  1.0000
  C   C25       1.0  0.15484000000000003  0.07722999999999998  0.37726  1.0000
  C   C26       1.0  0.17265000000000003  0.05004  0.50057  1.0000
  C   C27       1.0  0.30186999999999997  0.08739  0.54761  1.0000
  C   C28       1.0  0.3402500000000001  0.08055  0.5873799999999999  1.0000
  C   C29       1.0  0.31129000000000007  0.12374  0.61884  1.0000
  C   C30       1.0  0.21752  0.13699  0.6438099999999999  1.0000
  C   C31       1.0  0.18966999999999995  0.1805  0.67436  1.0000
  C   C32       1.0  0.09553000000000016  0.19463  0.6984699999999998  1.0000
  C   C33       1.0  0.87223  0.96964  0.32241  1.0000
  C   C34       1.0  0.80451  0.99568  0.30470999999999987  1.0000
  C   C35       1.0  0.8129000000000001  0.9941700000000001  0.25651999999999997  1.0000
  C   C36       1.0  0.88577  0.96868  0.2257  1.0000
  C   C37       1.0  0.9522200000000001  0.94294  0.24322999999999995  1.0000
  C   C38       1.0  0.9456600000000001  0.94326  0.2905899999999999  1.0000
  C   C39       1.0  0.72677  0.02517  0.3341699999999999  1.0000
  C   C40       1.0  0.63576  0.06261  0.44812999999999986  1.0000
  C   C41       1.0  0.5631900000000001  0.0969  0.4792499999999999  1.0000
  C   C42       1.0  0.58845  0.13908  0.49041  1.0000
  C   C43       1.0  0.60774  0.17063  0.44815  1.0000
  C   C44       1.0  0.6334800000000002  0.21238  0.45908  1.0000
  C   C45       1.0  0.6590700000000002  0.2412  0.4153499999999999  1.0000
  C   C46       1.0  0.28445  0.04951  0.08358  1.0000
  C   C47       1.0  0.2972  0.05031  0.12708  1.0000
  C   C48       1.0  0.28148  0.09315  0.14821999999999994  1.0000
  C   C49       1.0  0.25277  0.13369  0.12409999999999997  1.0000
  C   C50       1.0  0.24035  0.13002  0.08083999999999997  1.0000
  C   C51       1.0  0.30352  0.09461  0.19279999999999994  1.0000
  C   C52       1.0  0.04954999999999999  0.31657  0.15241  1.0000
  C   C53       1.0  0.006010000000000015  0.30748  0.12194999999999998  1.0000
  C   C54       1.0  0.0059700000000000135  0.26108  0.11686999999999997  1.0000
  C   C55       1.0  0.04422000000000005  0.22453  0.14180999999999994  1.0000
  C   C56       1.0  0.08392999999999999  0.23405  0.17311  1.0000
  C   C57       1.0  0.08758000000000005  0.27904  0.17789999999999995  1.0000
  C   C58       1.0  0.95882  0.34457  0.09715999999999997  1.0000
  C   C59       1.0  0.88977  0.46462  0.09424  1.0000
  C   C60       1.0  0.82698  0.50437  0.07961  1.0000
  C   C61       1.0  0.75581  0.5267  0.12262999999999998  1.0000
  C   C62       1.0  0.6936899999999999  0.5711600000000001  0.11144  1.0000
  C   C63       1.0  0.63991  0.5626899999999999  0.08221  1.0000
  C   C64       1.0  0.57361  0.60708  0.07491  1.0000
  C   C65       1.0  0.88573  0.41225  0.24924  1.0000
  C   C66       1.0  0.8175200000000001  0.41013  0.28655  1.0000
  C   C67       1.0  0.7419399999999999  0.41073  0.27816999999999986  1.0000
  C   C68       1.0  0.7398700000000001  0.41264  0.23174999999999996  1.0000
  C   C69       1.0  0.8112699999999999  0.41431  0.19627999999999995  1.0000
  C   C70       1.0  0.6677200000000002  0.40974  0.31879999999999986  1.0000
  C   C71       1.0  0.6748600000000001  0.41988  0.08142999999999997  1.0000
  C   C72       1.0  0.65694  0.44555999999999996  0.04174  1.0000
  C   C73       1.0  0.57366  0.47067  0.043909999999999984  1.0000
  C   C74       1.0  0.5087100000000001  0.4718  0.08415999999999997  1.0000
  C   C75       1.0  0.52708  0.4482  0.12394999999999998  1.0000
  C   C76       1.0  0.6086  0.42295  0.12267999999999998  1.0000
  C   C77       1.0  0.72208  0.45011  0.9993899999999999  1.0000
  C   C78       1.0  0.9355000000000001  0.41272  0.9526899999999998  1.0000
  C   C79       1.0  0.006980000000000098  0.41967000000000004  0.9131899999999997  1.0000
  C   C80       1.0  0.05316000000000006  0.37651  0.8817699999999998  1.0000
  C   C81       1.0  0.9979800000000002  0.36312  0.8565699999999998  1.0000
  C   C82       1.0  0.04431000000000013  0.31966  0.8259999999999997  1.0000
  C   C83       1.0  0.9884500000000002  0.30554000000000003  0.8017699999999998  1.0000
  C   C84       1.0  0.1649  0.53049  0.17719999999999994  1.0000
  C   C85       1.0  0.10561000000000001  0.50441  0.19499999999999995  1.0000
  C   C86       1.0  0.06416999999999998  0.50616  0.24316999999999994  1.0000
  C   C87       1.0  0.08060000000000002  0.53194  0.27385  1.0000
  C   C88       1.0  0.13890999999999998  0.55761  0.25628  1.0000
  C   C89       1.0  0.17998000000000006  0.55709  0.20892999999999995  1.0000
  C   C90       1.0  0.0868400000000001  0.47471  0.16569999999999993  1.0000
  C   C91       1.0  0.14702  0.43698  0.05185999999999999  1.0000
  C   C92       1.0  0.13958  0.40267  0.020799999999999992  1.0000
  C   C93       1.0  0.21800999999999998  0.36046  0.00977  1.0000
  C   C94       1.0  0.22654000000000002  0.32907  0.052159999999999984  1.0000
  C   C95       1.0  0.3048100000000002  0.28729  0.04132  1.0000
  C   C96       1.0  0.31542000000000003  0.25849  0.08507999999999998  1.0000
  C   C97       1.0  0.4182600000000002  0.45022  0.4165799999999999  1.0000
  C   C98       1.0  0.47482000000000024  0.44951  0.3729599999999999  1.0000
  C   C99       1.0  0.52265  0.40669  0.35165  1.0000
  C   C100      1.0  0.51064  0.36614  0.37584  1.0000
  C   C101      1.0  0.4517000000000001  0.36973  0.4191999999999999  1.0000
  C   C102      1.0  0.59011  0.40526  0.30682  1.0000
  C   C103      1.0  0.20213999999999993  0.34864  0.31698  1.0000
  C   C104      1.0  0.12811  0.37862  0.30758  1.0000
  C   C105      1.0  0.12278  0.38297  0.26121  1.0000
  C   C106      1.0  0.18616  0.35796  0.22487  1.0000
  C   C107      1.0  0.25745  0.32732  0.23466  1.0000
  C   C108      1.0  0.26577  0.32301  0.27968999999999994  1.0000
  C   C109      1.0  0.05623000000000001  0.40366  0.34439  1.0000
  C   C110      1.0  0.98248  0.40605  0.4643499999999999  1.0000
  C   C111      1.0  0.9047999999999999  0.42061  0.50388  1.0000
  C   C112      1.0  0.8772199999999999  0.37754000000000004  0.52668  1.0000
  C   C113      1.0  0.80428  0.38886  0.57123  1.0000
  C   C114      1.0  0.7211700000000004  0.41796  0.5628799999999998  1.0000
  C   C115      1.0  0.6479499999999998  0.42511  0.6074  1.0000
  C   C116      1.0  0.13602  0.25093  0.4114  1.0000
  C   C117      1.0  0.10535999999999997  0.2134  0.40965  1.0000
  C   C118      1.0  0.021420000000000092  0.22148  0.4104099999999999  1.0000
  C   C119      1.0  0.9727599999999998  0.26782  0.41194999999999987  1.0000
  C   C120      1.0  0.008460000000000023  0.30349  0.41324  1.0000
  C   C121      1.0  0.9877400000000001  0.18072  0.4100199999999999  1.0000
  C   C122      1.0  0.7578700000000004  0.41941  0.4182999999999999  1.0000
  C   C123      1.0  0.7004600000000001  0.45863  0.44461  1.0000
  C   C124      1.0  0.61982  0.4559599999999999  0.4700399999999999  1.0000
  C   C125      1.0  0.59553  0.41555  0.47099  1.0000
  C   C126      1.0  0.65369  0.37615  0.44685999999999987  1.0000
  C   C127      1.0  0.7334300000000002  0.37795  0.42115999999999987  1.0000
  C   C128      1.0  0.7231900000000002  0.50105  0.4490699999999999  1.0000
  C   C129      1.0  0.88944  0.54831  0.41255  1.0000
  C   C130      1.0  0.9201100000000001  0.58822  0.4199099999999999  1.0000
  C   C131      1.0  0.93476  0.61974  0.37678  1.0000
  C   C132      1.0  0.85448  0.64443  0.36312  1.0000
  C   C133      1.0  0.8701799999999998  0.6747100000000001  0.31937  1.0000
  C   C134      1.0  0.7901599999999999  0.69853  0.30507  1.0000
  C   C135      1.0  0.34127  0.32235  0.5303699999999999  1.0000
  C   C136      1.0  0.2994199999999999  0.3048  0.50433  1.0000
  C   C137      1.0  0.30639999999999995  0.2566  0.50565  1.0000
  C   C138      1.0  0.35401000000000005  0.22570000000000004  0.5310599999999999  1.0000
  C   C139      1.0  0.3948100000000001  0.24306  0.5568799999999999  1.0000
  C   C140      1.0  0.3883899999999999  0.29040000000000005  0.5567  1.0000
  C   C141      1.0  0.25087000000000004  0.33452  0.4750999999999999  1.0000
  C   C142      1.0  0.19863000000000003  0.44839  0.4371299999999999  1.0000
  C   C143      1.0  0.16030000000000003  0.47963  0.40278  1.0000
  C   C144      1.0  0.2278  0.49065000000000003  0.36056  1.0000
  C   C145      1.0  0.27840999999999994  0.44829  0.32919  1.0000
  C   C146      1.0  0.34602  0.45905  0.2874299999999999  1.0000
  C   C147      1.0  0.4002700000000001  0.41525  0.25879  1.0000
  C   C148      1.0  0.8340400000000001  0.08357  0.45051999999999987  1.0000
  C   C149      1.0  0.8477100000000001  0.12703  0.4497199999999999  1.0000
  C   C150      1.0  0.8748700000000001  0.14817  0.4068499999999999  1.0000
  C   C151      1.0  0.88654  0.12413  0.3663099999999999  1.0000
  C   C152      1.0  0.8702800000000002  0.08094  0.3699899999999999  1.0000
  C   C153      1.0  0.8982999999999999  0.19276  0.40534  1.0000
  C   C154      1.0  0.8668799999999999  0.15236  0.18355999999999995  1.0000
  C   C155      1.0  0.81393  0.12208  0.19255999999999995  1.0000
  C   C156      1.0  0.7670299999999999  0.1172  0.23893  1.0000
  C   C157      1.0  0.76893  0.142  0.2755199999999999  1.0000
  C   C158      1.0  0.8188300000000001  0.17293  0.26611  1.0000
  C   C159      1.0  0.8673999999999998  0.17776  0.22113  1.0000
  C   C160      1.0  0.8041  0.09716  0.15544999999999995  1.0000
  C   C161      1.0  0.8545  0.09438  0.03536  1.0000
  C   C162      1.0  0.8312000000000002  0.07982  0.9956399999999997  1.0000
  C   C163      1.0  0.78222  0.12283  0.9732499999999998  1.0000
  C   C164      1.0  0.76437  0.1116  0.92884  1.0000
  C   C165      1.0  0.7022800000000001  0.0823  0.9372399999999997  1.0000
  C   C166      1.0  0.6808400000000001  0.07488  0.8926899999999998  1.0000
  C   C167      1.0  0.7983700000000001  0.24932  0.08874999999999997  1.0000
  C   C168      1.0  0.7282900000000002  0.28677  0.09068999999999998  1.0000
  C   C169      1.0  0.65335  0.27856  0.08975999999999998  1.0000
  C   C170      1.0  0.6528  0.2322  0.08801999999999999  1.0000
  C   C171      1.0  0.7256500000000001  0.19661  0.08647  1.0000
  C   C172      1.0  0.57848  0.31922  0.09015  1.0000
  C   C173      1.0  0.59515  0.08156  0.07997  1.0000
  C   C174      1.0  0.60279  0.04181000000000001  0.05447999999999999  1.0000
  C   C175      1.0  0.54442  0.04385  0.029519999999999998  1.0000
  C   C176      1.0  0.48051  0.08399999999999999  0.028199999999999992  1.0000
  C   C177      1.0  0.47526  0.12383  0.05167  1.0000
  C   C178      1.0  0.53163  0.1227  0.07687999999999998  1.0000
  C   C179      1.0  0.6723  0.99938  0.05015  1.0000
  C   C180      1.0  0.8485000000000004  0.95266  0.08749999999999997  1.0000
  C   C181      1.0  0.92691  0.91315  0.08059  1.0000
  C   C182      1.0  0.9301200000000001  0.88139  0.12360999999999997  1.0000
  C   C183      1.0  0.86153  0.85624  0.13702  1.0000
  C   C184      1.0  0.8642100000000003  0.82566  0.18056999999999995  1.0000
  C   C185      1.0  0.7940599999999999  0.80158  0.19454999999999995  1.0000
  C   C186      1.0  0.1946900000000001  0.17749  0.9696899999999998  1.0000
  C   C187      1.0  0.1094600000000002  0.19523999999999997  0.9957899999999997  1.0000
  C   C188      1.0  0.06993000000000013  0.24347  0.9943799999999998  1.0000
  C   C189      1.0  0.11219999999999997  0.27425  0.96886  1.0000
  C   C190      1.0  0.19601999999999997  0.25668  0.94309  1.0000
  C   C191      1.0  0.23643999999999982  0.2093  0.94336  1.0000
  C   C192      1.0  0.061320000000000006  0.1657  0.02528  1.0000
  C   C193      1.0  0.08418000000000002  0.05173  0.06269999999999999  1.0000
  C   C194      1.0  0.042640000000000004  0.02046  0.09683999999999997  1.0000
  C   C195      1.0  0.07854  0.00929  0.13925  1.0000
  C   C196      1.0  0.05569000000000004  0.05162  0.17062999999999995  1.0000
  C   C197      1.0  0.09224000000000004  0.04082  0.21244999999999997  1.0000
  C   C198      1.0  0.07408000000000003  0.08459  0.24115  1.0000
  C   C199      1.0  0.36861  0.41634  0.04940999999999999  1.0000
  C   C200      1.0  0.42506  0.37297  0.0503  1.0000
  C   C201      1.0  0.4301800000000001  0.35178  0.09320999999999997  1.0000
  C   C202      1.0  0.37728  0.37583  0.1337  1.0000
  C   C203      1.0  0.32143  0.41895  0.12994  1.0000
  C   C204      1.0  0.4964400000000001  0.30712  0.09482999999999997  1.0000
  C   C205      1.0  0.48057  0.81632  0.65146  1.0000
  C   C206      1.0  0.56414  0.80726  0.6216999999999998  1.0000
  C   C207      1.0  0.61587  0.76092  0.61732  1.0000
  C   C208      1.0  0.5890000000000001  0.72443  0.6422799999999997  1.0000
  C   C209      1.0  0.5079700000000001  0.73395  0.6729199999999999  1.0000
  C   C210      1.0  0.45443000000000017  0.77889  0.6771099999999998  1.0000
  C   C211      1.0  0.59911  0.84437  0.5969699999999998  1.0000
  C   C212      1.0  0.5519999999999999  0.96438  0.59446  1.0000
  C   C213      1.0  0.58966  0.004170000000000002  0.5797999999999998  1.0000
  C   C214      1.0  0.5952500000000001  0.02675  0.62278  1.0000
  C   C215      1.0  0.6240700000000001  0.07121  0.6113699999999999  1.0000
  C   C216      1.0  0.7154499999999998  0.0628  0.5821699999999999  1.0000
  C   C217      1.0  0.74442  0.10728  0.5748499999999998  1.0000
  C   C218      1.0  0.4521700000000001  0.91103  0.7495999999999998  1.0000
  C   C219      1.0  0.4847600000000002  0.90949  0.7870499999999999  1.0000
  C   C220      1.0  0.5679000000000001  0.91038  0.7788199999999997  1.0000
  C   C221      1.0  0.61478  0.91182  0.73241  1.0000
  C   C222      1.0  0.5776299999999999  0.9129  0.6968199999999999  1.0000
  C   C223      1.0  0.6023400000000003  0.9101  0.8194299999999998  1.0000
  C   C224      1.0  0.8227400000000002  0.91979  0.58154  1.0000
  C   C225      1.0  0.8548099999999998  0.94538  0.5418099999999999  1.0000
  C   C226      1.0  0.9112700000000001  0.97025  0.54385  1.0000
  C   C227      1.0  0.9352099999999999  0.97136  0.58403  1.0000
  C   C228      1.0  0.9004700000000001  0.94792  0.62388  1.0000
  C   C229      1.0  0.8451500000000001  0.92277  0.6227399999999997  1.0000
  C   C230      1.0  0.8273500000000001  0.94997  0.4994299999999999  1.0000
  C   C231      1.0  0.69813  0.9126099999999999  0.45238  1.0000
  C   C232      1.0  0.65975  0.91946  0.4126199999999999  1.0000
  C   C233      1.0  0.6887  0.87626  0.3811599999999999  1.0000
  C   C234      1.0  0.7824700000000002  0.86301  0.35617999999999994  1.0000
  C   C235      1.0  0.8103199999999999  0.8195  0.32564  1.0000
  C   C236      1.0  0.90447  0.80537  0.30152  1.0000
  C   C237      1.0  0.12777000000000002  0.03036  0.67759  1.0000
  C   C238      1.0  0.1954800000000001  0.00432  0.6952899999999999  1.0000
  C   C239      1.0  0.18709000000000012  0.00583  0.7434699999999997  1.0000
  C   C240      1.0  0.11422999999999997  0.03132  0.7743  1.0000
  C   C241      1.0  0.04778000000000012  0.057069999999999996  0.7567699999999998  1.0000
  C   C242      1.0  0.054340000000000124  0.05675  0.7094099999999998  1.0000
  C   C243      1.0  0.27322000000000035  0.97483  0.66582  1.0000
  C   C244      1.0  0.36424  0.93739  0.55187  1.0000
  C   C245      1.0  0.43681000000000003  0.9031  0.52075  1.0000
  C   C246      1.0  0.41155000000000025  0.86092  0.5095899999999999  1.0000
  C   C247      1.0  0.3922600000000003  0.8293700000000002  0.5518499999999998  1.0000
  C   C248      1.0  0.3665200000000002  0.78762  0.5409199999999998  1.0000
  C   C249      1.0  0.3409300000000003  0.7587999999999999  0.5846499999999999  1.0000
  C   C250      1.0  0.71554  0.95049  0.9164199999999998  1.0000
  C   C251      1.0  0.7028  0.9497  0.87292  1.0000
  C   C252      1.0  0.71852  0.90685  0.8517799999999998  1.0000
  C   C253      1.0  0.7472299999999998  0.86631  0.8759  1.0000
  C   C254      1.0  0.7596500000000003  0.86998  0.9191599999999998  1.0000
  C   C255      1.0  0.69648  0.90539  0.8071999999999999  1.0000
  C   C256      1.0  0.9504399999999994  0.68343  0.8475799999999999  1.0000
  C   C257      1.0  0.9939799999999998  0.69252  0.87805  1.0000
  C   C258      1.0  0.9940300000000003  0.73892  0.8831199999999998  1.0000
  C   C259      1.0  0.9557699999999999  0.77547  0.8581799999999998  1.0000
  C   C260      1.0  0.91606  0.76595  0.82689  1.0000
  C   C261      1.0  0.9124100000000002  0.72097  0.8220999999999998  1.0000
  C   C262      1.0  0.04118000000000016  0.65543  0.9028299999999998  1.0000
  C   C263      1.0  0.11022000000000011  0.53538  0.9057499999999998  1.0000
  C   C264      1.0  0.1730200000000001  0.49563  0.92039  1.0000
  C   C265      1.0  0.24418  0.4733  0.87737  1.0000
  C   C266      1.0  0.3063100000000001  0.42885  0.8885599999999998  1.0000
  C   C267      1.0  0.3600900000000003  0.43732  0.9177899999999998  1.0000
  C   C268      1.0  0.4263900000000001  0.39292  0.92509  1.0000
  C   C269      1.0  0.11427000000000002  0.58775  0.75075  1.0000
  C   C270      1.0  0.18248000000000003  0.58987  0.71345  1.0000
  C   C271      1.0  0.25806  0.58927  0.72183  1.0000
  C   C272      1.0  0.26013000000000003  0.58737  0.76825  1.0000
  C   C273      1.0  0.1887300000000001  0.58569  0.8037099999999998  1.0000
  C   C274      1.0  0.33226999999999995  0.59026  0.68119  1.0000
  C   C275      1.0  0.3251300000000001  0.5801200000000001  0.9185599999999998  1.0000
  C   C276      1.0  0.3430600000000001  0.55444  0.9582599999999998  1.0000
  C   C277      1.0  0.4263300000000001  0.52933  0.9560799999999999  1.0000
  C   C278      1.0  0.49129000000000017  0.5282  0.9158299999999998  1.0000
  C   C279      1.0  0.4729200000000002  0.5518  0.8760499999999998  1.0000
  C   C280      1.0  0.39139000000000007  0.57705  0.8773199999999998  1.0000
  C   C281      1.0  0.27791000000000005  0.5499  0.0006  1.0000
  C   C282      1.0  0.06450000000000003  0.58728  0.0473  1.0000
  C   C283      1.0  0.9930199999999999  0.58033  0.08681  1.0000
  C   C284      1.0  0.94684  0.62349  0.11822999999999999  1.0000
  C   C285      1.0  0.0020099999999999845  0.63688  0.14342999999999997  1.0000
  C   C286      1.0  0.9556800000000001  0.68034  0.17399999999999993  1.0000
  C   C287      1.0  0.011540000000000007  0.69446  0.19823  1.0000
  C   C288      1.0  0.83509  0.46951  0.8228  1.0000
  C   C289      1.0  0.8943900000000001  0.49559  0.8049999999999998  1.0000
  C   C290      1.0  0.9358199999999998  0.49384  0.7568299999999999  1.0000
  C   C291      1.0  0.9194  0.46806000000000003  0.7261499999999997  1.0000
  C   C292      1.0  0.8610800000000001  0.44239  0.7437099999999998  1.0000
  C   C293      1.0  0.82002  0.44291  0.79106  1.0000
  C   C294      1.0  0.9131499999999999  0.52529  0.8342999999999998  1.0000
  C   C295      1.0  0.8529800000000002  0.5630199999999999  0.94813  1.0000
  C   C296      1.0  0.8604199999999999  0.59733  0.9791899999999998  1.0000
  C   C297      1.0  0.7819800000000007  0.63954  0.9902299999999998  1.0000
  C   C298      1.0  0.7734500000000001  0.67093  0.9478399999999998  1.0000
  C   C299      1.0  0.69518  0.71271  0.9586799999999998  1.0000
  C   C300      1.0  0.68457  0.74151  0.91492  1.0000
  C   C301      1.0  0.5817399999999997  0.54978  0.58342  1.0000
  C   C302      1.0  0.52518  0.55049  0.62704  1.0000
  C   C303      1.0  0.47735000000000005  0.59331  0.6483499999999998  1.0000
  C   C304      1.0  0.4893600000000004  0.63386  0.62416  1.0000
  C   C305      1.0  0.5483  0.63027  0.5808  1.0000
  C   C306      1.0  0.40989000000000025  0.59474  0.6931799999999998  1.0000
  C   C307      1.0  0.7978500000000001  0.6513599999999999  0.6830199999999997  1.0000
  C   C308      1.0  0.8718800000000003  0.62138  0.6924199999999998  1.0000
  C   C309      1.0  0.87721  0.61703  0.73879  1.0000
  C   C310      1.0  0.81383  0.64204  0.7751199999999998  1.0000
  C   C311      1.0  0.7425499999999999  0.67269  0.76534  1.0000
  C   C312      1.0  0.7342299999999999  0.67699  0.7203099999999998  1.0000
  C   C313      1.0  0.9437700000000002  0.59634  0.6555999999999997  1.0000
  C   C314      1.0  0.01751000000000002  0.59395  0.53565  1.0000
  C   C315      1.0  0.0952000000000001  0.5794  0.4961199999999999  1.0000
  C   C316      1.0  0.12278000000000006  0.62246  0.4733199999999999  1.0000
  C   C317      1.0  0.19571999999999998  0.61114  0.42877  1.0000
  C   C318      1.0  0.2788300000000002  0.58204  0.4371199999999999  1.0000
  C   C319      1.0  0.3520400000000003  0.57489  0.3925999999999999  1.0000
  C   C320      1.0  0.8639800000000002  0.74907  0.5885999999999998  1.0000
  C   C321      1.0  0.8946399999999998  0.7866  0.59035  1.0000
  C   C322      1.0  0.97858  0.77852  0.58959  1.0000
  C   C323      1.0  0.027240000000000028  0.73218  0.58805  1.0000
  C   C324      1.0  0.9915300000000001  0.69651  0.58675  1.0000
  C   C325      1.0  0.012260000000000095  0.81928  0.5899699999999998  1.0000
  C   C326      1.0  0.24212999999999996  0.58059  0.5817  1.0000
  C   C327      1.0  0.2995300000000002  0.54137  0.5553899999999998  1.0000
  C   C328      1.0  0.38018000000000024  0.54404  0.5299599999999998  1.0000
  C   C329      1.0  0.40447  0.58445  0.5290099999999999  1.0000
  C   C330      1.0  0.3463000000000003  0.62385  0.5531399999999997  1.0000
  C   C331      1.0  0.26657  0.62206  0.5788399999999999  1.0000
  C   C332      1.0  0.27679999999999993  0.49895000000000006  0.55094  1.0000
  C   C333      1.0  0.11056000000000003  0.45169  0.58745  1.0000
  C   C334      1.0  0.07987999999999998  0.41179  0.58008  1.0000
  C   C335      1.0  0.06523  0.38026  0.62321  1.0000
  C   C336      1.0  0.14551999999999998  0.35557  0.63688  1.0000
  C   C337      1.0  0.12981000000000012  0.32529  0.6806299999999997  1.0000
  C   C338      1.0  0.20982999999999993  0.30147  0.69493  1.0000
  C   C339      1.0  0.65872  0.67766  0.46963  1.0000
  C   C340      1.0  0.7005800000000001  0.6952  0.49566999999999994  1.0000
  C   C341      1.0  0.6936000000000004  0.7434000000000001  0.4943499999999999  1.0000
  C   C342      1.0  0.6459900000000002  0.7743  0.4689299999999999  1.0000
  C   C343      1.0  0.6051899999999999  0.7569400000000001  0.4431099999999999  1.0000
  C   C344      1.0  0.6116000000000003  0.7096  0.4432999999999999  1.0000
  C   C345      1.0  0.74913  0.66548  0.52489  1.0000
  C   C346      1.0  0.8013700000000004  0.55161  0.56287  1.0000
  C   C347      1.0  0.8397000000000002  0.52038  0.5972199999999998  1.0000
  C   C348      1.0  0.7721900000000002  0.50935  0.63944  1.0000
  C   C349      1.0  0.7215900000000003  0.55172  0.6708099999999998  1.0000
  C   C350      1.0  0.65397  0.54095  0.7125599999999997  1.0000
  C   C351      1.0  0.5997200000000001  0.58475  0.7412099999999999  1.0000
  C   C352      1.0  0.16596  0.91643  0.54947  1.0000
  C   C353      1.0  0.15229000000000015  0.87297  0.55028  1.0000
  C   C354      1.0  0.12512000000000004  0.85183  0.59315  1.0000
  C   C355      1.0  0.11345000000000001  0.87587  0.63369  1.0000
  C   C356      1.0  0.12972  0.91907  0.6300099999999997  1.0000
  C   C357      1.0  0.10169000000000021  0.80724  0.5946599999999997  1.0000
  C   C358      1.0  0.13311999999999993  0.84764  0.8164399999999998  1.0000
  C   C359      1.0  0.18607000000000004  0.8779199999999999  0.80743  1.0000
  C   C360      1.0  0.23297000000000012  0.8828  0.76107  1.0000
  C   C361      1.0  0.23106000000000004  0.85801  0.7244799999999999  1.0000
  C   C362      1.0  0.18117000000000014  0.82707  0.7338899999999998  1.0000
  C   C363      1.0  0.13259000000000012  0.82224  0.7788699999999997  1.0000
  C   C364      1.0  0.19589000000000004  0.90284  0.8445499999999998  1.0000
  C   C365      1.0  0.14549999999999996  0.90562  0.9646299999999998  1.0000
  C   C366      1.0  0.16880000000000003  0.92018  0.00436  1.0000
  C   C367      1.0  0.21777999999999997  0.87717  0.02674  1.0000
  C   C368      1.0  0.23562000000000002  0.8883999999999999  0.07115999999999999  1.0000
  C   C369      1.0  0.29772000000000004  0.9177  0.06275999999999998  1.0000
  C   C370      1.0  0.31915000000000004  0.92512  0.10731  1.0000
  C   C371      1.0  0.20163000000000006  0.7506800000000001  0.91125  1.0000
  C   C372      1.0  0.2717100000000001  0.71323  0.9093099999999997  1.0000
  C   C373      1.0  0.3466500000000001  0.72144  0.9102399999999999  1.0000
  C   C374      1.0  0.3472000000000003  0.7678  0.9119699999999997  1.0000
  C   C375      1.0  0.2743500000000001  0.80339  0.9135299999999997  1.0000
  C   C376      1.0  0.42152000000000006  0.68078  0.9098399999999998  1.0000
  C   C377      1.0  0.4048499999999998  0.91844  0.92003  1.0000
  C   C378      1.0  0.3972100000000001  0.95819  0.9455199999999998  1.0000
  C   C379      1.0  0.45558000000000004  0.95615  0.9704799999999998  1.0000
  C   C380      1.0  0.5194900000000001  0.9160000000000001  0.9717999999999998  1.0000
  C   C381      1.0  0.52473  0.87617  0.9483299999999998  1.0000
  C   C382      1.0  0.4683600000000001  0.8773  0.92312  1.0000
  C   C383      1.0  0.32769  0.0006300000000000002  0.94984  1.0000
  C   C384      1.0  0.1515000000000001  0.04734  0.9124899999999998  1.0000
  C   C385      1.0  0.0730800000000001  0.08685  0.9194099999999997  1.0000
  C   C386      1.0  0.06988000000000007  0.11861  0.8763899999999998  1.0000
  C   C387      1.0  0.1384700000000002  0.14377  0.8629799999999997  1.0000
  C   C388      1.0  0.13579000000000013  0.17434  0.8194299999999998  1.0000
  C   C389      1.0  0.20593000000000017  0.19842  0.8054399999999998  1.0000
  C   C390      1.0  0.8053099999999999  0.82251  0.030299999999999994  1.0000
  C   C391      1.0  0.89054  0.80476  0.00421  1.0000
  C   C392      1.0  0.9300600000000002  0.75653  0.005619999999999999  1.0000
  C   C393      1.0  0.8878  0.72575  0.031139999999999994  1.0000
  C   C394      1.0  0.8039699999999999  0.74333  0.05691  1.0000
  C   C395      1.0  0.7635600000000003  0.7907  0.056629999999999986  1.0000
  C   C396      1.0  0.93867  0.8343  0.9747199999999998  1.0000
  C   C397      1.0  0.9158100000000001  0.94827  0.9372999999999999  1.0000
  C   C398      1.0  0.95736  0.97954  0.9031499999999999  1.0000
  C   C399      1.0  0.9214500000000001  0.99071  0.8607499999999998  1.0000
  C   C400      1.0  0.94431  0.94838  0.82937  1.0000
  C   C401      1.0  0.9077599999999999  0.95918  0.78755  1.0000
  C   C402      1.0  0.92592  0.91541  0.75885  1.0000
  C   C403      1.0  0.6313900000000001  0.5836599999999998  0.9505899999999998  1.0000
  C   C404      1.0  0.5749400000000001  0.62703  0.9496999999999998  1.0000
  C   C405      1.0  0.5698200000000001  0.64823  0.9067899999999998  1.0000
  C   C406      1.0  0.62271  0.62417  0.8662999999999997  1.0000
  C   C407      1.0  0.67857  0.58105  0.8700599999999997  1.0000
  C   C408      1.0  0.5035600000000006  0.69288  0.9051699999999998  1.0000
  N   N1        1.0  0.44776000000000016  0.11112  0.39791  1.0000
  N   N2        1.0  0.4043800000000001  0.07856  0.4194799999999999  1.0000
  N   N3        1.0  0.50262  0.08707  0.29509  1.0000
  N   N4        1.0  0.22698999999999997  0.07271  0.5042  1.0000
  N   N5        1.0  0.2510600000000001  0.06315  0.5455299999999998  1.0000
  N   N6        1.0  0.71633  0.02839  0.38011  1.0000
  N   N7        1.0  0.6417600000000001  0.06038999999999999  0.4035299999999999  1.0000
  N   N8        1.0  0.2561300000000001  0.08866  0.06066999999999999  1.0000
  N   N9        1.0  0.9563499999999999  0.38905000000000006  0.10222  1.0000
  N   N10       1.0  0.90216  0.42168  0.08056  1.0000
  N   N11       1.0  0.8832  0.41452  0.20453999999999994  1.0000
  N   N12       1.0  0.80267  0.42754000000000003  0.9959799999999998  1.0000
  N   N13       1.0  0.85853  0.4371900000000001  0.9547699999999998  1.0000
  N   N14       1.0  0.12565000000000007  0.47129  0.11978999999999997  1.0000
  N   N15       1.0  0.10642000000000001  0.43918  0.09648  1.0000
  N   N16       1.0  0.40612999999999994  0.41107  0.4394599999999999  1.0000
  N   N17       1.0  0.05792000000000003  0.39841  0.3890099999999999  1.0000
  N   N18       1.0  0.9818800000000001  0.42003  0.4213699999999999  1.0000
  N   N19       1.0  0.08857000000000001  0.29554  0.41341  1.0000
  N   N20       1.0  0.8002500000000001  0.50476  0.42668  1.0000
  N   N21       1.0  0.8146200000000003  0.54592  0.43676  1.0000
  N   N22       1.0  0.24473000000000006  0.38032999999999995  0.4715  1.0000
  N   N23       1.0  0.20189999999999994  0.40387  0.43957999999999997  1.0000
  N   N24       1.0  0.8447  0.060750000000000005  0.41136999999999996  1.0000
  N   N25       1.0  0.8458699999999999  0.10229  0.11094  1.0000
  N   N26       1.0  0.8242899999999999  0.08057  0.07836  1.0000
  N   N27       1.0  0.79787  0.20471  0.08633  1.0000
  N   N28       1.0  0.7306599999999999  0.99608  0.07252  1.0000
  N   N29       1.0  0.7960399999999999  0.95482  0.06296  1.0000
  N   N30       1.0  0.09684  0.11982  0.02861  1.0000
  N   N31       1.0  0.045669999999999995  0.09634  0.06059999999999999  1.0000
  N   N32       1.0  0.3170299999999998  0.43907  0.08852  1.0000
  N   N33       1.0  0.5522300000000001  0.88888  0.6020899999999998  1.0000
  N   N34       1.0  0.59562  0.92144  0.58052  1.0000
  N   N35       1.0  0.49736999999999987  0.9129399999999999  0.70491  1.0000
  N   N36       1.0  0.77301  0.92729  0.4957999999999999  1.0000
  N   N37       1.0  0.7489399999999999  0.93686  0.45447  1.0000
  N   N38       1.0  0.28367000000000003  0.97161  0.61988  1.0000
  N   N39       1.0  0.35824  0.93961  0.59647  1.0000
  N   N40       1.0  0.74387  0.91134  0.93933  1.0000
  N   N41       1.0  0.04364000000000007  0.61095  0.8977799999999998  1.0000
  N   N42       1.0  0.09783999999999998  0.57832  0.91944  1.0000
  N   N43       1.0  0.11680000000000015  0.58548  0.7954499999999998  1.0000
  N   N44       1.0  0.19732999999999995  0.57246  0.00401  1.0000
  N   N45       1.0  0.14145999999999997  0.56281  0.04522  1.0000
  N   N46       1.0  0.87435  0.52871  0.8801999999999998  1.0000
  N   N47       1.0  0.8935800000000004  0.56082  0.9035199999999998  1.0000
  N   N48       1.0  0.5938600000000004  0.58894  0.56054  1.0000
  N   N49       1.0  0.94208  0.6016  0.61099  1.0000
  N   N50       1.0  0.018110000000000025  0.57998  0.57863  1.0000
  N   N51       1.0  0.91143  0.70446  0.58659  1.0000
  N   N52       1.0  0.19974000000000006  0.49524  0.5733199999999998  1.0000
  N   N53       1.0  0.1853800000000001  0.45409  0.5632399999999997  1.0000
  N   N54       1.0  0.7552700000000001  0.61967  0.5284999999999999  1.0000
  N   N55       1.0  0.7981000000000001  0.59613  0.5604199999999998  1.0000
  N   N56       1.0  0.1553000000000001  0.93925  0.58863  1.0000
  N   N57       1.0  0.15412  0.89771  0.88906  1.0000
  N   N58       1.0  0.1757100000000001  0.91943  0.9216399999999998  1.0000
  N   N59       1.0  0.20213000000000014  0.7953  0.9136699999999998  1.0000
  N   N60       1.0  0.26933999999999997  0.00393  0.92748  1.0000
  N   N61       1.0  0.20396  0.04519  0.93704  1.0000
  N   N62       1.0  0.9031600000000001  0.88018  0.9713899999999998  1.0000
  N   N63       1.0  0.9543300000000001  0.90366  0.9393999999999998  1.0000
  N   N64       1.0  0.6829600000000003  0.56093  0.9114799999999997  1.0000
  O   O1        1.0  0.57581  0.14217  0.34349999999999997  1.0000
  O   O2        1.0  0.3234200000000002  0.16551  0.4286299999999999  1.0000
  O   O3        1.0  0.5228699999999998  0.026880000000000005  0.37696  1.0000
  O   O4        1.0  0.22726000000000005  0.10708  0.41746  1.0000
  O   O5        1.0  0.14682  0.02263  0.53342  1.0000
  O   O6        1.0  0.321  0.11766  0.51457  1.0000
  O   O7        1.0  0.87125  0.9684400000000001  0.36714  1.0000
  O   O8        1.0  0.66876  0.048799999999999996  0.3153399999999999  1.0000
  O   O9        1.0  0.6943499999999999  0.03675  0.4661799999999999  1.0000
  O   O10       1.0  0.05785000000000008  0.3582  0.15862  1.0000
  O   O11       1.0  0.9169600000000002  0.33461  0.07145999999999997  1.0000
  O   O12       1.0  0.9277400000000001  0.47331000000000006  0.12272  1.0000
  O   O13       1.0  0.75049  0.39278  0.08249  1.0000
  O   O14       1.0  0.7015700000000006  0.47743  0.9664999999999998  1.0000
  O   O15       1.0  0.9514200000000002  0.38218  0.98561  1.0000
  O   O16       1.0  0.20773000000000005  0.5315  0.13247  1.0000
  O   O17       1.0  0.03360000000000005  0.45116  0.18460999999999994  1.0000
  O   O18       1.0  0.19781999999999997  0.46279  0.03379  1.0000
  O   O19       1.0  0.21652000000000007  0.3434  0.35865999999999987  1.0000
  O   O20       1.0  0.9893400000000002  0.4297  0.3339899999999999  1.0000
  O   O21       1.0  0.04858000000000006  0.37742  0.4732699999999999  1.0000
  O   O22       1.0  0.8335500000000001  0.41939  0.39061  1.0000
  O   O23       1.0  0.66975  0.53386  0.4762699999999999  1.0000
  O   O24       1.0  0.93886  0.51565  0.3819399999999999  1.0000
  O   O25       1.0  0.3392700000000002  0.36702  0.53169  1.0000
  O   O26       1.0  0.21515000000000006  0.31605  0.4520499999999999  1.0000
  O   O27       1.0  0.23189000000000004  0.4662799999999999  0.4628199999999999  1.0000
  O   O28       1.0  0.91728  0.1583  0.14199  1.0000
  O   O29       1.0  0.75269  0.07128  0.16539999999999994  1.0000
  O   O30       1.0  0.9010900000000001  0.12286  0.02666  1.0000
  O   O31       1.0  0.64389  0.08259  0.10701999999999998  1.0000
  O   O32       1.0  0.67883  0.96628  0.023259999999999992  1.0000
  O   O33       1.0  0.83384  0.98553  0.11804999999999997  1.0000
  O   O34       1.0  0.2383500000000001  0.13274  0.9683299999999998  1.0000
  O   O35       1.0  0.98454  0.18453  0.048829999999999985  1.0000
  O   O36       1.0  0.16079000000000004  0.03378  0.03682999999999999  1.0000
  O   O37       1.0  0.42419  0.85783  0.6565  1.0000
  O   O38       1.0  0.6765700000000002  0.83449  0.57137  1.0000
  O   O39       1.0  0.47712000000000016  0.97312  0.62304  1.0000
  O   O40       1.0  0.7727300000000001  0.89293  0.5825399999999997  1.0000
  O   O41       1.0  0.8531799999999999  0.97737  0.4665799999999999  1.0000
  O   O42       1.0  0.6790000000000002  0.88235  0.4854299999999999  1.0000
  O   O43       1.0  0.12875000000000003  0.03156  0.63286  1.0000
  O   O44       1.0  0.3312299999999998  0.9512000000000002  0.68466  1.0000
  O   O45       1.0  0.30564999999999987  0.96325  0.53382  1.0000
  O   O46       1.0  0.9421400000000002  0.6418  0.8413799999999998  1.0000
  O   O47       1.0  0.08304000000000022  0.66539  0.9285299999999997  1.0000
  O   O48       1.0  0.07225  0.5267  0.87728  1.0000
  O   O49       1.0  0.24950000000000017  0.60722  0.9175099999999998  1.0000
  O   O50       1.0  0.29842  0.52257  0.0335  1.0000
  O   O51       1.0  0.04857000000000003  0.61782  0.014379999999999997  1.0000
  O   O52       1.0  0.7922700000000001  0.4685  0.86753  1.0000
  O   O53       1.0  0.9664000000000001  0.54885  0.81538  1.0000
  O   O54       1.0  0.8021800000000002  0.53721  0.9662099999999998  1.0000
  O   O55       1.0  0.7834800000000001  0.6566000000000001  0.6413399999999998  1.0000
  O   O56       1.0  0.010650000000000234  0.5703  0.6660099999999998  1.0000
  O   O57       1.0  0.9514100000000001  0.62258  0.52673  1.0000
  O   O58       1.0  0.16643999999999998  0.58061  0.60939  1.0000
  O   O59       1.0  0.33025  0.46613  0.52374  1.0000
  O   O60       1.0  0.06114000000000016  0.48435  0.6180599999999998  1.0000
  O   O61       1.0  0.6607100000000007  0.63298  0.46830999999999995  1.0000
  O   O62       1.0  0.7848500000000003  0.68395  0.54794  1.0000
  O   O63       1.0  0.7680999999999998  0.53372  0.53718  1.0000
  O   O64       1.0  0.08272000000000011  0.8417100000000001  0.8580099999999998  1.0000
  O   O65       1.0  0.24730999999999997  0.92872  0.8345999999999999  1.0000
  O   O66       1.0  0.09891000000000008  0.87714  0.9733399999999998  1.0000
  O   O67       1.0  0.3560999999999999  0.91742  0.89298  1.0000
  O   O68       1.0  0.3211700000000001  0.03373  0.9767399999999999  1.0000
  O   O69       1.0  0.1661500000000001  0.01447  0.8819499999999998  1.0000
  O   O70       1.0  0.7616400000000001  0.8672599999999999  0.031659999999999994  1.0000
  O   O71       1.0  0.015460000000000109  0.8154800000000001  0.9511699999999997  1.0000
  O   O72       1.0  0.8392099999999999  0.96622  0.96316  1.0000
