data_image0
_chemical_formula_structural       Zn16H240C240N24O48
_chemical_formula_sum              "Zn16 H240 C240 N24 O48"
_cell_length_a       22.60683
_cell_length_b       22.60741
_cell_length_c       22.60743
_cell_angle_alpha    109.48425
_cell_angle_beta     109.48136
_cell_angle_gamma    109.48138

_space_group_name_H-M_alt    "P 1"
_space_group_IT_number       1

loop_
  _space_group_symop_operation_xyz
  'x, y, z'

loop_
  _atom_site_type_symbol
  _atom_site_label
  _atom_site_symmetry_multiplicity
  _atom_site_fract_x
  _atom_site_fract_y
  _atom_site_fract_z
  _atom_site_occupancy
  Zn  Zn1       1.0  0.49998  0.46379  0.99999  1.0000
  Zn  Zn2       1.0  0.5000199999999999  0.3303  1e-05  1.0000
  Zn  Zn3       1.0  0.99999  0.99998  0.96379  1.0000
  Zn  Zn4       1.0  9.999999999996948e-06  1.999999999998018e-05  0.8303  1.0000
  Zn  Zn5       1.0  0.9637999999999999  0.49999  0.49998  1.0000
  Zn  Zn6       1.0  0.83031  0.50001  0.50002  1.0000
  Zn  Zn7       1.0  0.5361999999999999  0.036190000000000014  0.53619  1.0000
  Zn  Zn8       1.0  0.66963  0.16963  0.66962  1.0000
  Zn  Zn9       1.0  0.49999  0.9637899999999999  0.99998  1.0000
  Zn  Zn10      1.0  0.5000099999999998  0.8302999999999999  2e-05  1.0000
  Zn  Zn11      1.0  0.99998  0.9999899999999999  0.46379000000000004  1.0000
  Zn  Zn12      1.0  1.9999999999994327e-05  9.99999999999009e-06  0.3303  1.0000
  Zn  Zn13      1.0  0.03618999999999999  0.53619  0.03619  1.0000
  Zn  Zn14      1.0  0.16962999999999998  0.66962  0.16962  1.0000
  Zn  Zn15      1.0  0.4637899999999999  0.49998000000000004  0.49999  1.0000
  Zn  Zn16      1.0  0.33031  0.50002  0.50001  1.0000
  H   H1        1.0  0.54353  0.53969  0.21505  1.0000
  H   H2        1.0  0.5207699999999998  0.57534  0.31790000000000007  1.0000
  H   H3        1.0  0.37764999999999993  0.35047  0.23797000000000001  1.0000
  H   H4        1.0  0.40071  0.31517  0.13501000000000005  1.0000
  H   H5        1.0  0.44764  0.53964  0.37564  1.0000
  H   H6        1.0  0.38666999999999996  0.44743  0.33891  1.0000
  H   H7        1.0  0.50533  0.39741  0.35359  1.0000
  H   H8        1.0  0.4283000000000002  0.3730200000000001  0.3648900000000001  1.0000
  H   H9        1.0  0.57628  0.56104  0.41047  1.0000
  H   H10       1.0  0.60548  0.51964  0.45710000000000006  1.0000
  H   H11       1.0  0.9564599999999999  0.17141  0.99605  1.0000
  H   H12       1.0  0.97907  0.29703  0.05449  1.0000
  H   H13       1.0  0.12216000000000003  0.3604800000000001  0.9728900000000003  1.0000
  H   H14       1.0  0.09928000000000002  0.2344900000000001  0.91451  1.0000
  H   H15       1.0  0.05225000000000001  0.4280300000000001  0.09204  1.0000
  H   H16       1.0  0.11317999999999999  0.45232999999999995  0.06083000000000001  1.0000
  H   H17       1.0  0.9943799999999999  0.3481100000000001  0.8919400000000001  1.0000
  H   H18       1.0  0.07153000000000008  0.43647000000000014  0.9446700000000001  1.0000
  H   H19       1.0  0.9236099999999999  0.33402000000000004  0.98467  1.0000
  H   H20       1.0  0.89437  0.3514  0.91405  1.0000
  H   H21       1.0  0.82472  0.32873  0.28517  1.0000
  H   H22       1.0  0.7577099999999999  0.20299  0.18226  1.0000
  H   H23       1.0  0.61265  0.13942  0.26181  1.0000
  H   H24       1.0  0.6801100000000001  0.26550000000000007  0.3648900000000001  1.0000
  H   H25       1.0  0.66413  0.07198  0.12426  1.0000
  H   H26       1.0  0.60861  0.04764  0.16088  1.0000
  H   H27       1.0  0.54396  0.1518  0.14636  1.0000
  H   H28       1.0  0.50825  0.06348  0.1351  1.0000
  H   H29       1.0  0.6507599999999999  0.16589  0.08967  1.0000
  H   H30       1.0  0.56273  0.1485  0.04307000000000001  1.0000
  H   H31       1.0  0.67529  0.96043  0.50406  1.0000
  H   H32       1.0  0.7423099999999999  0.92456  0.44553000000000004  1.0000
  H   H33       1.0  0.88751  0.14935  0.5272  1.0000
  H   H34       1.0  0.8200199999999999  0.18485  0.58564  1.0000
  H   H35       1.0  0.8357299999999999  0.9601799999999999  0.40798  1.0000
  H   H36       1.0  0.89131  0.05236000000000006  0.43917000000000006  1.0000
  H   H37       1.0  0.95623  0.10250000000000002  0.60801  1.0000
  H   H38       1.0  0.99178  0.12689  0.5552800000000001  1.0000
  H   H39       1.0  0.8492099999999999  0.93878  0.51503  1.0000
  H   H40       1.0  0.93726  0.98029  0.5858000000000002  1.0000
  H   H41       1.0  0.9960699999999999  0.45644999999999997  0.67141  1.0000
  H   H42       1.0  0.05450000000000004  0.47907000000000005  0.7970300000000001  1.0000
  H   H43       1.0  0.9728999999999999  0.62216  0.86048  1.0000
  H   H44       1.0  0.91453  0.59928  0.73449  1.0000
  H   H45       1.0  0.09205  0.55226  0.92803  1.0000
  H   H46       1.0  0.06083000000000004  0.61318  0.95233  1.0000
  H   H47       1.0  0.89196  0.49438  0.84811  1.0000
  H   H48       1.0  0.9446699999999999  0.57152  0.93647  1.0000
  H   H49       1.0  0.9846800000000001  0.4236100000000001  0.8340100000000003  1.0000
  H   H50       1.0  0.91406  0.39437  0.85141  1.0000
  H   H51       1.0  0.21505  0.04352  0.03969  1.0000
  H   H52       1.0  0.3179  0.02077  0.07533  1.0000
  H   H53       1.0  0.23797000000000001  0.8776499999999999  0.8504700000000002  1.0000
  H   H54       1.0  0.13502  0.90071  0.8151700000000002  1.0000
  H   H55       1.0  0.37563999999999986  0.94764  0.03964  1.0000
  H   H56       1.0  0.33891  0.8866700000000001  0.94742  1.0000
  H   H57       1.0  0.35359  0.005330000000000053  0.8974100000000002  1.0000
  H   H58       1.0  0.36490000000000017  0.9282900000000002  0.8730100000000001  1.0000
  H   H59       1.0  0.41047  0.07628  0.06103000000000001  1.0000
  H   H60       1.0  0.45710999999999996  0.10547  0.01964  1.0000
  H   H61       1.0  0.50406  0.17528  0.46043  1.0000
  H   H62       1.0  0.44552999999999987  0.24231  0.42456  1.0000
  H   H63       1.0  0.52721  0.3875100000000002  0.6493500000000002  1.0000
  H   H64       1.0  0.5856400000000002  0.32001000000000007  0.6848400000000001  1.0000
  H   H65       1.0  0.40799  0.33573  0.46018  1.0000
  H   H66       1.0  0.43917  0.39131000000000005  0.55236  1.0000
  H   H67       1.0  0.6080200000000001  0.4562300000000002  0.6024900000000002  1.0000
  H   H68       1.0  0.55529  0.49177  0.62689  1.0000
  H   H69       1.0  0.51504  0.34921  0.43878  1.0000
  H   H70       1.0  0.5858  0.4372600000000001  0.4802900000000001  1.0000
  H   H71       1.0  0.28517  0.32472000000000006  0.82873  1.0000
  H   H72       1.0  0.18227000000000004  0.25771000000000005  0.7029800000000002  1.0000
  H   H73       1.0  0.26182  0.11265  0.63942  1.0000
  H   H74       1.0  0.3648900000000001  0.18011000000000016  0.7655000000000002  1.0000
  H   H75       1.0  0.12427000000000002  0.16412  0.57198  1.0000
  H   H76       1.0  0.16087999999999994  0.10860999999999998  0.54763  1.0000
  H   H77       1.0  0.14636  0.043959999999999985  0.6518  1.0000
  H   H78       1.0  0.1351  0.008249999999999992  0.56348  1.0000
  H   H79       1.0  0.08967000000000001  0.15075999999999995  0.66589  1.0000
  H   H80       1.0  0.04305999999999999  0.06273000000000001  0.6485  1.0000
  H   H81       1.0  0.46044  0.0040600000000000185  0.67528  1.0000
  H   H82       1.0  0.4245700000000001  0.9455300000000001  0.74231  1.0000
  H   H83       1.0  0.64935  0.02721000000000004  0.88751  1.0000
  H   H84       1.0  0.6848600000000001  0.08564000000000002  0.8200200000000001  1.0000
  H   H85       1.0  0.4601800000000001  0.9079800000000001  0.8357200000000002  1.0000
  H   H86       1.0  0.5523700000000001  0.9391700000000001  0.8913  1.0000
  H   H87       1.0  0.6025  0.10800999999999998  0.95622  1.0000
  H   H88       1.0  0.62689  0.055279999999999975  0.99177  1.0000
  H   H89       1.0  0.4387800000000001  0.015040000000000015  0.84921  1.0000
  H   H90       1.0  0.4803  0.08580000000000007  0.93725  1.0000
  H   H91       1.0  0.8287400000000001  0.7851700000000003  0.8247200000000002  1.0000
  H   H92       1.0  0.70299  0.6822600000000002  0.7577000000000003  1.0000
  H   H93       1.0  0.63942  0.7618099999999999  0.61264  1.0000
  H   H94       1.0  0.7655000000000001  0.8648800000000001  0.6801100000000001  1.0000
  H   H95       1.0  0.5719800000000002  0.62427  0.6641200000000003  1.0000
  H   H96       1.0  0.5476400000000001  0.66088  0.6086000000000001  1.0000
  H   H97       1.0  0.6518  0.64636  0.5439500000000002  1.0000
  H   H98       1.0  0.56348  0.6351  0.50825  1.0000
  H   H99       1.0  0.6659  0.58967  0.65075  1.0000
  H   H100      1.0  0.6485000000000002  0.5430600000000002  0.5627200000000002  1.0000
  H   H101      1.0  0.6714099999999998  0.49606  0.95646  1.0000
  H   H102      1.0  0.79704  0.55449  0.97907  1.0000
  H   H103      1.0  0.86049  0.4728899999999999  0.12216  1.0000
  H   H104      1.0  0.7344899999999999  0.41452000000000006  0.09928  1.0000
  H   H105      1.0  0.9280399999999999  0.59204  0.05226  1.0000
  H   H106      1.0  0.95234  0.56083  0.11318  1.0000
  H   H107      1.0  0.84811  0.39195000000000013  0.9943800000000003  1.0000
  H   H108      1.0  0.9364799999999998  0.44467  0.07152  1.0000
  H   H109      1.0  0.83402  0.48467000000000005  0.92361  1.0000
  H   H110      1.0  0.85141  0.41405  0.89437  1.0000
  H   H111      1.0  0.03969000000000003  0.71505  0.54352  1.0000
  H   H112      1.0  0.07533999999999999  0.8179  0.52077  1.0000
  H   H113      1.0  0.85048  0.73797  0.37765  1.0000
  H   H114      1.0  0.81517  0.63501  0.4007  1.0000
  H   H115      1.0  0.03965  0.87563  0.44764000000000004  1.0000
  H   H116      1.0  0.9474399999999998  0.8389  0.3866700000000001  1.0000
  H   H117      1.0  0.8974099999999999  0.85359  0.50532  1.0000
  H   H118      1.0  0.87302  0.8648900000000002  0.42829000000000006  1.0000
  H   H119      1.0  0.061039999999999976  0.91047  0.57627  1.0000
  H   H120      1.0  0.019649999999999872  0.9571  0.60547  1.0000
  H   H121      1.0  0.45646  0.99605  0.17141  1.0000
  H   H122      1.0  0.47906999999999994  0.05449000000000001  0.29703  1.0000
  H   H123      1.0  0.62216  0.9728900000000001  0.36048  1.0000
  H   H124      1.0  0.5992800000000001  0.9145100000000002  0.23449  1.0000
  H   H125      1.0  0.5522600000000002  0.09204000000000008  0.42803000000000013  1.0000
  H   H126      1.0  0.6131799999999998  0.060829999999999995  0.45233  1.0000
  H   H127      1.0  0.4943799999999999  0.8919399999999998  0.34811  1.0000
  H   H128      1.0  0.5715299999999999  0.9446700000000001  0.4364700000000001  1.0000
  H   H129      1.0  0.42361000000000004  0.9846700000000002  0.33402  1.0000
  H   H130      1.0  0.39436999999999994  0.91405  0.3514  1.0000
  H   H131      1.0  0.04351999999999999  0.21505  0.53968  1.0000
  H   H132      1.0  0.020769999999999993  0.31790000000000007  0.5753400000000001  1.0000
  H   H133      1.0  0.87765  0.23797000000000004  0.3504700000000001  1.0000
  H   H134      1.0  0.90071  0.13501  0.31517  1.0000
  H   H135      1.0  0.9476500000000002  0.37564000000000014  0.5396400000000002  1.0000
  H   H136      1.0  0.88668  0.33891  0.44743  1.0000
  H   H137      1.0  0.00533  0.35359000000000007  0.39741  1.0000
  H   H138      1.0  0.9283  0.36489  0.37302  1.0000
  H   H139      1.0  0.07628000000000008  0.4104700000000001  0.5610400000000001  1.0000
  H   H140      1.0  0.10547999999999999  0.4571  0.51964  1.0000
  H   H141      1.0  0.17529000000000003  0.50407  0.96043  1.0000
  H   H142      1.0  0.2423100000000001  0.44553000000000015  0.9245600000000002  1.0000
  H   H143      1.0  0.38751  0.5272  0.14935  1.0000
  H   H144      1.0  0.32002  0.58564  0.18485000000000004  1.0000
  H   H145      1.0  0.33573  0.40798  0.96018  1.0000
  H   H146      1.0  0.39131  0.43917  0.05236000000000001  1.0000
  H   H147      1.0  0.45622999999999997  0.60801  0.1025  1.0000
  H   H148      1.0  0.49177  0.55528  0.12689  1.0000
  H   H149      1.0  0.3492100000000001  0.51504  0.9387700000000001  1.0000
  H   H150      1.0  0.43726  0.5858  0.98029  1.0000
  H   H151      1.0  0.32472  0.28517  0.32873  1.0000
  H   H152      1.0  0.25770999999999994  0.18226000000000003  0.20299000000000006  1.0000
  H   H153      1.0  0.11264999999999999  0.26181  0.13942  1.0000
  H   H154      1.0  0.18011  0.36489  0.2655  1.0000
  H   H155      1.0  0.16412000000000002  0.12426000000000001  0.07198  1.0000
  H   H156      1.0  0.10860999999999998  0.16088000000000005  0.04764  1.0000
  H   H157      1.0  0.043960000000000006  0.14636  0.15180000000000002  1.0000
  H   H158      1.0  0.008249999999999988  0.1351  0.06348  1.0000
  H   H159      1.0  0.15076000000000003  0.08967  0.16589000000000004  1.0000
  H   H160      1.0  0.06273  0.043070000000000004  0.1485  1.0000
  H   H161      1.0  0.004059999999999978  0.46041999999999994  0.17528  1.0000
  H   H162      1.0  0.9455300000000002  0.42456  0.24231  1.0000
  H   H163      1.0  0.027200000000000023  0.64935  0.38751  1.0000
  H   H164      1.0  0.08564  0.68484  0.32001  1.0000
  H   H165      1.0  0.90799  0.46018  0.33573  1.0000
  H   H166      1.0  0.9391699999999997  0.55236  0.39131  1.0000
  H   H167      1.0  0.10800999999999993  0.6025  0.45623  1.0000
  H   H168      1.0  0.05529000000000002  0.62689  0.49177000000000004  1.0000
  H   H169      1.0  0.015040000000000026  0.43878  0.34921  1.0000
  H   H170      1.0  0.08580000000000003  0.48029000000000005  0.43725  1.0000
  H   H171      1.0  0.78517  0.82873  0.32472  1.0000
  H   H172      1.0  0.68227  0.70298  0.2577  1.0000
  H   H173      1.0  0.7618199999999999  0.63942  0.11264  1.0000
  H   H174      1.0  0.8648899999999998  0.7655  0.18011000000000005  1.0000
  H   H175      1.0  0.62427  0.57198  0.16412  1.0000
  H   H176      1.0  0.6608799999999999  0.54763  0.1086  1.0000
  H   H177      1.0  0.6463599999999999  0.6518  0.04396  1.0000
  H   H178      1.0  0.6351  0.56348  0.00825  1.0000
  H   H179      1.0  0.58967  0.66589  0.15075  1.0000
  H   H180      1.0  0.54306  0.6485  0.06272  1.0000
  H   H181      1.0  0.49606999999999996  0.67141  0.45645  1.0000
  H   H182      1.0  0.5545  0.79703  0.47907000000000005  1.0000
  H   H183      1.0  0.47289999999999993  0.86048  0.62216  1.0000
  H   H184      1.0  0.41452999999999995  0.73449  0.59928  1.0000
  H   H185      1.0  0.59205  0.9280300000000002  0.5522600000000001  1.0000
  H   H186      1.0  0.56083  0.95233  0.61317  1.0000
  H   H187      1.0  0.39195  0.84811  0.49438  1.0000
  H   H188      1.0  0.44467  0.9364700000000002  0.5715200000000003  1.0000
  H   H189      1.0  0.48467  0.83401  0.4236  1.0000
  H   H190      1.0  0.41405999999999993  0.85141  0.3943700000000001  1.0000
  H   H191      1.0  0.71505  0.03969  0.04352  1.0000
  H   H192      1.0  0.8178999999999998  0.07533000000000001  0.020770000000000004  1.0000
  H   H193      1.0  0.73797  0.85047  0.8776500000000002  1.0000
  H   H194      1.0  0.63502  0.8151699999999998  0.9007100000000001  1.0000
  H   H195      1.0  0.87564  0.03964000000000006  0.9476400000000001  1.0000
  H   H196      1.0  0.8389099999999999  0.94743  0.8866700000000001  1.0000
  H   H197      1.0  0.85359  0.89741  0.00532  1.0000
  H   H198      1.0  0.8648999999999999  0.8730200000000001  0.9282900000000001  1.0000
  H   H199      1.0  0.91047  0.06103000000000001  0.07628000000000001  1.0000
  H   H200      1.0  0.9571099999999999  0.019639999999999998  0.10547  1.0000
  H   H201      1.0  0.53969  0.54352  0.71505  1.0000
  H   H202      1.0  0.57534  0.52077  0.8179  1.0000
  H   H203      1.0  0.3504800000000001  0.37765000000000015  0.7379700000000002  1.0000
  H   H204      1.0  0.31516999999999995  0.40069999999999995  0.63501  1.0000
  H   H205      1.0  0.53965  0.44764000000000004  0.8756300000000001  1.0000
  H   H206      1.0  0.44743999999999995  0.38667  0.8389  1.0000
  H   H207      1.0  0.39741  0.50532  0.85359  1.0000
  H   H208      1.0  0.37302  0.42828999999999995  0.8648900000000002  1.0000
  H   H209      1.0  0.56104  0.57628  0.91047  1.0000
  H   H210      1.0  0.51965  0.60547  0.9571  1.0000
  H   H211      1.0  0.17141000000000006  0.95646  0.49606  1.0000
  H   H212      1.0  0.29704  0.97907  0.55449  1.0000
  H   H213      1.0  0.36049  0.12216000000000005  0.47289  1.0000
  H   H214      1.0  0.23449  0.09927999999999998  0.41452  1.0000
  H   H215      1.0  0.42804  0.05226000000000001  0.59204  1.0000
  H   H216      1.0  0.45234  0.11318000000000004  0.56083  1.0000
  H   H217      1.0  0.3481099999999999  0.99438  0.3919500000000001  1.0000
  H   H218      1.0  0.4364799999999999  0.07152000000000003  0.44467  1.0000
  H   H219      1.0  0.33402000000000004  0.9236100000000002  0.48467000000000005  1.0000
  H   H220      1.0  0.35141000000000006  0.8943700000000001  0.41405  1.0000
  H   H221      1.0  0.3287399999999999  0.82472  0.78517  1.0000
  H   H222      1.0  0.20298999999999998  0.7577  0.68226  1.0000
  H   H223      1.0  0.13941999999999996  0.61264  0.76181  1.0000
  H   H224      1.0  0.2655  0.68011  0.86488  1.0000
  H   H225      1.0  0.0719800000000001  0.6641200000000002  0.6242600000000001  1.0000
  H   H226      1.0  0.04763999999999999  0.60861  0.66088  1.0000
  H   H227      1.0  0.1518  0.54396  0.64635  1.0000
  H   H228      1.0  0.06348000000000004  0.5082500000000001  0.6351000000000001  1.0000
  H   H229      1.0  0.16588999999999995  0.65075  0.58967  1.0000
  H   H230      1.0  0.14850000000000005  0.5627200000000001  0.5430600000000001  1.0000
  H   H231      1.0  0.9604399999999997  0.67528  0.00406  1.0000
  H   H232      1.0  0.92457  0.74231  0.94553  1.0000
  H   H233      1.0  0.14935  0.88751  0.0272  1.0000
  H   H234      1.0  0.18484999999999996  0.82002  0.08564000000000002  1.0000
  H   H235      1.0  0.9601899999999999  0.8357199999999999  0.90798  1.0000
  H   H236      1.0  0.05236999999999998  0.8913  0.93916  1.0000
  H   H237      1.0  0.10249999999999995  0.9562199999999998  0.10801  1.0000
  H   H238      1.0  0.12689  0.99176  0.05528000000000001  1.0000
  H   H239      1.0  0.93878  0.8492  0.015040000000000001  1.0000
  H   H240      1.0  0.9803  0.9372500000000001  0.0858  1.0000
  C   C1        1.0  0.48736  0.40349  0.10738  1.0000
  C   C2        1.0  0.47412  0.42485000000000006  0.16825  1.0000
  C   C3        1.0  0.50718  0.49863  0.22036  1.0000
  C   C4        1.0  0.4951  0.51816  0.27858  1.0000
  C   C5        1.0  0.44993  0.46535  0.28737  1.0000
  C   C6        1.0  0.41515  0.39192  0.23382  1.0000
  C   C7        1.0  0.4273299999999999  0.37181000000000003  0.17588  1.0000
  C   C8        1.0  0.4411000000000001  0.4853400000000001  0.3530100000000001  1.0000
  C   C9        1.0  0.4863999999999999  0.41161  0.39247  1.0000
  C   C10       1.0  0.56968  0.54245  0.44814  1.0000
  C   C11       1.0  0.012740000000000048  0.12010000000000008  0.91621  1.0000
  C   C12       1.0  0.025910000000000016  0.19420000000000004  0.9507700000000001  1.0000
  C   C13       1.0  0.9927799999999998  0.21313999999999989  0.99141  1.0000
  C   C14       1.0  0.004780000000000014  0.28343  0.02304  1.0000
  C   C15       1.0  0.04996  0.33745  0.015470000000000001  1.0000
  C   C16       1.0  0.08474000000000001  0.31876  0.9768200000000001  1.0000
  C   C17       1.0  0.07265000000000006  0.24867000000000003  0.9445200000000001  1.0000
  C   C18       1.0  0.058769999999999996  0.41192  0.044270000000000004  1.0000
  C   C19       1.0  0.01343000000000002  0.4059499999999999  0.9251300000000001  1.0000
  C   C20       1.0  0.9301999999999999  0.3782800000000001  0.9726700000000001  1.0000
  C   C21       1.0  0.7960599999999998  0.37998  0.3927200000000001  1.0000
  C   C22       1.0  0.75663  0.30588  0.33181  1.0000
  C   C23       1.0  0.77838  0.28695000000000004  0.2797700000000001  1.0000
  C   C24       1.0  0.7397899999999998  0.21661000000000005  0.22152000000000002  1.0000
  C   C25       1.0  0.6782  0.16254000000000002  0.21264000000000005  1.0000
  C   C26       1.0  0.65824  0.18121000000000007  0.2661100000000001  1.0000
  C   C27       1.0  0.69596  0.25133000000000005  0.3240900000000001  1.0000
  C   C28       1.0  0.63248  0.08806000000000001  0.14693000000000003  1.0000
  C   C29       1.0  0.51925  0.09396  0.1075  1.0000
  C   C30       1.0  0.59446  0.12163  0.05197  1.0000
  C   C31       1.0  0.70396  0.09666000000000002  0.58398  1.0000
  C   C32       1.0  0.7434199999999999  0.07520999999999999  0.54939  1.0000
  C   C33       1.0  0.72167  0.0014100000000000195  0.5087  1.0000
  C   C34       1.0  0.76028  0.9817699999999999  0.47704  1.0000
  C   C35       1.0  0.8218899999999999  0.03452  0.48461  1.0000
  C   C36       1.0  0.84189  0.10796999999999995  0.52329  1.0000
  C   C37       1.0  0.8041499999999998  0.12819000000000005  0.55562  1.0000
  C   C38       1.0  0.8675099999999999  0.014519999999999988  0.45573  1.0000
  C   C39       1.0  0.98083  0.08832000000000012  0.5748000000000002  1.0000
  C   C40       1.0  0.9055299999999996  0.95747  0.52717  1.0000
  C   C41       1.0  0.91622  0.5127400000000001  0.6200900000000003  1.0000
  C   C42       1.0  0.9507799999999997  0.5259  0.69419  1.0000
  C   C43       1.0  0.99142  0.49278000000000005  0.7131400000000001  1.0000
  C   C44       1.0  0.023040000000000074  0.5047800000000001  0.7834300000000002  1.0000
  C   C45       1.0  0.015470000000000084  0.5499600000000001  0.8374500000000002  1.0000
  C   C46       1.0  0.97683  0.58474  0.81877  1.0000
  C   C47       1.0  0.9445300000000001  0.5726500000000001  0.7486700000000002  1.0000
  C   C48       1.0  0.04427000000000002  0.5587700000000001  0.91192  1.0000
  C   C49       1.0  0.92514  0.51342  0.90595  1.0000
  C   C50       1.0  0.97268  0.4301900000000001  0.8782800000000001  1.0000
  C   C51       1.0  0.10738000000000006  0.98736  0.9035000000000001  1.0000
  C   C52       1.0  0.16826000000000008  0.9741200000000001  0.9248500000000001  1.0000
  C   C53       1.0  0.22035999999999997  0.007179999999999969  0.99863  1.0000
  C   C54       1.0  0.27857999999999994  0.9950899999999999  0.018160000000000006  1.0000
  C   C55       1.0  0.28737  0.94992  0.96535  1.0000
  C   C56       1.0  0.23382999999999995  0.91514  0.89191  1.0000
  C   C57       1.0  0.17589000000000002  0.9273299999999999  0.8718100000000001  1.0000
  C   C58       1.0  0.35301000000000005  0.9410900000000001  0.9853300000000002  1.0000
  C   C59       1.0  0.3924800000000001  0.9863900000000001  0.9116000000000001  1.0000
  C   C60       1.0  0.4481399999999999  0.06968  0.04245  1.0000
  C   C61       1.0  0.58398  0.20396  0.59665  1.0000
  C   C62       1.0  0.54939  0.24341999999999997  0.5752  1.0000
  C   C63       1.0  0.5087  0.22166  0.5014  1.0000
  C   C64       1.0  0.47703999999999996  0.26028000000000007  0.48177000000000003  1.0000
  C   C65       1.0  0.48461  0.32189  0.53452  1.0000
  C   C66       1.0  0.52329  0.3418900000000001  0.6079700000000001  1.0000
  C   C67       1.0  0.5556200000000001  0.30414  0.62818  1.0000
  C   C68       1.0  0.45574  0.3675  0.51452  1.0000
  C   C69       1.0  0.5748  0.48083  0.58832  1.0000
  C   C70       1.0  0.5271800000000001  0.40552000000000005  0.45747000000000004  1.0000
  C   C71       1.0  0.39272  0.29607  0.87998  1.0000
  C   C72       1.0  0.33180999999999994  0.2566300000000001  0.8058800000000002  1.0000
  C   C73       1.0  0.27976999999999996  0.27838  0.78695  1.0000
  C   C74       1.0  0.22151999999999997  0.23979  0.71661  1.0000
  C   C75       1.0  0.21264999999999998  0.1782  0.66254  1.0000
  C   C76       1.0  0.26611  0.15824  0.6812  1.0000
  C   C77       1.0  0.32409  0.1959599999999999  0.75133  1.0000
  C   C78       1.0  0.14693999999999996  0.13247999999999993  0.58806  1.0000
  C   C79       1.0  0.10751000000000006  0.019250000000000052  0.5939500000000001  1.0000
  C   C80       1.0  0.05197000000000001  0.09445999999999999  0.62163  1.0000
  C   C81       1.0  0.5966600000000001  0.08398000000000012  0.7039600000000003  1.0000
  C   C82       1.0  0.57521  0.049390000000000024  0.74342  1.0000
  C   C83       1.0  0.50141  0.008700000000000046  0.7216600000000001  1.0000
  C   C84       1.0  0.48177  0.97703  0.76027  1.0000
  C   C85       1.0  0.53452  0.9846000000000001  0.8218900000000001  1.0000
  C   C86       1.0  0.6079799999999999  0.023290000000000005  0.84189  1.0000
  C   C87       1.0  0.62819  0.05562000000000002  0.80414  1.0000
  C   C88       1.0  0.51452  0.95573  0.8675  1.0000
  C   C89       1.0  0.58832  0.07479999999999996  0.98083  1.0000
  C   C90       1.0  0.45746999999999993  0.027179999999999985  0.90552  1.0000
  C   C91       1.0  0.87999  0.89272  0.79606  1.0000
  C   C92       1.0  0.80588  0.83181  0.75662  1.0000
  C   C93       1.0  0.78695  0.77977  0.77838  1.0000
  C   C94       1.0  0.71661  0.72152  0.73979  1.0000
  C   C95       1.0  0.66254  0.7126400000000002  0.6781900000000002  1.0000
  C   C96       1.0  0.68121  0.76611  0.65823  1.0000
  C   C97       1.0  0.75134  0.82409  0.69595  1.0000
  C   C98       1.0  0.58807  0.64693  0.63248  1.0000
  C   C99       1.0  0.59396  0.6075  0.51925  1.0000
  C   C100      1.0  0.62163  0.55197  0.5944600000000002  1.0000
  C   C101      1.0  0.6201  0.41622000000000003  0.012740000000000001  1.0000
  C   C102      1.0  0.6942  0.45077  0.025910000000000006  1.0000
  C   C103      1.0  0.7131500000000002  0.4914200000000001  0.9927800000000001  1.0000
  C   C104      1.0  0.7834399999999999  0.52303  0.00478  1.0000
  C   C105      1.0  0.83746  0.51547  0.04997  1.0000
  C   C106      1.0  0.81877  0.47682  0.08474  1.0000
  C   C107      1.0  0.74867  0.44453  0.07265  1.0000
  C   C108      1.0  0.91193  0.54427  0.05877  1.0000
  C   C109      1.0  0.9059499999999999  0.42513  0.01342  1.0000
  C   C110      1.0  0.87829  0.47267  0.93019  1.0000
  C   C111      1.0  0.9035  0.60738  0.48736  1.0000
  C   C112      1.0  0.92486  0.66825  0.47411  1.0000
  C   C113      1.0  0.9986399999999999  0.72036  0.50717  1.0000
  C   C114      1.0  0.01816000000000001  0.77858  0.49509000000000003  1.0000
  C   C115      1.0  0.96536  0.7873600000000001  0.44992  1.0000
  C   C116      1.0  0.8919199999999998  0.73382  0.41514  1.0000
  C   C117      1.0  0.8718100000000001  0.6758800000000001  0.42732000000000003  1.0000
  C   C118      1.0  0.9853499999999998  0.85301  0.44109  1.0000
  C   C119      1.0  0.9116100000000001  0.89247  0.48639000000000004  1.0000
  C   C120      1.0  0.04245000000000005  0.9481400000000001  0.56968  1.0000
  C   C121      1.0  0.5127399999999999  0.91621  0.12009000000000003  1.0000
  C   C122      1.0  0.5259100000000001  0.9507700000000002  0.19420000000000007  1.0000
  C   C123      1.0  0.49278  0.9914100000000001  0.21314  1.0000
  C   C124      1.0  0.50478  0.023040000000000005  0.28343  1.0000
  C   C125      1.0  0.54996  0.015470000000000005  0.33745  1.0000
  C   C126      1.0  0.58474  0.9768199999999999  0.31876  1.0000
  C   C127      1.0  0.5726499999999999  0.9445199999999999  0.24867  1.0000
  C   C128      1.0  0.55877  0.04426999999999999  0.41192  1.0000
  C   C129      1.0  0.51343  0.9251299999999999  0.40595  1.0000
  C   C130      1.0  0.43019  0.97267  0.37828000000000006  1.0000
  C   C131      1.0  0.98736  0.10738  0.40349000000000007  1.0000
  C   C132      1.0  0.9741199999999999  0.16825  0.42485  1.0000
  C   C133      1.0  0.007180000000000008  0.22036  0.49863  1.0000
  C   C134      1.0  0.9950999999999999  0.27858  0.51816  1.0000
  C   C135      1.0  0.9499299999999999  0.28737  0.46535  1.0000
  C   C136      1.0  0.9151499999999999  0.23382  0.39191  1.0000
  C   C137      1.0  0.92733  0.17588  0.37181  1.0000
  C   C138      1.0  0.9411000000000002  0.35301  0.48534000000000005  1.0000
  C   C139      1.0  0.9863999999999999  0.39247000000000004  0.4116100000000001  1.0000
  C   C140      1.0  0.06968000000000013  0.44814000000000015  0.5424500000000002  1.0000
  C   C141      1.0  0.20396  0.58398  0.09666  1.0000
  C   C142      1.0  0.24342  0.54939  0.07521  1.0000
  C   C143      1.0  0.22167  0.5087  0.0014  1.0000
  C   C144      1.0  0.26028  0.4770400000000001  0.9817700000000001  1.0000
  C   C145      1.0  0.32189  0.48461  0.03452  1.0000
  C   C146      1.0  0.34189  0.52329  0.10797000000000002  1.0000
  C   C147      1.0  0.30415  0.55562  0.12819  1.0000
  C   C148      1.0  0.3675  0.45573  0.014520000000000002  1.0000
  C   C149      1.0  0.4808299999999999  0.5748  0.08832000000000002  1.0000
  C   C150      1.0  0.4055300000000001  0.52717  0.9574700000000002  1.0000
  C   C151      1.0  0.29606000000000005  0.39272000000000007  0.37998  1.0000
  C   C152      1.0  0.25663  0.33181  0.3058800000000001  1.0000
  C   C153      1.0  0.27838  0.27977  0.28694  1.0000
  C   C154      1.0  0.23978999999999995  0.22152000000000002  0.21661  1.0000
  C   C155      1.0  0.1782  0.21263999999999997  0.16254  1.0000
  C   C156      1.0  0.15824  0.26611  0.18121000000000004  1.0000
  C   C157      1.0  0.19596000000000005  0.32409000000000004  0.25133000000000005  1.0000
  C   C158      1.0  0.13248  0.14693  0.08806000000000001  1.0000
  C   C159      1.0  0.01925  0.10750000000000001  0.09396  1.0000
  C   C160      1.0  0.09445999999999999  0.05197000000000001  0.12163000000000002  1.0000
  C   C161      1.0  0.08398  0.59665  0.20395000000000005  1.0000
  C   C162      1.0  0.04939000000000002  0.5752  0.24342  1.0000
  C   C163      1.0  0.00870000000000003  0.5014  0.22166  1.0000
  C   C164      1.0  0.97704  0.48177  0.26028  1.0000
  C   C165      1.0  0.9846099999999999  0.53452  0.3218900000000001  1.0000
  C   C166      1.0  0.02329000000000008  0.6079700000000001  0.34189000000000014  1.0000
  C   C167      1.0  0.055619999999999926  0.62818  0.30414  1.0000
  C   C168      1.0  0.9557399999999999  0.51452  0.3675000000000001  1.0000
  C   C169      1.0  0.0748  0.58832  0.48083  1.0000
  C   C170      1.0  0.027169999999999972  0.45747  0.40552  1.0000
  C   C171      1.0  0.89272  0.8799799999999999  0.2960600000000001  1.0000
  C   C172      1.0  0.83181  0.80588  0.2566300000000001  1.0000
  C   C173      1.0  0.77977  0.78695  0.27838  1.0000
  C   C174      1.0  0.7215199999999999  0.71661  0.23979000000000003  1.0000
  C   C175      1.0  0.71265  0.66254  0.1782  1.0000
  C   C176      1.0  0.76611  0.6812  0.15823000000000004  1.0000
  C   C177      1.0  0.82409  0.7513299999999999  0.19596  1.0000
  C   C178      1.0  0.6469399999999998  0.58806  0.13248  1.0000
  C   C179      1.0  0.60751  0.59395  0.019250000000000003  1.0000
  C   C180      1.0  0.55197  0.62163  0.09446  1.0000
  C   C181      1.0  0.41622  0.62009  0.51274  1.0000
  C   C182      1.0  0.4507800000000001  0.6942000000000002  0.5259000000000003  1.0000
  C   C183      1.0  0.4914200000000001  0.71314  0.49277000000000004  1.0000
  C   C184      1.0  0.52304  0.78343  0.50478  1.0000
  C   C185      1.0  0.51547  0.83745  0.54996  1.0000
  C   C186      1.0  0.47682999999999987  0.81877  0.58474  1.0000
  C   C187      1.0  0.44453  0.74867  0.57265  1.0000
  C   C188      1.0  0.54428  0.91192  0.55877  1.0000
  C   C189      1.0  0.4251400000000001  0.9059500000000001  0.51342  1.0000
  C   C190      1.0  0.47268  0.87828  0.43019  1.0000
  C   C191      1.0  0.60739  0.9035  0.98736  1.0000
  C   C192      1.0  0.6682599999999997  0.9248499999999998  0.9741200000000001  1.0000
  C   C193      1.0  0.72036  0.9986299999999999  0.00718  1.0000
  C   C194      1.0  0.7785900000000001  0.018160000000000006  0.9951000000000001  1.0000
  C   C195      1.0  0.7873700000000002  0.9653500000000003  0.9499200000000001  1.0000
  C   C196      1.0  0.7338299999999998  0.89191  0.9151400000000001  1.0000
  C   C197      1.0  0.6758899999999998  0.87181  0.92732  1.0000
  C   C198      1.0  0.8530099999999999  0.9853400000000002  0.9410900000000001  1.0000
  C   C199      1.0  0.8924799999999998  0.91161  0.9863900000000001  1.0000
  C   C200      1.0  0.94814  0.04245  0.06968  1.0000
  C   C201      1.0  0.4035000000000002  0.4873600000000002  0.6073800000000003  1.0000
  C   C202      1.0  0.42486  0.47411  0.66825  1.0000
  C   C203      1.0  0.49864  0.50717  0.72036  1.0000
  C   C204      1.0  0.51816  0.4951000000000001  0.7785800000000003  1.0000
  C   C205      1.0  0.46536000000000005  0.44992000000000004  0.7873600000000002  1.0000
  C   C206      1.0  0.39192  0.41514  0.73382  1.0000
  C   C207      1.0  0.37181  0.42732000000000003  0.67588  1.0000
  C   C208      1.0  0.4853500000000001  0.4411000000000001  0.8530000000000001  1.0000
  C   C209      1.0  0.41161  0.48640000000000005  0.8924700000000001  1.0000
  C   C210      1.0  0.5424499999999999  0.5696799999999999  0.9481300000000001  1.0000
  C   C211      1.0  0.1201  0.012740000000000001  0.41622  1.0000
  C   C212      1.0  0.19420000000000007  0.025909999999999996  0.45077000000000006  1.0000
  C   C213      1.0  0.2131500000000001  0.99278  0.49142000000000013  1.0000
  C   C214      1.0  0.28343999999999997  0.004789999999999962  0.52304  1.0000
  C   C215      1.0  0.33746  0.04996999999999999  0.51547  1.0000
  C   C216      1.0  0.31877000000000005  0.08474000000000004  0.4768200000000001  1.0000
  C   C217      1.0  0.24866999999999997  0.07264999999999998  0.44453  1.0000
  C   C218      1.0  0.41192999999999996  0.058780000000000006  0.54427  1.0000
  C   C219      1.0  0.40595  0.013420000000000036  0.42513000000000006  1.0000
  C   C220      1.0  0.37828000000000006  0.9301900000000001  0.47267000000000003  1.0000
  C   C221      1.0  0.37999  0.7960600000000001  0.89272  1.0000
  C   C222      1.0  0.30588  0.75662  0.8318  1.0000
  C   C223      1.0  0.2869500000000001  0.77838  0.77977  1.0000
  C   C224      1.0  0.21661  0.73979  0.72152  1.0000
  C   C225      1.0  0.16253999999999993  0.6782  0.71264  1.0000
  C   C226      1.0  0.18121000000000007  0.6582300000000001  0.7661100000000001  1.0000
  C   C227      1.0  0.25134000000000006  0.6959600000000001  0.8240900000000001  1.0000
  C   C228      1.0  0.08806000000000001  0.63248  0.64693  1.0000
  C   C229      1.0  0.09396000000000007  0.5192500000000001  0.6075000000000002  1.0000
  C   C230      1.0  0.12163  0.59446  0.55197  1.0000
  C   C231      1.0  0.09666000000000004  0.70396  0.08398  1.0000
  C   C232      1.0  0.07521000000000003  0.74342  0.04939000000000001  1.0000
  C   C233      1.0  0.0013999999999999666  0.72166  0.008700000000000003  1.0000
  C   C234      1.0  0.98178  0.7602800000000001  0.9770300000000001  1.0000
  C   C235      1.0  0.034520000000000044  0.82189  0.9846000000000001  1.0000
  C   C236      1.0  0.10796999999999997  0.84189  0.02329  1.0000
  C   C237      1.0  0.12818999999999997  0.8041399999999999  0.05562000000000001  1.0000
  C   C238      1.0  0.014520000000000033  0.8675000000000002  0.95573  1.0000
  C   C239      1.0  0.08831999999999998  0.98082  0.0748  1.0000
  C   C240      1.0  0.95747  0.90552  0.02717  1.0000
  N   N1        1.0  0.49358999999999986  0.48435  0.41448000000000007  1.0000
  N   N2        1.0  0.006269999999999975  0.4207999999999999  0.9907000000000001  1.0000
  N   N3        1.0  0.56998  0.07912  0.08551  1.0000
  N   N4        1.0  0.93002  0.015560000000000082  0.5092100000000003  1.0000
  N   N5        1.0  0.99071  0.5062700000000001  0.9208000000000001  1.0000
  N   N6        1.0  0.41448999999999997  0.99358  0.98434  1.0000
  N   N7        1.0  0.50921  0.43002  0.51556  1.0000
  N   N8        1.0  0.08552000000000001  0.06998000000000008  0.57912  1.0000
  N   N9        1.0  0.51556  0.009210000000000041  0.9300200000000001  1.0000
  N   N10       1.0  0.57913  0.58551  0.56998  1.0000
  N   N11       1.0  0.9208099999999999  0.4907  0.00626  1.0000
  N   N12       1.0  0.98435  0.9144799999999998  0.4935800000000001  1.0000
  N   N13       1.0  0.50627  0.9907  0.42080000000000006  1.0000
  N   N14       1.0  0.99359  0.41447999999999996  0.48435000000000006  1.0000
  N   N15       1.0  0.43002  0.50921  0.015560000000000001  1.0000
  N   N16       1.0  0.06998  0.08551  0.07912  1.0000
  N   N17       1.0  0.009210000000000046  0.51556  0.4300200000000001  1.0000
  N   N18       1.0  0.58552  0.57912  0.06998  1.0000
  N   N19       1.0  0.49071  0.9208  0.50626  1.0000
  N   N20       1.0  0.9144899999999999  0.98434  0.99358  1.0000
  N   N21       1.0  0.4843499999999999  0.4935899999999999  0.91448  1.0000
  N   N22       1.0  0.42081  0.006269999999999996  0.4907000000000001  1.0000
  N   N23       1.0  0.07913  0.56998  0.58551  1.0000
  N   N24       1.0  0.01556000000000002  0.93002  0.00921  1.0000
  O   O1        1.0  0.52046  0.45175  0.09412  1.0000
  O   O2        1.0  0.4655199999999998  0.33519  0.06844  1.0000
  O   O3        1.0  0.97955  0.0736600000000001  0.9312500000000002  1.0000
  O   O4        1.0  0.034730000000000004  0.10305000000000006  0.86988  1.0000
  O   O5        1.0  0.85758  0.42653  0.40606  1.0000
  O   O6        1.0  0.76669  0.39699000000000007  0.4316700000000001  1.0000
  O   O7        1.0  0.6423999999999997  0.04845999999999998  0.56888  1.0000
  O   O8        1.0  0.7333699999999999  0.16499000000000005  0.63042  1.0000
  O   O9        1.0  0.9312699999999996  0.47954  0.57366  1.0000
  O   O10       1.0  0.8698999999999998  0.53473  0.60305  1.0000
  O   O11       1.0  0.09411999999999997  0.020469999999999967  0.95176  1.0000
  O   O12       1.0  0.06844999999999997  0.96552  0.83519  1.0000
  O   O13       1.0  0.56888  0.14239000000000004  0.54845  1.0000
  O   O14       1.0  0.63042  0.23336000000000004  0.66498  1.0000
  O   O15       1.0  0.4060699999999999  0.35758  0.92653  1.0000
  O   O16       1.0  0.4316700000000001  0.2666899999999999  0.8969800000000001  1.0000
  O   O17       1.0  0.5484600000000001  0.06888000000000012  0.6424000000000002  1.0000
  O   O18       1.0  0.66499  0.13041000000000008  0.7333600000000002  1.0000
  O   O19       1.0  0.9265399999999998  0.9060599999999999  0.85757  1.0000
  O   O20       1.0  0.89699  0.93166  0.7666900000000002  1.0000
  O   O21       1.0  0.5736599999999998  0.4312599999999999  0.97954  1.0000
  O   O22       1.0  0.60306  0.36989  0.034730000000000004  1.0000
  O   O23       1.0  0.9517599999999999  0.59413  0.52046  1.0000
  O   O24       1.0  0.8351999999999999  0.56844  0.46552  1.0000
  O   O25       1.0  0.47955  0.93125  0.07366  1.0000
  O   O26       1.0  0.5347299999999999  0.8698799999999999  0.10305  1.0000
  O   O27       1.0  0.020460000000000027  0.09412  0.45175000000000004  1.0000
  O   O28       1.0  0.96553  0.06844  0.33519  1.0000
  O   O29       1.0  0.1424  0.56888  0.04846  1.0000
  O   O30       1.0  0.23337000000000008  0.63042  0.16499  1.0000
  O   O31       1.0  0.35758  0.40606  0.42653  1.0000
  O   O32       1.0  0.26669  0.43167000000000005  0.39699  1.0000
  O   O33       1.0  0.06888000000000005  0.5484500000000001  0.14239000000000002  1.0000
  O   O34       1.0  0.13041000000000005  0.6649800000000001  0.23336  1.0000
  O   O35       1.0  0.90607  0.9265300000000001  0.35758  1.0000
  O   O36       1.0  0.9316699999999999  0.8969800000000001  0.26669  1.0000
  O   O37       1.0  0.43127  0.57366  0.47954  1.0000
  O   O38       1.0  0.36989999999999995  0.60306  0.53473  1.0000
  O   O39       1.0  0.59412  0.9517600000000002  0.020470000000000006  1.0000
  O   O40       1.0  0.5684500000000001  0.8351900000000001  0.96552  1.0000
  O   O41       1.0  0.4517599999999999  0.52047  0.59413  1.0000
  O   O42       1.0  0.33519999999999994  0.46552  0.56844  1.0000
  O   O43       1.0  0.07365999999999999  0.97954  0.4312500000000001  1.0000
  O   O44       1.0  0.10305999999999997  0.034730000000000004  0.36989  1.0000
  O   O45       1.0  0.42653  0.8575800000000001  0.9060600000000001  1.0000
  O   O46       1.0  0.39699  0.7666899999999999  0.9316600000000002  1.0000
  O   O47       1.0  0.04845999999999998  0.64239  0.06888  1.0000
  O   O48       1.0  0.16499  0.73336  0.13041  1.0000
