data_image0
_chemical_formula_structural       Mg2O2HO11H2O3H3C31H16C20H15Mg2O2HO11H2O3H3C31H16C20H15Mg2O2HO11H2O3H3C31H16C20H15Mg3O2HO8H2O2C13H5C18H12Mg3O2HO8H2O2C13H5C18H12Mg3O2HO8H2O2C13H5C18H12Mg2O2HO11H2O3H3C31H16C20H15Mg2O2HO11H2O3H3C31H16C20H15Mg2O2HO11H2O3H3C31H16C20H15Mg3O2HO8H2O2C13H5C18H12Mg3O2HO8H2O2C13H5C18H12Mg3O2HO8H2O2C13H5C18H12OH2OH2OH2OH2OH2OH2CH2CH2CH2CH2CH2CH2C5H2C5H2C5H2C5H2C5H2C5H2O6H6C3HC3HC3HC3HC3HC3HC7HCHCHCHCHCHC12MgOC4HMgOC4HMgOC4HMgOC4HMgOC4HMgOC4HO5HC7H4C6H4O5HC7H4C6H4O5HC7H4C6H4O5HC7H4C6H4O5HC7H4C6H4O5HC7H4C6H4
_chemical_formula_sum              "Mg36 O216 H456 C672"
_cell_length_a       27.3704
_cell_length_b       27.4437
_cell_length_c       36.96079999999999
_cell_angle_alpha    103.995
_cell_angle_beta     76.566
_cell_angle_gamma    95.426

_symmetry_space_group_name_H-M    'P 1'
_symmetry_Int_Tables_number       1

loop_
  _symmetry_equiv_pos_as_xyz
  'x,y,z'

loop_
  _atom_site_type_symbol
  _atom_site_label
  _atom_site_symmetry_multiplicity
  _atom_site_fract_x
  _atom_site_fract_y
  _atom_site_fract_z
  _atom_site_occupancy
  Mg  Mg1       1.0  0.97494  0.042100000000000005  0.26187  1.0000
  Mg  Mg2       1.0  0.02673  0.03321  0.00359  1.0000
  O   O1        1.0  0.0103  0.09052000000000002  0.22649  1.0000
  O   O2        1.0  0.5457  0.16538  0.25301  1.0000
  H   H1        1.0  0.3910800000000001  0.051600000000000014  0.33426  1.0000
  O   O3        1.0  0.36131  0.05217000000000001  0.32284  1.0000
  O   O4        1.0  0.40981  0.07759000000000003  0.27054000000000006  1.0000
  O   O5        1.0  0.08733000000000002  0.04412  0.29324  1.0000
  O   O6        1.0  0.49078  0.07861  0.3137  1.0000
  O   O7        1.0  0.93815  0.4879  0.2876  1.0000
  O   O8        1.0  0.007229999999999994  0.46711000000000014  0.30347  1.0000
  O   O9        1.0  0.13733  0.42352  0.07931  1.0000
  O   O10       1.0  0.059229999999999984  0.41085  0.06591000000000001  1.0000
  O   O11       1.0  0.16451  0.54552  0.08827  1.0000
  O   O12       1.0  0.08696  0.01151  0.11161  1.0000
  O   O13       1.0  0.45932000000000006  0.02158  0.03978  1.0000
  H   H2        1.0  0.5142399999999999  0.10731  0.30912  1.0000
  H   H3        1.0  0.4612900000000002  0.09385000000000002  0.33256  1.0000
  O   O14       1.0  0.06893  0.49227  0.02527  1.0000
  O   O15       1.0  0.006010000000000002  0.04947  0.09058  1.0000
  O   O16       1.0  0.04614000000000001  0.09358000000000002  0.04587  1.0000
  H   H4        1.0  0.1592  0.53573  0.06128  1.0000
  H   H5        1.0  0.0761  0.45934  0.007270000000000001  1.0000
  H   H6        1.0  0.10182  0.51009  0.02624  1.0000
  C   C1        1.0  0.034730000000000004  0.13371  0.22287  1.0000
  C   C2        1.0  0.36571  0.06947  0.29211  1.0000
  C   C3        1.0  0.08103  0.030419999999999996  0.25711  1.0000
  C   C4        1.0  0.96304  0.45441000000000004  0.295  1.0000
  C   C5        1.0  0.09851999999999998  0.39361  0.0727  1.0000
  C   C6        1.0  0.1307  0.03419  0.11701  1.0000
  C   C7        1.0  0.03320000000000001  0.08872  0.08229  1.0000
  C   C8        1.0  0.03182  0.29331  0.12171000000000001  1.0000
  C   C9        1.0  0.04151000000000001  0.33486000000000005  0.10515  1.0000
  C   C10       1.0  0.09007  0.346  0.08533  1.0000
  C   C11       1.0  0.12955000000000003  0.3152000000000001  0.08244  1.0000
  C   C12       1.0  0.12023000000000003  0.27219  0.09794  1.0000
  C   C13       1.0  0.16368000000000002  0.23927  0.09458000000000003  1.0000
  C   C14       1.0  0.16229000000000002  0.2162  0.12938  1.0000
  C   C15       1.0  0.12017  0.17735000000000006  0.13709  1.0000
  C   C16       1.0  0.09721  0.17497  0.17521  1.0000
  C   C17       1.0  0.0547  0.14296  0.18331  1.0000
  C   C18       1.0  0.03277999999999999  0.11739  0.15258  1.0000
  C   C19       1.0  0.05471000000000001  0.1202  0.11422  1.0000
  C   C20       1.0  0.10047  0.14673  0.1068  1.0000
  C   C21       1.0  0.07033000000000003  0.2606  0.11524  1.0000
  C   C22       1.0  0.9877900000000001  0.2925  0.15406000000000006  1.0000
  C   C23       1.0  0.44291  0.31441  0.15520000000000006  1.0000
  C   C24       1.0  0.41492  0.33993  0.19014  1.0000
  C   C25       1.0  0.43306000000000006  0.34526000000000007  0.22333  1.0000
  C   C26       1.0  0.42084  0.38716  0.2535  1.0000
  C   C27       1.0  0.45115  0.40079  0.28051  1.0000
  C   C28       1.0  0.48165  0.3648000000000001  0.28441000000000005  1.0000
  C   C29       1.0  0.99126  0.32100000000000006  0.25594  1.0000
  C   C30       1.0  0.97165  0.3145  0.2232  1.0000
  C   C31       1.0  0.9969  0.28566  0.18852  1.0000
  H   H7        1.0  0.012339999999999999  0.36151  0.1109  1.0000
  H   H8        1.0  0.16737  0.32488000000000006  0.06848  1.0000
  H   H9        1.0  0.16781  0.21005000000000001  0.06762000000000003  1.0000
  H   H10       1.0  0.19922  0.26263  0.09118  1.0000
  H   H11       1.0  0.19828999999999994  0.1974  0.12421000000000001  1.0000
  H   H12       1.0  0.16141  0.24718  0.15524  1.0000
  H   H13       1.0  0.11337000000000004  0.19716000000000006  0.1984  1.0000
  H   H14       1.0  0.49903000000000003  0.09406000000000003  0.15854  1.0000
  H   H15       1.0  0.11883000000000002  0.14559  0.07742000000000002  1.0000
  H   H16       1.0  0.0599  0.22857  0.12699  1.0000
  H   H17       1.0  0.43327000000000004  0.31764  0.12909  1.0000
  H   H18       1.0  0.38379  0.36151  0.19055  1.0000
  H   H19       1.0  0.39537  0.41385000000000005  0.25141  1.0000
  H   H20       1.0  0.0033400000000000083  0.3734800000000001  0.30641  1.0000
  H   H21       1.0  0.01969  0.2966600000000001  0.2569  1.0000
  H   H22       1.0  0.03019  0.26717000000000013  0.18849  1.0000
  C   C32       1.0  0.27554000000000006  0.013209999999999998  0.22998  1.0000
  C   C33       1.0  0.3131499999999999  0.018450000000000008  0.25082  1.0000
  C   C34       1.0  0.32239999999999996  0.06480000000000002  0.2748400000000001  1.0000
  C   C35       1.0  0.2965300000000001  0.10706  0.27613  1.0000
  C   C36       1.0  0.25819000000000003  0.10219000000000002  0.25581  1.0000
  C   C37       1.0  0.23418  0.14922  0.25377  1.0000
  C   C38       1.0  0.21946999999999997  0.14844  0.21524000000000004  1.0000
  C   C39       1.0  0.1767  0.11196000000000002  0.20525  1.0000
  C   C40       1.0  0.17489  0.0904  0.1666  1.0000
  C   C41       1.0  0.13929  0.05135  0.15713  1.0000
  C   C42       1.0  0.11016  0.030440000000000005  0.187  1.0000
  C   C43       1.0  0.11270999999999998  0.05129  0.22564  1.0000
  C   C44       1.0  0.14112  0.09548  0.23426  1.0000
  C   C45       1.0  0.24439  0.05343  0.23738  1.0000
  C   C46       1.0  0.30517000000000005  0.4308700000000001  0.18541000000000002  1.0000
  C   C47       1.0  0.3328400000000001  0.4111000000000001  0.14857  1.0000
  C   C48       1.0  0.33759  0.43795  0.12007  1.0000
  C   C49       1.0  0.37963000000000013  0.4326000000000001  0.08967  1.0000
  C   C50       1.0  0.39177  0.46978  0.06822  1.0000
  C   C51       1.0  0.35577  0.50453  0.07138000000000001  1.0000
  H   H23       1.0  0.30724  0.14368  0.29187  1.0000
  H   H24       1.0  0.20236000000000007  0.15927000000000005  0.27857  1.0000
  H   H25       1.0  0.26189000000000007  0.18134  0.25783  1.0000
  H   H26       1.0  0.208  0.18671  0.21655  1.0000
  H   H27       1.0  0.25342999999999993  0.1412  0.19167  1.0000
  H   H28       1.0  0.20053  0.10485  0.14417  1.0000
  H   H29       1.0  0.08469999999999998  0.4985500000000001  0.18023  1.0000
  H   H30       1.0  0.13895999999999997  0.11351  0.26393  1.0000
  H   H31       1.0  0.21343000000000004  0.04588000000000001  0.22403000000000003  1.0000
  H   H32       1.0  0.30831  0.4145900000000001  0.20864  1.0000
  H   H33       1.0  0.35571  0.37918  0.14364  1.0000
  H   H34       1.0  0.4066600000000001  0.40478  0.08702  1.0000
  H   H35       1.0  0.36393  0.03377  0.05585  1.0000
  H   H36       1.0  0.2860399999999999  0.03645000000000002  0.10259000000000003  1.0000
  H   H37       1.0  0.25137999999999994  0.02512  0.16496  1.0000
  Mg  Mg3       1.0  0.9749400000000001  0.042100000000000005  0.5952  1.0000
  Mg  Mg4       1.0  0.026730000000000007  0.03321  0.33692  1.0000
  O   O17       1.0  0.0103  0.09052000000000002  0.55982  1.0000
  O   O18       1.0  0.5457000000000002  0.16538  0.58634  1.0000
  H   H38       1.0  0.39108000000000004  0.05159999999999998  0.6676  1.0000
  O   O19       1.0  0.36131  0.05217000000000001  0.65618  1.0000
  O   O20       1.0  0.40981  0.07758999999999998  0.60388  1.0000
  O   O21       1.0  0.08733  0.04412000000000003  0.62658  1.0000
  O   O22       1.0  0.49077999999999994  0.07861000000000003  0.64703  1.0000
  O   O23       1.0  0.93815  0.48790000000000006  0.62094  1.0000
  O   O24       1.0  0.007230000000000027  0.46711000000000014  0.6368  1.0000
  O   O25       1.0  0.13733  0.42352000000000006  0.4126400000000001  1.0000
  O   O26       1.0  0.059229999999999984  0.41085  0.39925  1.0000
  O   O27       1.0  0.16451  0.54552  0.42161  1.0000
  O   O28       1.0  0.08695999999999995  0.01151000000000006  0.4449400000000001  1.0000
  O   O29       1.0  0.45932000000000006  0.021580000000000044  0.3731100000000001  1.0000
  H   H39       1.0  0.51424  0.10731000000000003  0.64245  1.0000
  H   H40       1.0  0.4612900000000002  0.09385  0.66589  1.0000
  O   O30       1.0  0.06892999999999998  0.49226999999999993  0.35861  1.0000
  O   O31       1.0  0.006009999999999989  0.04946999999999999  0.42392  1.0000
  O   O32       1.0  0.04614  0.09358000000000002  0.3792  1.0000
  H   H41       1.0  0.1592  0.53573  0.39461  1.0000
  H   H42       1.0  0.07609999999999999  0.45934  0.3406100000000001  1.0000
  H   H43       1.0  0.10182  0.51009  0.35957  1.0000
  C   C52       1.0  0.03473000000000001  0.13371  0.55621  1.0000
  C   C53       1.0  0.36571  0.06947  0.62544  1.0000
  C   C54       1.0  0.08102999999999999  0.03042000000000003  0.5904500000000001  1.0000
  C   C55       1.0  0.96304  0.45441000000000004  0.62833  1.0000
  C   C56       1.0  0.09852  0.39361  0.40603  1.0000
  C   C57       1.0  0.13070000000000004  0.034190000000000005  0.45035  1.0000
  C   C58       1.0  0.03319999999999997  0.08872000000000002  0.4156300000000001  1.0000
  C   C59       1.0  0.03182  0.29331  0.45504  1.0000
  C   C60       1.0  0.04150999999999999  0.33486000000000005  0.43848000000000004  1.0000
  C   C61       1.0  0.09007  0.346  0.41867  1.0000
  C   C62       1.0  0.12955  0.3152000000000001  0.41578  1.0000
  C   C63       1.0  0.12023  0.27219  0.43127  1.0000
  C   C64       1.0  0.16367999999999994  0.23927  0.42791  1.0000
  C   C65       1.0  0.16228999999999996  0.2162000000000001  0.46271000000000007  1.0000
  C   C66       1.0  0.12016999999999999  0.17735000000000006  0.47042000000000006  1.0000
  C   C67       1.0  0.09721  0.17497  0.50855  1.0000
  C   C68       1.0  0.0547  0.14296000000000006  0.51664  1.0000
  C   C69       1.0  0.03277999999999996  0.11739000000000001  0.48591000000000006  1.0000
  C   C70       1.0  0.05471000000000001  0.1202  0.44755  1.0000
  C   C71       1.0  0.10047  0.14673  0.44013  1.0000
  C   C72       1.0  0.07032999999999999  0.2606  0.44857  1.0000
  C   C73       1.0  0.9877900000000001  0.2925  0.48739000000000005  1.0000
  C   C74       1.0  0.44291  0.31441  0.48853  1.0000
  C   C75       1.0  0.4149200000000001  0.33993  0.52347  1.0000
  C   C76       1.0  0.43306000000000006  0.34526000000000007  0.55666  1.0000
  C   C77       1.0  0.42084  0.38716  0.58683  1.0000
  C   C78       1.0  0.45114999999999994  0.40079  0.61385  1.0000
  C   C79       1.0  0.48165  0.3648000000000001  0.61774  1.0000
  C   C80       1.0  0.99126  0.32100000000000006  0.5892700000000001  1.0000
  C   C81       1.0  0.97165  0.3145  0.55653  1.0000
  C   C82       1.0  0.9969  0.28566  0.52185  1.0000
  H   H44       1.0  0.01233999999999999  0.36151  0.44423  1.0000
  H   H45       1.0  0.16737000000000005  0.32488000000000006  0.40181  1.0000
  H   H46       1.0  0.16781  0.21005  0.40095  1.0000
  H   H47       1.0  0.19922  0.26263  0.42451  1.0000
  H   H48       1.0  0.19828999999999994  0.1974  0.45754000000000006  1.0000
  H   H49       1.0  0.16141  0.24718  0.48857  1.0000
  H   H50       1.0  0.11336999999999998  0.19716000000000006  0.53173  1.0000
  H   H51       1.0  0.4990299999999999  0.09406000000000002  0.49188  1.0000
  H   H52       1.0  0.11883000000000002  0.14559  0.41076  1.0000
  H   H53       1.0  0.059899999999999974  0.22857  0.4603300000000001  1.0000
  H   H54       1.0  0.43327000000000004  0.31764  0.46242  1.0000
  H   H55       1.0  0.38379  0.36151  0.52388  1.0000
  H   H56       1.0  0.39537000000000005  0.41385  0.58474  1.0000
  H   H57       1.0  0.0033399999999999923  0.3734800000000001  0.63974  1.0000
  H   H58       1.0  0.01969000000000003  0.2966600000000001  0.59024  1.0000
  H   H59       1.0  0.030189999999999998  0.26717  0.52182  1.0000
  C   C83       1.0  0.27554  0.013209999999999973  0.56331  1.0000
  C   C84       1.0  0.31315000000000004  0.018449999999999998  0.58415  1.0000
  C   C85       1.0  0.3224  0.06480000000000002  0.60818  1.0000
  C   C86       1.0  0.29653  0.10706000000000003  0.6094600000000001  1.0000
  C   C87       1.0  0.25819  0.10219000000000004  0.58915  1.0000
  C   C88       1.0  0.23418  0.14922  0.5871  1.0000
  C   C89       1.0  0.21947  0.14844  0.54857  1.0000
  C   C90       1.0  0.1767  0.11196000000000002  0.53858  1.0000
  C   C91       1.0  0.17489  0.0904  0.49994  1.0000
  C   C92       1.0  0.13929  0.051349999999999965  0.49046  1.0000
  C   C93       1.0  0.11016  0.030440000000000023  0.52033  1.0000
  C   C94       1.0  0.11271  0.05129  0.55897  1.0000
  C   C95       1.0  0.14112000000000002  0.09547999999999997  0.5676  1.0000
  C   C96       1.0  0.24438999999999994  0.05342999999999998  0.57071  1.0000
  C   C97       1.0  0.30517000000000005  0.4308700000000001  0.51874  1.0000
  C   C98       1.0  0.3328400000000001  0.4111000000000001  0.4819  1.0000
  C   C99       1.0  0.33759000000000006  0.43795  0.45341  1.0000
  C   C100      1.0  0.37963000000000013  0.4326000000000001  0.42301  1.0000
  C   C101      1.0  0.39177  0.4697799999999999  0.40155  1.0000
  C   C102      1.0  0.35577  0.50453  0.40471  1.0000
  H   H60       1.0  0.30724  0.14368  0.6252  1.0000
  H   H61       1.0  0.20235999999999998  0.15927000000000005  0.6119  1.0000
  H   H62       1.0  0.26189  0.18134  0.59116  1.0000
  H   H63       1.0  0.20800000000000005  0.18671  0.54988  1.0000
  H   H64       1.0  0.2534300000000001  0.1412  0.525  1.0000
  H   H65       1.0  0.20053  0.10485  0.4775  1.0000
  H   H66       1.0  0.08469999999999998  0.4985500000000001  0.51356  1.0000
  H   H67       1.0  0.13896  0.11350999999999999  0.59726  1.0000
  H   H68       1.0  0.21342999999999998  0.04588  0.5573600000000001  1.0000
  H   H69       1.0  0.30831  0.4145900000000001  0.54198  1.0000
  H   H70       1.0  0.35571  0.37918  0.47698  1.0000
  H   H71       1.0  0.4066600000000001  0.40478  0.42035  1.0000
  H   H72       1.0  0.36393  0.03377  0.38918  1.0000
  H   H73       1.0  0.2860400000000001  0.03645000000000001  0.43592  1.0000
  H   H74       1.0  0.25138  0.02512000000000001  0.49829  1.0000
  Mg  Mg5       1.0  0.97494  0.04210000000000004  0.9285400000000001  1.0000
  Mg  Mg6       1.0  0.026730000000000007  0.033210000000000024  0.67025  1.0000
  O   O33       1.0  0.0103  0.09052000000000002  0.89315  1.0000
  O   O34       1.0  0.5457  0.16538000000000003  0.91968  1.0000
  H   H75       1.0  0.3910800000000001  0.0516  0.00093  1.0000
  O   O35       1.0  0.36130999999999996  0.05217000000000006  0.9895100000000001  1.0000
  O   O36       1.0  0.40981  0.07759000000000003  0.9372100000000001  1.0000
  O   O37       1.0  0.08733000000000003  0.044120000000000006  0.95991  1.0000
  O   O38       1.0  0.49077999999999994  0.07861  0.98037  1.0000
  O   O39       1.0  0.9381499999999998  0.48790000000000006  0.9542700000000001  1.0000
  O   O40       1.0  0.007229999999999929  0.46711000000000014  0.9701400000000001  1.0000
  O   O41       1.0  0.13732999999999998  0.42352  0.74598  1.0000
  O   O42       1.0  0.059229999999999984  0.41085  0.73258  1.0000
  O   O43       1.0  0.16450999999999996  0.54552  0.7549400000000002  1.0000
  O   O44       1.0  0.08696000000000001  0.011510000000000012  0.77828  1.0000
  O   O45       1.0  0.4593200000000001  0.021579999999999995  0.70645  1.0000
  H   H76       1.0  0.51424  0.10730999999999997  0.9757899999999999  1.0000
  H   H77       1.0  0.4612900000000002  0.09384999999999996  0.9992299999999998  1.0000
  O   O46       1.0  0.06893000000000002  0.49227  0.69194  1.0000
  O   O47       1.0  0.006009999999999991  0.04947000000000002  0.75725  1.0000
  O   O48       1.0  0.04614  0.09358000000000002  0.71253  1.0000
  H   H78       1.0  0.15919999999999998  0.53573  0.72795  1.0000
  H   H79       1.0  0.07609999999999999  0.45934  0.67394  1.0000
  H   H80       1.0  0.10182  0.51009  0.6929  1.0000
  C   C103      1.0  0.03473000000000001  0.13371  0.88954  1.0000
  C   C104      1.0  0.36571  0.06947  0.95878  1.0000
  C   C105      1.0  0.08102999999999999  0.03042000000000003  0.9237800000000002  1.0000
  C   C106      1.0  0.96304  0.45441000000000004  0.96166  1.0000
  C   C107      1.0  0.09852000000000002  0.39361  0.73937  1.0000
  C   C108      1.0  0.1307  0.034190000000000005  0.78368  1.0000
  C   C109      1.0  0.03319999999999998  0.08871999999999997  0.74896  1.0000
  C   C110      1.0  0.03182  0.29331  0.78838  1.0000
  C   C111      1.0  0.04151000000000001  0.33486000000000005  0.77182  1.0000
  C   C112      1.0  0.09007000000000003  0.346  0.752  1.0000
  C   C113      1.0  0.12955000000000003  0.3152000000000001  0.74911  1.0000
  C   C114      1.0  0.12023  0.27219  0.76461  1.0000
  C   C115      1.0  0.16367999999999996  0.23927  0.76125  1.0000
  C   C116      1.0  0.16229000000000002  0.21619999999999998  0.79605  1.0000
  C   C117      1.0  0.12017000000000003  0.17735000000000006  0.80375  1.0000
  C   C118      1.0  0.09721  0.17497  0.84188  1.0000
  C   C119      1.0  0.0547  0.14296000000000006  0.84998  1.0000
  C   C120      1.0  0.032780000000000024  0.11738999999999997  0.81925  1.0000
  C   C121      1.0  0.054709999999999995  0.1202  0.78089  1.0000
  C   C122      1.0  0.10047  0.14673  0.77347  1.0000
  C   C123      1.0  0.07032999999999999  0.26060000000000005  0.7819000000000002  1.0000
  C   C124      1.0  0.9877900000000001  0.2925  0.82073  1.0000
  C   C125      1.0  0.44291  0.3144100000000001  0.8218700000000001  1.0000
  C   C126      1.0  0.41491999999999996  0.33993  0.85681  1.0000
  C   C127      1.0  0.43306000000000006  0.3452600000000001  0.8899900000000001  1.0000
  C   C128      1.0  0.42084  0.38716  0.92016  1.0000
  C   C129      1.0  0.45115000000000005  0.40079  0.94718  1.0000
  C   C130      1.0  0.4816500000000001  0.3648000000000001  0.95108  1.0000
  C   C131      1.0  0.9912599999999999  0.32100000000000006  0.9226100000000002  1.0000
  C   C132      1.0  0.9716499999999999  0.3145  0.8898700000000002  1.0000
  C   C133      1.0  0.9968999999999999  0.28566  0.85518  1.0000
  H   H81       1.0  0.012340000000000005  0.36151  0.77756  1.0000
  H   H82       1.0  0.16737  0.3248800000000001  0.7351400000000001  1.0000
  H   H83       1.0  0.16781  0.21005  0.73428  1.0000
  H   H84       1.0  0.19922000000000004  0.26263  0.75785  1.0000
  H   H85       1.0  0.19829000000000002  0.19740000000000002  0.7908700000000001  1.0000
  H   H86       1.0  0.16141000000000003  0.24718  0.8219  1.0000
  H   H87       1.0  0.11337000000000001  0.19716000000000006  0.86507  1.0000
  H   H88       1.0  0.4990299999999999  0.09406000000000002  0.82521  1.0000
  H   H89       1.0  0.11883000000000003  0.14559  0.74409  1.0000
  H   H90       1.0  0.05990000000000001  0.22857  0.79366  1.0000
  H   H91       1.0  0.43327000000000004  0.31764  0.79575  1.0000
  H   H92       1.0  0.38378999999999996  0.36151  0.85721  1.0000
  H   H93       1.0  0.39536999999999994  0.41384999999999994  0.9180799999999999  1.0000
  H   H94       1.0  0.0033399999999999598  0.3734800000000001  0.97308  1.0000
  H   H95       1.0  0.019690000000000013  0.2966599999999999  0.9235699999999999  1.0000
  H   H96       1.0  0.030189999999999998  0.26717  0.85516  1.0000
  C   C134      1.0  0.27553999999999995  0.013210000000000038  0.8966400000000002  1.0000
  C   C135      1.0  0.31315  0.018449999999999998  0.91748  1.0000
  C   C136      1.0  0.3224  0.06480000000000002  0.94151  1.0000
  C   C137      1.0  0.29652999999999996  0.10706000000000003  0.9427900000000001  1.0000
  C   C138      1.0  0.2581899999999999  0.10219000000000006  0.9224800000000001  1.0000
  C   C139      1.0  0.23418  0.14921999999999996  0.92044  1.0000
  C   C140      1.0  0.21946999999999992  0.14844  0.8819100000000001  1.0000
  C   C141      1.0  0.17669999999999997  0.11196  0.87191  1.0000
  C   C142      1.0  0.17489  0.0904  0.83327  1.0000
  C   C143      1.0  0.13929  0.05134999999999998  0.82379  1.0000
  C   C144      1.0  0.11015999999999991  0.030440000000000085  0.8536600000000002  1.0000
  C   C145      1.0  0.11271000000000003  0.05129  0.8923  1.0000
  C   C146      1.0  0.14111999999999994  0.09548000000000005  0.9009300000000001  1.0000
  C   C147      1.0  0.24439  0.05342999999999999  0.90404  1.0000
  C   C148      1.0  0.30517000000000005  0.4308700000000001  0.85207  1.0000
  C   C149      1.0  0.33283999999999997  0.4111000000000001  0.8152400000000002  1.0000
  C   C150      1.0  0.33759  0.43795  0.78674  1.0000
  C   C151      1.0  0.37963000000000013  0.4326000000000001  0.75634  1.0000
  C   C152      1.0  0.3917699999999999  0.46978000000000003  0.7348900000000003  1.0000
  C   C153      1.0  0.3557699999999999  0.50453  0.73805  1.0000
  H   H97       1.0  0.30724  0.14368000000000006  0.95854  1.0000
  H   H98       1.0  0.20236000000000007  0.15927000000000005  0.94523  1.0000
  H   H99       1.0  0.26189  0.18134000000000003  0.92449  1.0000
  H   H100      1.0  0.20799999999999996  0.18671000000000001  0.8832200000000001  1.0000
  H   H101      1.0  0.25343000000000004  0.14120000000000002  0.8583400000000001  1.0000
  H   H102      1.0  0.20052999999999999  0.10485000000000003  0.81083  1.0000
  H   H103      1.0  0.08469999999999998  0.4985500000000001  0.8468900000000001  1.0000
  H   H104      1.0  0.13895999999999997  0.11350999999999999  0.9306  1.0000
  H   H105      1.0  0.21343000000000006  0.045879999999999976  0.8907  1.0000
  H   H106      1.0  0.30831  0.4145900000000001  0.87531  1.0000
  H   H107      1.0  0.35571  0.37918  0.81031  1.0000
  H   H108      1.0  0.4066600000000001  0.40478  0.75368  1.0000
  H   H109      1.0  0.3639299999999999  0.03377000000000007  0.7225100000000002  1.0000
  H   H110      1.0  0.28603999999999996  0.036450000000000045  0.7692600000000002  1.0000
  H   H111      1.0  0.25138  0.025119999999999993  0.83163  1.0000
  Mg  Mg7       1.0  0.97494  0.5421  0.26187  1.0000
  Mg  Mg8       1.0  0.034290000000000015  0.48090000000000005  0.07747  1.0000
  Mg  Mg9       1.0  0.02673  0.53321  0.00359  1.0000
  O   O49       1.0  0.010299999999999995  0.59052  0.22649  1.0000
  O   O50       1.0  0.5457000000000002  0.66538  0.25301  1.0000
  H   H112      1.0  0.3910800000000001  0.5516  0.33426  1.0000
  O   O51       1.0  0.36131  0.5521700000000003  0.32284  1.0000
  O   O52       1.0  0.4098100000000001  0.5775900000000003  0.27054000000000006  1.0000
  O   O53       1.0  0.03961999999999998  0.50636  0.2497  1.0000
  O   O54       1.0  0.08733  0.54412  0.29324  1.0000
  O   O55       1.0  0.49078  0.57861  0.3137  1.0000
  O   O56       1.0  0.08696  0.51151  0.11161  1.0000
  O   O57       1.0  0.47802000000000006  0.44963  0.05214  1.0000
  O   O58       1.0  0.45932000000000006  0.52158  0.03978  1.0000
  H   H113      1.0  0.51424  0.60731  0.30912  1.0000
  H   H114      1.0  0.46129000000000014  0.5938500000000002  0.33256  1.0000
  O   O59       1.0  0.006009999999999997  0.54947  0.09058  1.0000
  O   O60       1.0  0.046139999999999994  0.59358  0.04587  1.0000
  C   C154      1.0  0.03473000000000001  0.6337100000000001  0.22287  1.0000
  C   C155      1.0  0.36571  0.56947  0.29211  1.0000
  C   C156      1.0  0.08102999999999999  0.53042  0.25711  1.0000
  C   C157      1.0  0.1307  0.53419  0.11701  1.0000
  C   C158      1.0  0.44449  0.47852000000000006  0.04944  1.0000
  C   C159      1.0  0.0332  0.58872  0.08229  1.0000
  C   C160      1.0  0.16229000000000002  0.7162  0.12938  1.0000
  C   C161      1.0  0.12016999999999999  0.67735  0.13709  1.0000
  C   C162      1.0  0.09721  0.67497  0.17521  1.0000
  C   C163      1.0  0.054699999999999985  0.64296  0.18331  1.0000
  C   C164      1.0  0.03277999999999999  0.61739  0.15258  1.0000
  C   C165      1.0  0.05471000000000002  0.6202000000000001  0.11422  1.0000
  C   C166      1.0  0.10047  0.64673  0.1068  1.0000
  H   H115      1.0  0.16780999999999996  0.71005  0.06762000000000003  1.0000
  H   H116      1.0  0.19828999999999994  0.6974000000000001  0.12421000000000001  1.0000
  H   H117      1.0  0.11337  0.69716  0.1984  1.0000
  H   H118      1.0  0.49903000000000003  0.59406  0.15854  1.0000
  H   H119      1.0  0.11883000000000002  0.64559  0.07742000000000002  1.0000
  C   C167      1.0  0.27554000000000006  0.51321  0.22998  1.0000
  C   C168      1.0  0.31315  0.51845  0.25082  1.0000
  C   C169      1.0  0.32239999999999996  0.5648  0.2748400000000001  1.0000
  C   C170      1.0  0.29653  0.6070600000000002  0.27613  1.0000
  C   C171      1.0  0.25819  0.60219  0.25581  1.0000
  C   C172      1.0  0.23418  0.6492200000000001  0.25377  1.0000
  C   C173      1.0  0.21946999999999992  0.6484400000000002  0.21524000000000004  1.0000
  C   C174      1.0  0.1767  0.61196  0.20525  1.0000
  C   C175      1.0  0.17489  0.5904000000000001  0.1666  1.0000
  C   C176      1.0  0.13929000000000005  0.55135  0.15713  1.0000
  C   C177      1.0  0.11016  0.53044  0.187  1.0000
  C   C178      1.0  0.11271  0.55129  0.22564  1.0000
  C   C179      1.0  0.14112000000000005  0.59548  0.23426  1.0000
  C   C180      1.0  0.24439  0.55343  0.23738  1.0000
  C   C181      1.0  0.27958999999999995  0.47552999999999995  0.1927  1.0000
  C   C182      1.0  0.31129000000000007  0.50659  0.09884  1.0000
  C   C183      1.0  0.3047600000000001  0.47693  0.12565  1.0000
  C   C184      1.0  0.27275  0.4924100000000001  0.16108  1.0000
  H   H120      1.0  0.33843  0.48829  0.24595  1.0000
  H   H121      1.0  0.30724  0.6436800000000003  0.29187  1.0000
  H   H122      1.0  0.20236000000000004  0.6592700000000001  0.27857  1.0000
  H   H123      1.0  0.26189  0.68134  0.25783  1.0000
  H   H124      1.0  0.20800000000000007  0.68671  0.21655  1.0000
  H   H125      1.0  0.25343  0.6412  0.19167  1.0000
  H   H126      1.0  0.20053  0.60485  0.14417  1.0000
  H   H127      1.0  0.13896  0.6135100000000001  0.26393  1.0000
  H   H128      1.0  0.21343000000000004  0.54588  0.22403000000000003  1.0000
  H   H129      1.0  0.36393  0.53377  0.05585  1.0000
  H   H130      1.0  0.28604  0.53645  0.10259000000000003  1.0000
  H   H131      1.0  0.25138  0.52512  0.16496  1.0000
  Mg  Mg10      1.0  0.9749400000000001  0.5421  0.5952  1.0000
  Mg  Mg11      1.0  0.03429000000000001  0.48090000000000005  0.4108  1.0000
  Mg  Mg12      1.0  0.026730000000000014  0.53321  0.33692  1.0000
  O   O61       1.0  0.010300000000000028  0.59052  0.55982  1.0000
  O   O62       1.0  0.5457000000000002  0.66538  0.58634  1.0000
  H   H132      1.0  0.39108000000000004  0.5516  0.6676  1.0000
  O   O63       1.0  0.36131  0.55217  0.65618  1.0000
  O   O64       1.0  0.40981  0.57759  0.60388  1.0000
  O   O65       1.0  0.039619999999999995  0.50636  0.58304  1.0000
  O   O66       1.0  0.08733  0.54412  0.62658  1.0000
  O   O67       1.0  0.49077999999999994  0.57861  0.64703  1.0000
  O   O68       1.0  0.08695999999999997  0.5115100000000001  0.4449400000000001  1.0000
  O   O69       1.0  0.47802000000000006  0.44963  0.3854800000000001  1.0000
  O   O70       1.0  0.45932000000000006  0.5215800000000002  0.3731100000000001  1.0000
  H   H133      1.0  0.51424  0.60731  0.64245  1.0000
  H   H134      1.0  0.46129000000000014  0.5938500000000002  0.66589  1.0000
  O   O71       1.0  0.006009999999999989  0.5494699999999999  0.42392  1.0000
  O   O72       1.0  0.04614  0.59358  0.3792  1.0000
  C   C185      1.0  0.034730000000000025  0.6337100000000001  0.55621  1.0000
  C   C186      1.0  0.36571  0.56947  0.62544  1.0000
  C   C187      1.0  0.08102999999999999  0.53042  0.5904500000000001  1.0000
  C   C188      1.0  0.1307  0.53419  0.45035  1.0000
  C   C189      1.0  0.44449  0.4785200000000001  0.38277  1.0000
  C   C190      1.0  0.033199999999999966  0.58872  0.4156300000000001  1.0000
  C   C191      1.0  0.16228999999999996  0.7162  0.46271000000000007  1.0000
  C   C192      1.0  0.12016999999999993  0.67735  0.47042000000000006  1.0000
  C   C193      1.0  0.09721  0.67497  0.50855  1.0000
  C   C194      1.0  0.0547  0.64296  0.51664  1.0000
  C   C195      1.0  0.03277999999999997  0.61739  0.48591000000000006  1.0000
  C   C196      1.0  0.05471000000000003  0.6202000000000001  0.44755  1.0000
  C   C197      1.0  0.10047  0.64673  0.44013  1.0000
  H   H135      1.0  0.16781  0.71005  0.40095  1.0000
  H   H136      1.0  0.1982899999999999  0.6974  0.45754000000000006  1.0000
  H   H137      1.0  0.11336999999999998  0.69716  0.53173  1.0000
  H   H138      1.0  0.4990299999999999  0.59406  0.49188  1.0000
  H   H139      1.0  0.11883000000000002  0.64559  0.41076  1.0000
  C   C198      1.0  0.27554  0.51321  0.56331  1.0000
  C   C199      1.0  0.3131500000000001  0.51845  0.58415  1.0000
  C   C200      1.0  0.3224  0.5648  0.60818  1.0000
  C   C201      1.0  0.29652999999999996  0.6070600000000002  0.6094600000000001  1.0000
  C   C202      1.0  0.25819  0.60219  0.58915  1.0000
  C   C203      1.0  0.23418  0.6492200000000001  0.5871  1.0000
  C   C204      1.0  0.21947  0.6484400000000002  0.54857  1.0000
  C   C205      1.0  0.1767  0.61196  0.53858  1.0000
  C   C206      1.0  0.17489  0.5904000000000001  0.49994  1.0000
  C   C207      1.0  0.13929000000000005  0.55135  0.49046  1.0000
  C   C208      1.0  0.11016  0.5304400000000002  0.52033  1.0000
  C   C209      1.0  0.11270999999999994  0.55129  0.55897  1.0000
  C   C210      1.0  0.14112000000000005  0.59548  0.5676  1.0000
  C   C211      1.0  0.24438999999999994  0.55343  0.57071  1.0000
  C   C212      1.0  0.2795900000000001  0.47553000000000006  0.52603  1.0000
  C   C213      1.0  0.31129000000000007  0.50659  0.43218  1.0000
  C   C214      1.0  0.3047600000000001  0.47693  0.45897999999999994  1.0000
  C   C215      1.0  0.27275  0.4924100000000001  0.49442  1.0000
  H   H140      1.0  0.3384299999999999  0.48829  0.57928  1.0000
  H   H141      1.0  0.30724  0.6436800000000003  0.6252  1.0000
  H   H142      1.0  0.20236000000000004  0.6592700000000001  0.6119  1.0000
  H   H143      1.0  0.26189  0.68134  0.59116  1.0000
  H   H144      1.0  0.208  0.68671  0.54988  1.0000
  H   H145      1.0  0.25343  0.6412  0.525  1.0000
  H   H146      1.0  0.20053  0.60485  0.4775  1.0000
  H   H147      1.0  0.13896  0.6135100000000001  0.59726  1.0000
  H   H148      1.0  0.21342999999999995  0.54588  0.5573600000000001  1.0000
  H   H149      1.0  0.36393  0.53377  0.38918  1.0000
  H   H150      1.0  0.28604000000000007  0.5364500000000001  0.43592  1.0000
  H   H151      1.0  0.25137999999999994  0.52512  0.49829  1.0000
  Mg  Mg13      1.0  0.97494  0.5421000000000001  0.9285400000000001  1.0000
  Mg  Mg14      1.0  0.034289999999999946  0.48090000000000005  0.7441300000000002  1.0000
  Mg  Mg15      1.0  0.026730000000000014  0.53321  0.67025  1.0000
  O   O73       1.0  0.01030000000000001  0.59052  0.89315  1.0000
  O   O74       1.0  0.5457000000000002  0.66538  0.91968  1.0000
  H   H152      1.0  0.3910800000000001  0.5516  0.00093  1.0000
  O   O75       1.0  0.36130999999999996  0.5521700000000002  0.9895100000000001  1.0000
  O   O76       1.0  0.40981  0.5775900000000002  0.9372100000000001  1.0000
  O   O77       1.0  0.03962000000000002  0.50636  0.9163700000000001  1.0000
  O   O78       1.0  0.08733000000000003  0.54412  0.95991  1.0000
  O   O79       1.0  0.49077999999999994  0.57861  0.98037  1.0000
  O   O80       1.0  0.08696  0.51151  0.77828  1.0000
  O   O81       1.0  0.47802000000000006  0.44963  0.71881  1.0000
  O   O82       1.0  0.4593200000000001  0.52158  0.70645  1.0000
  H   H153      1.0  0.51424  0.60731  0.9757899999999999  1.0000
  H   H154      1.0  0.4612900000000002  0.5938499999999999  0.9992299999999998  1.0000
  O   O83       1.0  0.006010000000000021  0.5494700000000002  0.75725  1.0000
  O   O84       1.0  0.04614  0.59358  0.71253  1.0000
  C   C216      1.0  0.034730000000000025  0.6337100000000001  0.88954  1.0000
  C   C217      1.0  0.36571  0.56947  0.95878  1.0000
  C   C218      1.0  0.08102999999999999  0.53042  0.9237800000000002  1.0000
  C   C219      1.0  0.1307  0.53419  0.78368  1.0000
  C   C220      1.0  0.44449  0.47852000000000006  0.7161  1.0000
  C   C221      1.0  0.0332  0.58872  0.74896  1.0000
  C   C222      1.0  0.16229000000000002  0.7162  0.79605  1.0000
  C   C223      1.0  0.12017000000000003  0.67735  0.80375  1.0000
  C   C224      1.0  0.09721  0.67497  0.84188  1.0000
  C   C225      1.0  0.0547  0.64296  0.84998  1.0000
  C   C226      1.0  0.03278  0.61739  0.81925  1.0000
  C   C227      1.0  0.05471000000000001  0.6202000000000001  0.78089  1.0000
  C   C228      1.0  0.10047  0.64673  0.77347  1.0000
  H   H155      1.0  0.16781  0.71005  0.73428  1.0000
  H   H156      1.0  0.19828999999999994  0.6974  0.7908700000000001  1.0000
  H   H157      1.0  0.11337000000000001  0.69716  0.86507  1.0000
  H   H158      1.0  0.4990299999999999  0.59406  0.82521  1.0000
  H   H159      1.0  0.11883000000000002  0.64559  0.74409  1.0000
  C   C229      1.0  0.27553999999999995  0.51321  0.8966400000000002  1.0000
  C   C230      1.0  0.31315  0.51845  0.91748  1.0000
  C   C231      1.0  0.3224  0.5648  0.94151  1.0000
  C   C232      1.0  0.29653  0.6070600000000002  0.9427900000000001  1.0000
  C   C233      1.0  0.2581899999999999  0.60219  0.9224800000000001  1.0000
  C   C234      1.0  0.23418  0.6492200000000001  0.92044  1.0000
  C   C235      1.0  0.21947  0.6484400000000002  0.8819100000000001  1.0000
  C   C236      1.0  0.17669999999999997  0.61196  0.87191  1.0000
  C   C237      1.0  0.17488999999999996  0.5904000000000001  0.83327  1.0000
  C   C238      1.0  0.13929000000000002  0.55135  0.82379  1.0000
  C   C239      1.0  0.11015999999999992  0.5304400000000002  0.8536600000000002  1.0000
  C   C240      1.0  0.11271000000000003  0.55129  0.8923  1.0000
  C   C241      1.0  0.14111999999999994  0.59548  0.9009300000000001  1.0000
  C   C242      1.0  0.24439  0.55343  0.90404  1.0000
  C   C243      1.0  0.27959  0.47553  0.85937  1.0000
  C   C244      1.0  0.31129000000000007  0.50659  0.76551  1.0000
  C   C245      1.0  0.30476  0.47693  0.7923100000000001  1.0000
  C   C246      1.0  0.27274999999999994  0.4924100000000002  0.8277500000000002  1.0000
  H   H160      1.0  0.33843  0.48829  0.91261  1.0000
  H   H161      1.0  0.3072400000000002  0.6436800000000003  0.95854  1.0000
  H   H162      1.0  0.20236000000000004  0.6592700000000001  0.94523  1.0000
  H   H163      1.0  0.26189  0.68134  0.92449  1.0000
  H   H164      1.0  0.208  0.68671  0.8832200000000001  1.0000
  H   H165      1.0  0.25343  0.6412  0.8583400000000001  1.0000
  H   H166      1.0  0.20052999999999999  0.60485  0.81083  1.0000
  H   H167      1.0  0.13895999999999997  0.6135100000000001  0.9306  1.0000
  H   H168      1.0  0.21343000000000004  0.54588  0.8907  1.0000
  H   H169      1.0  0.36392999999999986  0.53377  0.7225100000000002  1.0000
  H   H170      1.0  0.2860399999999999  0.5364500000000001  0.7692600000000002  1.0000
  H   H171      1.0  0.25138  0.52512  0.83163  1.0000
  Mg  Mg16      1.0  0.47494  0.042100000000000005  0.26187  1.0000
  Mg  Mg17      1.0  0.52673  0.03321  0.00359  1.0000
  O   O85       1.0  0.5103  0.09052000000000002  0.22649  1.0000
  O   O86       1.0  0.0457  0.16538  0.25301  1.0000
  H   H172      1.0  0.8910800000000001  0.051600000000000014  0.33426  1.0000
  O   O87       1.0  0.86131  0.05217000000000001  0.32284  1.0000
  O   O88       1.0  0.90981  0.07759000000000003  0.27054000000000006  1.0000
  O   O89       1.0  0.58733  0.04412  0.29324  1.0000
  O   O90       1.0  0.99078  0.07861  0.3137  1.0000
  O   O91       1.0  0.43815  0.4879  0.2876  1.0000
  O   O92       1.0  0.50723  0.46711000000000014  0.30347  1.0000
  O   O93       1.0  0.63733  0.42352  0.07931  1.0000
  O   O94       1.0  0.55923  0.41085  0.06591000000000001  1.0000
  O   O95       1.0  0.66451  0.54552  0.08827  1.0000
  O   O96       1.0  0.58696  0.01151  0.11161  1.0000
  O   O97       1.0  0.95932  0.02158  0.03978  1.0000
  H   H173      1.0  0.014239999999999994  0.10731  0.30912  1.0000
  H   H174      1.0  0.96129  0.09385000000000002  0.33256  1.0000
  O   O98       1.0  0.56893  0.49227  0.02527  1.0000
  O   O99       1.0  0.50601  0.04947  0.09058  1.0000
  O   O100      1.0  0.54614  0.09358000000000002  0.04587  1.0000
  H   H175      1.0  0.6592  0.53573  0.06128  1.0000
  H   H176      1.0  0.5761  0.45934  0.007270000000000001  1.0000
  H   H177      1.0  0.60182  0.51009  0.02624  1.0000
  C   C247      1.0  0.5347299999999998  0.13371  0.22287  1.0000
  C   C248      1.0  0.8657100000000001  0.06947  0.29211  1.0000
  C   C249      1.0  0.5810299999999999  0.030419999999999996  0.25711  1.0000
  C   C250      1.0  0.46304000000000006  0.45441000000000004  0.295  1.0000
  C   C251      1.0  0.59852  0.39361  0.0727  1.0000
  C   C252      1.0  0.6307  0.03419  0.11701  1.0000
  C   C253      1.0  0.5332  0.08872  0.08229  1.0000
  C   C254      1.0  0.53182  0.29331  0.12171000000000001  1.0000
  C   C255      1.0  0.54151  0.33486000000000005  0.10515  1.0000
  C   C256      1.0  0.59007  0.346  0.08533  1.0000
  C   C257      1.0  0.62955  0.3152000000000001  0.08244  1.0000
  C   C258      1.0  0.62023  0.27219  0.09794  1.0000
  C   C259      1.0  0.66368  0.23927  0.09458000000000003  1.0000
  C   C260      1.0  0.6622900000000002  0.2162  0.12938  1.0000
  C   C261      1.0  0.6201700000000001  0.17735000000000006  0.13709  1.0000
  C   C262      1.0  0.5972099999999998  0.17497  0.17521  1.0000
  C   C263      1.0  0.5547  0.14296  0.18331  1.0000
  C   C264      1.0  0.53278  0.11739  0.15258  1.0000
  C   C265      1.0  0.55471  0.1202  0.11422  1.0000
  C   C266      1.0  0.60047  0.14673  0.1068  1.0000
  C   C267      1.0  0.57033  0.2606  0.11524  1.0000
  C   C268      1.0  0.48778999999999995  0.2925  0.15406000000000006  1.0000
  C   C269      1.0  0.94291  0.31441  0.15520000000000006  1.0000
  C   C270      1.0  0.91492  0.33993  0.19014  1.0000
  C   C271      1.0  0.93306  0.34526000000000007  0.22333  1.0000
  C   C272      1.0  0.92084  0.38716  0.2535  1.0000
  C   C273      1.0  0.95115  0.40079  0.28051  1.0000
  C   C274      1.0  0.9816500000000001  0.3648000000000001  0.28441000000000005  1.0000
  C   C275      1.0  0.49126000000000003  0.32100000000000006  0.25594  1.0000
  C   C276      1.0  0.47165000000000007  0.3145  0.2232  1.0000
  C   C277      1.0  0.4969  0.28566  0.18852  1.0000
  H   H178      1.0  0.51234  0.36151  0.1109  1.0000
  H   H179      1.0  0.66737  0.32488000000000006  0.06848  1.0000
  H   H180      1.0  0.66781  0.21005000000000001  0.06762000000000003  1.0000
  H   H181      1.0  0.69922  0.26263  0.09118  1.0000
  H   H182      1.0  0.69829  0.1974  0.12421000000000001  1.0000
  H   H183      1.0  0.6614100000000002  0.24718  0.15524  1.0000
  H   H184      1.0  0.61337  0.19716000000000006  0.1984  1.0000
  H   H185      1.0  0.9990299999999999  0.09406000000000003  0.15854  1.0000
  H   H186      1.0  0.61883  0.14559  0.07742000000000002  1.0000
  H   H187      1.0  0.5599  0.22857  0.12699  1.0000
  H   H188      1.0  0.93327  0.31764  0.12909  1.0000
  H   H189      1.0  0.8837900000000001  0.36151  0.19055  1.0000
  H   H190      1.0  0.89537  0.41385000000000005  0.25141  1.0000
  H   H191      1.0  0.50334  0.3734800000000001  0.30641  1.0000
  H   H192      1.0  0.51969  0.2966600000000001  0.2569  1.0000
  H   H193      1.0  0.53019  0.26717000000000013  0.18849  1.0000
  C   C278      1.0  0.77554  0.013209999999999998  0.22998  1.0000
  C   C279      1.0  0.8131500000000002  0.018450000000000008  0.25082  1.0000
  C   C280      1.0  0.8224  0.06480000000000002  0.2748400000000001  1.0000
  C   C281      1.0  0.79653  0.10706  0.27613  1.0000
  C   C282      1.0  0.75819  0.10219000000000002  0.25581  1.0000
  C   C283      1.0  0.73418  0.14922  0.25377  1.0000
  C   C284      1.0  0.71947  0.14844  0.21524000000000004  1.0000
  C   C285      1.0  0.6767  0.11196000000000002  0.20525  1.0000
  C   C286      1.0  0.67489  0.0904  0.1666  1.0000
  C   C287      1.0  0.6392900000000001  0.05135  0.15713  1.0000
  C   C288      1.0  0.61016  0.030440000000000005  0.187  1.0000
  C   C289      1.0  0.61271  0.05129  0.22564  1.0000
  C   C290      1.0  0.64112  0.09548  0.23426  1.0000
  C   C291      1.0  0.74439  0.05343  0.23738  1.0000
  C   C292      1.0  0.80517  0.4308700000000001  0.18541000000000002  1.0000
  C   C293      1.0  0.83284  0.4111000000000001  0.14857  1.0000
  C   C294      1.0  0.8375900000000001  0.43795  0.12007  1.0000
  C   C295      1.0  0.87963  0.4326000000000001  0.08967  1.0000
  C   C296      1.0  0.89177  0.46978  0.06822  1.0000
  C   C297      1.0  0.85577  0.50453  0.07138000000000001  1.0000
  H   H194      1.0  0.80724  0.14368  0.29187  1.0000
  H   H195      1.0  0.70236  0.15927000000000005  0.27857  1.0000
  H   H196      1.0  0.76189  0.18134  0.25783  1.0000
  H   H197      1.0  0.708  0.18671  0.21655  1.0000
  H   H198      1.0  0.75343  0.1412  0.19167  1.0000
  H   H199      1.0  0.70053  0.10485  0.14417  1.0000
  H   H200      1.0  0.5847000000000003  0.4985500000000001  0.18023  1.0000
  H   H201      1.0  0.63896  0.11351  0.26393  1.0000
  H   H202      1.0  0.71343  0.04588000000000001  0.22403000000000003  1.0000
  H   H203      1.0  0.80831  0.4145900000000001  0.20864  1.0000
  H   H204      1.0  0.85571  0.37918  0.14364  1.0000
  H   H205      1.0  0.90666  0.40478  0.08702  1.0000
  H   H206      1.0  0.86393  0.03377  0.05585  1.0000
  H   H207      1.0  0.7860399999999998  0.03645000000000002  0.10259000000000003  1.0000
  H   H208      1.0  0.75138  0.02512  0.16496  1.0000
  Mg  Mg18      1.0  0.47494000000000003  0.042100000000000005  0.5952  1.0000
  Mg  Mg19      1.0  0.52673  0.03321  0.33692  1.0000
  O   O101      1.0  0.5103  0.09052000000000002  0.55982  1.0000
  O   O102      1.0  0.0457  0.16538  0.58634  1.0000
  H   H209      1.0  0.89108  0.05159999999999998  0.6676  1.0000
  O   O103      1.0  0.86131  0.05217000000000001  0.65618  1.0000
  O   O104      1.0  0.90981  0.07758999999999998  0.60388  1.0000
  O   O105      1.0  0.58733  0.04412000000000003  0.62658  1.0000
  O   O106      1.0  0.99078  0.07861000000000003  0.64703  1.0000
  O   O107      1.0  0.43815  0.48790000000000006  0.62094  1.0000
  O   O108      1.0  0.50723  0.46711000000000014  0.6368  1.0000
  O   O109      1.0  0.6373299999999998  0.42352000000000006  0.4126400000000001  1.0000
  O   O110      1.0  0.55923  0.41085  0.39925  1.0000
  O   O111      1.0  0.66451  0.54552  0.42161  1.0000
  O   O112      1.0  0.58696  0.01151000000000006  0.4449400000000001  1.0000
  O   O113      1.0  0.95932  0.021580000000000044  0.3731100000000001  1.0000
  H   H210      1.0  0.014240000000000013  0.10731000000000003  0.64245  1.0000
  H   H211      1.0  0.96129  0.09385  0.66589  1.0000
  O   O114      1.0  0.56893  0.49226999999999993  0.35861  1.0000
  O   O115      1.0  0.50601  0.04946999999999999  0.42392  1.0000
  O   O116      1.0  0.54614  0.09358000000000002  0.3792  1.0000
  H   H212      1.0  0.6592  0.53573  0.39461  1.0000
  H   H213      1.0  0.5761  0.45934  0.3406100000000001  1.0000
  H   H214      1.0  0.60182  0.51009  0.35957  1.0000
  C   C298      1.0  0.5347300000000003  0.13371  0.55621  1.0000
  C   C299      1.0  0.8657100000000001  0.06947  0.62544  1.0000
  C   C300      1.0  0.58103  0.03042000000000003  0.5904500000000001  1.0000
  C   C301      1.0  0.46304000000000006  0.45441000000000004  0.62833  1.0000
  C   C302      1.0  0.59852  0.39361  0.40603  1.0000
  C   C303      1.0  0.6307  0.034190000000000005  0.45035  1.0000
  C   C304      1.0  0.5332000000000001  0.08872000000000002  0.4156300000000001  1.0000
  C   C305      1.0  0.5318199999999997  0.29331  0.45504  1.0000
  C   C306      1.0  0.5415100000000003  0.33486000000000005  0.43848000000000004  1.0000
  C   C307      1.0  0.59007  0.346  0.41867  1.0000
  C   C308      1.0  0.62955  0.3152000000000001  0.41578  1.0000
  C   C309      1.0  0.62023  0.27219  0.43127  1.0000
  C   C310      1.0  0.66368  0.23927  0.42791  1.0000
  C   C311      1.0  0.6622899999999999  0.2162000000000001  0.46271000000000007  1.0000
  C   C312      1.0  0.6201700000000001  0.17735000000000006  0.47042000000000006  1.0000
  C   C313      1.0  0.5972099999999998  0.17497  0.50855  1.0000
  C   C314      1.0  0.5547000000000002  0.14296000000000006  0.51664  1.0000
  C   C315      1.0  0.53278  0.11739000000000001  0.48591000000000006  1.0000
  C   C316      1.0  0.55471  0.1202  0.44755  1.0000
  C   C317      1.0  0.60047  0.14673  0.44013  1.0000
  C   C318      1.0  0.57033  0.2606  0.44857  1.0000
  C   C319      1.0  0.48778999999999995  0.2925  0.48739000000000005  1.0000
  C   C320      1.0  0.94291  0.31441  0.48853  1.0000
  C   C321      1.0  0.91492  0.33993  0.52347  1.0000
  C   C322      1.0  0.93306  0.34526000000000007  0.55666  1.0000
  C   C323      1.0  0.92084  0.38716  0.58683  1.0000
  C   C324      1.0  0.9511499999999999  0.40079  0.61385  1.0000
  C   C325      1.0  0.9816500000000001  0.3648000000000001  0.61774  1.0000
  C   C326      1.0  0.49126  0.32100000000000006  0.5892700000000001  1.0000
  C   C327      1.0  0.47164999999999996  0.3145  0.55653  1.0000
  C   C328      1.0  0.49690000000000006  0.28566  0.52185  1.0000
  H   H215      1.0  0.51234  0.36151  0.44423  1.0000
  H   H216      1.0  0.66737  0.32488000000000006  0.40181  1.0000
  H   H217      1.0  0.66781  0.21005  0.40095  1.0000
  H   H218      1.0  0.69922  0.26263  0.42451  1.0000
  H   H219      1.0  0.69829  0.1974  0.45754000000000006  1.0000
  H   H220      1.0  0.6614100000000002  0.24718  0.48857  1.0000
  H   H221      1.0  0.61337  0.19716000000000006  0.53173  1.0000
  H   H222      1.0  0.99903  0.09406000000000002  0.49188  1.0000
  H   H223      1.0  0.61883  0.14559  0.41076  1.0000
  H   H224      1.0  0.5599  0.22857  0.4603300000000001  1.0000
  H   H225      1.0  0.93327  0.31764  0.46242  1.0000
  H   H226      1.0  0.8837899999999999  0.36151  0.52388  1.0000
  H   H227      1.0  0.89537  0.41385  0.58474  1.0000
  H   H228      1.0  0.5033400000000002  0.3734800000000001  0.63974  1.0000
  H   H229      1.0  0.51969  0.2966600000000001  0.59024  1.0000
  H   H230      1.0  0.5301899999999999  0.26717  0.52182  1.0000
  C   C329      1.0  0.77554  0.013209999999999973  0.56331  1.0000
  C   C330      1.0  0.81315  0.018449999999999998  0.58415  1.0000
  C   C331      1.0  0.8224  0.06480000000000002  0.60818  1.0000
  C   C332      1.0  0.79653  0.10706000000000003  0.6094600000000001  1.0000
  C   C333      1.0  0.75819  0.10219000000000004  0.58915  1.0000
  C   C334      1.0  0.73418  0.14922  0.5871  1.0000
  C   C335      1.0  0.7194699999999999  0.14844  0.54857  1.0000
  C   C336      1.0  0.6767  0.11196000000000002  0.53858  1.0000
  C   C337      1.0  0.67489  0.0904  0.49994  1.0000
  C   C338      1.0  0.6392900000000001  0.051349999999999965  0.49046  1.0000
  C   C339      1.0  0.6101599999999999  0.030440000000000023  0.52033  1.0000
  C   C340      1.0  0.61271  0.05129  0.55897  1.0000
  C   C341      1.0  0.64112  0.09547999999999997  0.5676  1.0000
  C   C342      1.0  0.74439  0.05342999999999998  0.57071  1.0000
  C   C343      1.0  0.80517  0.4308700000000001  0.51874  1.0000
  C   C344      1.0  0.83284  0.4111000000000001  0.4819  1.0000
  C   C345      1.0  0.8375900000000001  0.43795  0.45341  1.0000
  C   C346      1.0  0.87963  0.4326000000000001  0.42301  1.0000
  C   C347      1.0  0.8917699999999998  0.4697799999999999  0.40155  1.0000
  C   C348      1.0  0.85577  0.50453  0.40471  1.0000
  H   H231      1.0  0.8072399999999998  0.14368  0.6252  1.0000
  H   H232      1.0  0.70236  0.15927000000000005  0.6119  1.0000
  H   H233      1.0  0.7618899999999998  0.18134  0.59116  1.0000
  H   H234      1.0  0.708  0.18671  0.54988  1.0000
  H   H235      1.0  0.7534300000000002  0.1412  0.525  1.0000
  H   H236      1.0  0.70053  0.10485  0.4775  1.0000
  H   H237      1.0  0.5847  0.4985500000000001  0.51356  1.0000
  H   H238      1.0  0.63896  0.11350999999999999  0.59726  1.0000
  H   H239      1.0  0.7134299999999999  0.04588  0.5573600000000001  1.0000
  H   H240      1.0  0.80831  0.4145900000000001  0.54198  1.0000
  H   H241      1.0  0.85571  0.37918  0.47698  1.0000
  H   H242      1.0  0.90666  0.40478  0.42035  1.0000
  H   H243      1.0  0.86393  0.03377  0.38918  1.0000
  H   H244      1.0  0.7860400000000002  0.03645000000000001  0.43592  1.0000
  H   H245      1.0  0.7513799999999999  0.02512000000000001  0.49829  1.0000
  Mg  Mg20      1.0  0.47494  0.04210000000000004  0.9285400000000001  1.0000
  Mg  Mg21      1.0  0.52673  0.033210000000000024  0.67025  1.0000
  O   O117      1.0  0.5102999999999999  0.09052000000000002  0.89315  1.0000
  O   O118      1.0  0.04570000000000001  0.16538000000000003  0.91968  1.0000
  H   H246      1.0  0.89108  0.0516  0.00093  1.0000
  O   O119      1.0  0.8613100000000001  0.05217000000000006  0.9895100000000001  1.0000
  O   O120      1.0  0.90981  0.07759000000000003  0.9372100000000001  1.0000
  O   O121      1.0  0.58733  0.044120000000000006  0.95991  1.0000
  O   O122      1.0  0.9907799999999998  0.07861  0.98037  1.0000
  O   O123      1.0  0.43814999999999993  0.48790000000000006  0.9542700000000001  1.0000
  O   O124      1.0  0.5072299999999998  0.46711000000000014  0.9701400000000001  1.0000
  O   O125      1.0  0.6373299999999998  0.42352  0.74598  1.0000
  O   O126      1.0  0.55923  0.41085  0.73258  1.0000
  O   O127      1.0  0.66451  0.54552  0.7549400000000002  1.0000
  O   O128      1.0  0.58696  0.011510000000000012  0.77828  1.0000
  O   O129      1.0  0.9593200000000001  0.021579999999999995  0.70645  1.0000
  H   H247      1.0  0.014240000000000074  0.10730999999999997  0.9757899999999999  1.0000
  H   H248      1.0  0.9612900000000001  0.09384999999999996  0.9992299999999998  1.0000
  O   O130      1.0  0.5689300000000003  0.49227  0.69194  1.0000
  O   O131      1.0  0.50601  0.04947000000000002  0.75725  1.0000
  O   O132      1.0  0.54614  0.09358000000000002  0.71253  1.0000
  H   H249      1.0  0.6592  0.53573  0.72795  1.0000
  H   H250      1.0  0.5761  0.45934  0.67394  1.0000
  H   H251      1.0  0.60182  0.51009  0.6929  1.0000
  C   C349      1.0  0.5347300000000003  0.13371  0.88954  1.0000
  C   C350      1.0  0.8657100000000001  0.06947  0.95878  1.0000
  C   C351      1.0  0.58103  0.03042000000000003  0.9237800000000002  1.0000
  C   C352      1.0  0.46304000000000006  0.45441000000000004  0.96166  1.0000
  C   C353      1.0  0.59852  0.39361  0.73937  1.0000
  C   C354      1.0  0.6307000000000001  0.034190000000000005  0.78368  1.0000
  C   C355      1.0  0.5332000000000002  0.08871999999999997  0.74896  1.0000
  C   C356      1.0  0.53182  0.29331  0.78838  1.0000
  C   C357      1.0  0.54151  0.33486000000000005  0.77182  1.0000
  C   C358      1.0  0.59007  0.346  0.752  1.0000
  C   C359      1.0  0.62955  0.3152000000000001  0.74911  1.0000
  C   C360      1.0  0.62023  0.27219  0.76461  1.0000
  C   C361      1.0  0.66368  0.23927  0.76125  1.0000
  C   C362      1.0  0.6622900000000002  0.21619999999999998  0.79605  1.0000
  C   C363      1.0  0.6201700000000001  0.17735000000000006  0.80375  1.0000
  C   C364      1.0  0.59721  0.17497  0.84188  1.0000
  C   C365      1.0  0.5546999999999999  0.14296000000000006  0.84998  1.0000
  C   C366      1.0  0.53278  0.11738999999999997  0.81925  1.0000
  C   C367      1.0  0.55471  0.1202  0.78089  1.0000
  C   C368      1.0  0.60047  0.14673  0.77347  1.0000
  C   C369      1.0  0.5703299999999998  0.26060000000000005  0.7819000000000002  1.0000
  C   C370      1.0  0.48778999999999995  0.2925  0.82073  1.0000
  C   C371      1.0  0.94291  0.3144100000000001  0.8218700000000001  1.0000
  C   C372      1.0  0.91492  0.33993  0.85681  1.0000
  C   C373      1.0  0.93306  0.3452600000000001  0.8899900000000001  1.0000
  C   C374      1.0  0.92084  0.38716  0.92016  1.0000
  C   C375      1.0  0.9511500000000002  0.40079  0.94718  1.0000
  C   C376      1.0  0.9816499999999999  0.3648000000000001  0.95108  1.0000
  C   C377      1.0  0.49125999999999986  0.32100000000000006  0.9226100000000002  1.0000
  C   C378      1.0  0.47164999999999996  0.3145  0.8898700000000002  1.0000
  C   C379      1.0  0.4969  0.28566  0.85518  1.0000
  H   H252      1.0  0.51234  0.36151  0.77756  1.0000
  H   H253      1.0  0.66737  0.3248800000000001  0.7351400000000001  1.0000
  H   H254      1.0  0.66781  0.21005  0.73428  1.0000
  H   H255      1.0  0.69922  0.26263  0.75785  1.0000
  H   H256      1.0  0.69829  0.19740000000000002  0.7908700000000001  1.0000
  H   H257      1.0  0.6614100000000002  0.24718  0.8219  1.0000
  H   H258      1.0  0.61337  0.19716000000000006  0.86507  1.0000
  H   H259      1.0  0.99903  0.09406000000000002  0.82521  1.0000
  H   H260      1.0  0.61883  0.14559  0.74409  1.0000
  H   H261      1.0  0.5599  0.22857  0.79366  1.0000
  H   H262      1.0  0.93327  0.31764  0.79575  1.0000
  H   H263      1.0  0.8837900000000001  0.36151  0.85721  1.0000
  H   H264      1.0  0.89537  0.41384999999999994  0.9180799999999999  1.0000
  H   H265      1.0  0.50334  0.3734800000000001  0.97308  1.0000
  H   H266      1.0  0.51969  0.2966599999999999  0.9235699999999999  1.0000
  H   H267      1.0  0.53019  0.26717  0.85516  1.0000
  C   C380      1.0  0.7755399999999998  0.013210000000000038  0.8966400000000002  1.0000
  C   C381      1.0  0.8131499999999999  0.018449999999999998  0.91748  1.0000
  C   C382      1.0  0.8224  0.06480000000000002  0.94151  1.0000
  C   C383      1.0  0.79653  0.10706000000000003  0.9427900000000001  1.0000
  C   C384      1.0  0.7581899999999999  0.10219000000000006  0.9224800000000001  1.0000
  C   C385      1.0  0.73418  0.14921999999999996  0.92044  1.0000
  C   C386      1.0  0.71947  0.14844  0.8819100000000001  1.0000
  C   C387      1.0  0.6767  0.11196  0.87191  1.0000
  C   C388      1.0  0.67489  0.0904  0.83327  1.0000
  C   C389      1.0  0.6392900000000001  0.05134999999999998  0.82379  1.0000
  C   C390      1.0  0.61016  0.030440000000000085  0.8536600000000002  1.0000
  C   C391      1.0  0.61271  0.05129  0.8923  1.0000
  C   C392      1.0  0.64112  0.09548000000000005  0.9009300000000001  1.0000
  C   C393      1.0  0.74439  0.05342999999999999  0.90404  1.0000
  C   C394      1.0  0.80517  0.4308700000000001  0.85207  1.0000
  C   C395      1.0  0.8328399999999998  0.4111000000000001  0.8152400000000002  1.0000
  C   C396      1.0  0.8375900000000001  0.43795  0.78674  1.0000
  C   C397      1.0  0.87963  0.4326000000000001  0.75634  1.0000
  C   C398      1.0  0.8917699999999998  0.46978000000000003  0.7348900000000003  1.0000
  C   C399      1.0  0.85577  0.50453  0.73805  1.0000
  H   H268      1.0  0.8072400000000001  0.14368000000000006  0.95854  1.0000
  H   H269      1.0  0.70236  0.15927000000000005  0.94523  1.0000
  H   H270      1.0  0.76189  0.18134000000000003  0.92449  1.0000
  H   H271      1.0  0.7079999999999999  0.18671000000000001  0.8832200000000001  1.0000
  H   H272      1.0  0.75343  0.14120000000000002  0.8583400000000001  1.0000
  H   H273      1.0  0.70053  0.10485000000000003  0.81083  1.0000
  H   H274      1.0  0.5847  0.4985500000000001  0.8468900000000001  1.0000
  H   H275      1.0  0.63896  0.11350999999999999  0.9306  1.0000
  H   H276      1.0  0.71343  0.045879999999999976  0.8907  1.0000
  H   H277      1.0  0.80831  0.4145900000000001  0.87531  1.0000
  H   H278      1.0  0.85571  0.37918  0.81031  1.0000
  H   H279      1.0  0.90666  0.40478  0.75368  1.0000
  H   H280      1.0  0.8639299999999998  0.03377000000000007  0.7225100000000002  1.0000
  H   H281      1.0  0.7860400000000001  0.036450000000000045  0.7692600000000002  1.0000
  H   H282      1.0  0.7513800000000002  0.025119999999999993  0.83163  1.0000
  Mg  Mg22      1.0  0.47494  0.5421  0.26187  1.0000
  Mg  Mg23      1.0  0.53429  0.48090000000000005  0.07747  1.0000
  Mg  Mg24      1.0  0.52673  0.53321  0.00359  1.0000
  O   O133      1.0  0.5103  0.59052  0.22649  1.0000
  O   O134      1.0  0.0457  0.66538  0.25301  1.0000
  H   H283      1.0  0.8910800000000001  0.5516  0.33426  1.0000
  O   O135      1.0  0.86131  0.5521700000000003  0.32284  1.0000
  O   O136      1.0  0.90981  0.5775900000000003  0.27054000000000006  1.0000
  O   O137      1.0  0.5396199999999999  0.50636  0.2497  1.0000
  O   O138      1.0  0.5873300000000002  0.54412  0.29324  1.0000
  O   O139      1.0  0.99078  0.57861  0.3137  1.0000
  O   O140      1.0  0.58696  0.51151  0.11161  1.0000
  O   O141      1.0  0.9780199999999999  0.44963  0.05214  1.0000
  O   O142      1.0  0.95932  0.52158  0.03978  1.0000
  H   H284      1.0  0.014239999999999989  0.60731  0.30912  1.0000
  H   H285      1.0  0.96129  0.5938500000000002  0.33256  1.0000
  O   O143      1.0  0.50601  0.54947  0.09058  1.0000
  O   O144      1.0  0.54614  0.59358  0.04587  1.0000
  C   C400      1.0  0.53473  0.6337100000000001  0.22287  1.0000
  C   C401      1.0  0.8657100000000001  0.56947  0.29211  1.0000
  C   C402      1.0  0.5810299999999999  0.53042  0.25711  1.0000
  C   C403      1.0  0.6307000000000004  0.53419  0.11701  1.0000
  C   C404      1.0  0.94449  0.47852000000000006  0.04944  1.0000
  C   C405      1.0  0.5332  0.58872  0.08229  1.0000
  C   C406      1.0  0.6622900000000002  0.7162  0.12938  1.0000
  C   C407      1.0  0.6201700000000003  0.67735  0.13709  1.0000
  C   C408      1.0  0.59721  0.67497  0.17521  1.0000
  C   C409      1.0  0.5546999999999997  0.64296  0.18331  1.0000
  C   C410      1.0  0.53278  0.61739  0.15258  1.0000
  C   C411      1.0  0.55471  0.6202000000000001  0.11422  1.0000
  C   C412      1.0  0.60047  0.64673  0.1068  1.0000
  H   H286      1.0  0.66781  0.71005  0.06762000000000003  1.0000
  H   H287      1.0  0.69829  0.6974000000000001  0.12421000000000001  1.0000
  H   H288      1.0  0.6133699999999996  0.69716  0.1984  1.0000
  H   H289      1.0  0.9990299999999999  0.59406  0.15854  1.0000
  H   H290      1.0  0.61883  0.64559  0.07742000000000002  1.0000
  C   C413      1.0  0.77554  0.51321  0.22998  1.0000
  C   C414      1.0  0.81315  0.51845  0.25082  1.0000
  C   C415      1.0  0.8224  0.5648  0.2748400000000001  1.0000
  C   C416      1.0  0.79653  0.6070600000000002  0.27613  1.0000
  C   C417      1.0  0.75819  0.60219  0.25581  1.0000
  C   C418      1.0  0.7341800000000002  0.6492200000000001  0.25377  1.0000
  C   C419      1.0  0.71947  0.6484400000000002  0.21524000000000004  1.0000
  C   C420      1.0  0.6767  0.61196  0.20525  1.0000
  C   C421      1.0  0.67489  0.5904000000000001  0.1666  1.0000
  C   C422      1.0  0.6392900000000001  0.55135  0.15713  1.0000
  C   C423      1.0  0.61016  0.53044  0.187  1.0000
  C   C424      1.0  0.6127099999999998  0.55129  0.22564  1.0000
  C   C425      1.0  0.64112  0.59548  0.23426  1.0000
  C   C426      1.0  0.74439  0.55343  0.23738  1.0000
  C   C427      1.0  0.77959  0.47552999999999995  0.1927  1.0000
  C   C428      1.0  0.81129  0.50659  0.09884  1.0000
  C   C429      1.0  0.80476  0.47693  0.12565  1.0000
  C   C430      1.0  0.77275  0.4924100000000001  0.16108  1.0000
  H   H291      1.0  0.8384299999999999  0.48829  0.24595  1.0000
  H   H292      1.0  0.80724  0.6436800000000003  0.29187  1.0000
  H   H293      1.0  0.70236  0.6592700000000001  0.27857  1.0000
  H   H294      1.0  0.76189  0.68134  0.25783  1.0000
  H   H295      1.0  0.708  0.68671  0.21655  1.0000
  H   H296      1.0  0.75343  0.6412  0.19167  1.0000
  H   H297      1.0  0.70053  0.60485  0.14417  1.0000
  H   H298      1.0  0.63896  0.6135100000000001  0.26393  1.0000
  H   H299      1.0  0.71343  0.54588  0.22403000000000003  1.0000
  H   H300      1.0  0.86393  0.53377  0.05585  1.0000
  H   H301      1.0  0.7860399999999998  0.53645  0.10259000000000003  1.0000
  H   H302      1.0  0.75138  0.52512  0.16496  1.0000
  Mg  Mg25      1.0  0.47494000000000003  0.5421  0.5952  1.0000
  Mg  Mg26      1.0  0.5342899999999999  0.48090000000000005  0.4108  1.0000
  Mg  Mg27      1.0  0.52673  0.53321  0.33692  1.0000
  O   O145      1.0  0.5103  0.59052  0.55982  1.0000
  O   O146      1.0  0.04570000000000001  0.66538  0.58634  1.0000
  H   H303      1.0  0.89108  0.5516  0.6676  1.0000
  O   O147      1.0  0.86131  0.55217  0.65618  1.0000
  O   O148      1.0  0.90981  0.57759  0.60388  1.0000
  O   O149      1.0  0.53962  0.50636  0.58304  1.0000
  O   O150      1.0  0.58733  0.54412  0.62658  1.0000
  O   O151      1.0  0.99078  0.57861  0.64703  1.0000
  O   O152      1.0  0.58696  0.5115100000000001  0.4449400000000001  1.0000
  O   O153      1.0  0.9780199999999999  0.44963  0.3854800000000001  1.0000
  O   O154      1.0  0.95932  0.5215800000000002  0.3731100000000001  1.0000
  H   H304      1.0  0.01424000000000002  0.60731  0.64245  1.0000
  H   H305      1.0  0.96129  0.5938500000000002  0.66589  1.0000
  O   O155      1.0  0.50601  0.5494699999999999  0.42392  1.0000
  O   O156      1.0  0.54614  0.59358  0.3792  1.0000
  C   C431      1.0  0.5347300000000001  0.6337100000000001  0.55621  1.0000
  C   C432      1.0  0.8657100000000001  0.56947  0.62544  1.0000
  C   C433      1.0  0.58103  0.53042  0.5904500000000001  1.0000
  C   C434      1.0  0.6307000000000004  0.53419  0.45035  1.0000
  C   C435      1.0  0.94449  0.4785200000000001  0.38277  1.0000
  C   C436      1.0  0.5332000000000001  0.58872  0.4156300000000001  1.0000
  C   C437      1.0  0.6622899999999999  0.7162  0.46271000000000007  1.0000
  C   C438      1.0  0.6201700000000001  0.67735  0.47042000000000006  1.0000
  C   C439      1.0  0.59721  0.67497  0.50855  1.0000
  C   C440      1.0  0.5547000000000002  0.64296  0.51664  1.0000
  C   C441      1.0  0.53278  0.61739  0.48591000000000006  1.0000
  C   C442      1.0  0.55471  0.6202000000000001  0.44755  1.0000
  C   C443      1.0  0.6004699999999998  0.64673  0.44013  1.0000
  H   H306      1.0  0.66781  0.71005  0.40095  1.0000
  H   H307      1.0  0.69829  0.6974  0.45754000000000006  1.0000
  H   H308      1.0  0.61337  0.69716  0.53173  1.0000
  H   H309      1.0  0.99903  0.59406  0.49188  1.0000
  H   H310      1.0  0.61883  0.64559  0.41076  1.0000
  C   C444      1.0  0.77554  0.51321  0.56331  1.0000
  C   C445      1.0  0.81315  0.51845  0.58415  1.0000
  C   C446      1.0  0.8224  0.5648  0.60818  1.0000
  C   C447      1.0  0.79653  0.6070600000000002  0.6094600000000001  1.0000
  C   C448      1.0  0.75819  0.60219  0.58915  1.0000
  C   C449      1.0  0.7341800000000002  0.6492200000000001  0.5871  1.0000
  C   C450      1.0  0.7194699999999999  0.6484400000000002  0.54857  1.0000
  C   C451      1.0  0.6767  0.61196  0.53858  1.0000
  C   C452      1.0  0.67489  0.5904000000000001  0.49994  1.0000
  C   C453      1.0  0.6392900000000001  0.55135  0.49046  1.0000
  C   C454      1.0  0.61016  0.5304400000000002  0.52033  1.0000
  C   C455      1.0  0.6127099999999998  0.55129  0.55897  1.0000
  C   C456      1.0  0.64112  0.59548  0.5676  1.0000
  C   C457      1.0  0.74439  0.55343  0.57071  1.0000
  C   C458      1.0  0.77959  0.47553000000000006  0.52603  1.0000
  C   C459      1.0  0.81129  0.50659  0.43218  1.0000
  C   C460      1.0  0.80476  0.47693  0.45897999999999994  1.0000
  C   C461      1.0  0.77275  0.4924100000000001  0.49442  1.0000
  H   H311      1.0  0.8384300000000001  0.48829  0.57928  1.0000
  H   H312      1.0  0.8072399999999998  0.6436800000000003  0.6252  1.0000
  H   H313      1.0  0.70236  0.6592700000000001  0.6119  1.0000
  H   H314      1.0  0.7618899999999998  0.68134  0.59116  1.0000
  H   H315      1.0  0.708  0.68671  0.54988  1.0000
  H   H316      1.0  0.7534300000000002  0.6412  0.525  1.0000
  H   H317      1.0  0.70053  0.60485  0.4775  1.0000
  H   H318      1.0  0.63896  0.6135100000000001  0.59726  1.0000
  H   H319      1.0  0.7134299999999999  0.54588  0.5573600000000001  1.0000
  H   H320      1.0  0.86393  0.53377  0.38918  1.0000
  H   H321      1.0  0.7860400000000002  0.5364500000000001  0.43592  1.0000
  H   H322      1.0  0.7513799999999999  0.52512  0.49829  1.0000
  Mg  Mg28      1.0  0.47494  0.5421000000000001  0.9285400000000001  1.0000
  Mg  Mg29      1.0  0.5342899999999999  0.48090000000000005  0.7441300000000002  1.0000
  Mg  Mg30      1.0  0.52673  0.53321  0.67025  1.0000
  O   O157      1.0  0.5102999999999999  0.59052  0.89315  1.0000
  O   O158      1.0  0.04569999999999998  0.66538  0.91968  1.0000
  H   H323      1.0  0.89108  0.5516  0.00093  1.0000
  O   O159      1.0  0.8613099999999999  0.5521700000000002  0.9895100000000001  1.0000
  O   O160      1.0  0.90981  0.5775900000000002  0.9372100000000001  1.0000
  O   O161      1.0  0.5396199999999999  0.50636  0.9163700000000001  1.0000
  O   O162      1.0  0.58733  0.54412  0.95991  1.0000
  O   O163      1.0  0.9907799999999998  0.57861  0.98037  1.0000
  O   O164      1.0  0.58696  0.51151  0.77828  1.0000
  O   O165      1.0  0.9780199999999999  0.44963  0.71881  1.0000
  O   O166      1.0  0.95932  0.52158  0.70645  1.0000
  H   H324      1.0  0.014240000000000086  0.60731  0.9757899999999999  1.0000
  H   H325      1.0  0.9612900000000001  0.5938499999999999  0.9992299999999998  1.0000
  O   O167      1.0  0.5060100000000001  0.5494700000000002  0.75725  1.0000
  O   O168      1.0  0.54614  0.59358  0.71253  1.0000
  C   C462      1.0  0.5347300000000001  0.6337100000000001  0.88954  1.0000
  C   C463      1.0  0.8657100000000001  0.56947  0.95878  1.0000
  C   C464      1.0  0.58103  0.53042  0.9237800000000002  1.0000
  C   C465      1.0  0.6307  0.53419  0.78368  1.0000
  C   C466      1.0  0.94449  0.47852000000000006  0.7161  1.0000
  C   C467      1.0  0.5332000000000002  0.58872  0.74896  1.0000
  C   C468      1.0  0.6622900000000002  0.7162  0.79605  1.0000
  C   C469      1.0  0.6201700000000001  0.67735  0.80375  1.0000
  C   C470      1.0  0.59721  0.67497  0.84188  1.0000
  C   C471      1.0  0.5546999999999997  0.64296  0.84998  1.0000
  C   C472      1.0  0.53278  0.61739  0.81925  1.0000
  C   C473      1.0  0.55471  0.6202000000000001  0.78089  1.0000
  C   C474      1.0  0.60047  0.64673  0.77347  1.0000
  H   H326      1.0  0.66781  0.71005  0.73428  1.0000
  H   H327      1.0  0.69829  0.6974  0.7908700000000001  1.0000
  H   H328      1.0  0.61337  0.69716  0.86507  1.0000
  H   H329      1.0  0.99903  0.59406  0.82521  1.0000
  H   H330      1.0  0.6188300000000002  0.64559  0.74409  1.0000
  C   C475      1.0  0.7755399999999998  0.51321  0.8966400000000002  1.0000
  C   C476      1.0  0.81315  0.51845  0.91748  1.0000
  C   C477      1.0  0.8224  0.5648  0.94151  1.0000
  C   C478      1.0  0.79653  0.6070600000000002  0.9427900000000001  1.0000
  C   C479      1.0  0.7581899999999999  0.60219  0.9224800000000001  1.0000
  C   C480      1.0  0.7341800000000002  0.6492200000000001  0.92044  1.0000
  C   C481      1.0  0.71947  0.6484400000000002  0.8819100000000001  1.0000
  C   C482      1.0  0.6767  0.61196  0.87191  1.0000
  C   C483      1.0  0.67489  0.5904000000000001  0.83327  1.0000
  C   C484      1.0  0.6392900000000001  0.55135  0.82379  1.0000
  C   C485      1.0  0.61016  0.5304400000000002  0.8536600000000002  1.0000
  C   C486      1.0  0.61271  0.55129  0.8923  1.0000
  C   C487      1.0  0.64112  0.59548  0.9009300000000001  1.0000
  C   C488      1.0  0.74439  0.55343  0.90404  1.0000
  C   C489      1.0  0.77959  0.47553  0.85937  1.0000
  C   C490      1.0  0.81129  0.50659  0.76551  1.0000
  C   C491      1.0  0.80476  0.47693  0.7923100000000001  1.0000
  C   C492      1.0  0.77275  0.4924100000000002  0.8277500000000002  1.0000
  H   H331      1.0  0.8384300000000001  0.48829  0.91261  1.0000
  H   H332      1.0  0.8072400000000001  0.6436800000000003  0.95854  1.0000
  H   H333      1.0  0.70236  0.6592700000000001  0.94523  1.0000
  H   H334      1.0  0.76189  0.68134  0.92449  1.0000
  H   H335      1.0  0.7079999999999999  0.68671  0.8832200000000001  1.0000
  H   H336      1.0  0.75343  0.6412  0.8583400000000001  1.0000
  H   H337      1.0  0.70053  0.60485  0.81083  1.0000
  H   H338      1.0  0.63896  0.6135100000000001  0.9306  1.0000
  H   H339      1.0  0.71343  0.54588  0.8907  1.0000
  H   H340      1.0  0.8639299999999998  0.53377  0.7225100000000002  1.0000
  H   H341      1.0  0.7860400000000001  0.5364500000000001  0.7692600000000002  1.0000
  H   H342      1.0  0.7513800000000002  0.52512  0.83163  1.0000
  O   O169      1.0  0.16451  0.04552  0.08827  1.0000
  H   H343      1.0  0.1592  0.03573000000000001  0.06128  1.0000
  H   H344      1.0  0.10182  0.010090000000000002  0.02624  1.0000
  O   O170      1.0  0.16451  0.045520000000000005  0.42161  1.0000
  H   H345      1.0  0.1592  0.03573  0.39461  1.0000
  H   H346      1.0  0.10181999999999998  0.010089999999999991  0.35957  1.0000
  O   O171      1.0  0.16450999999999996  0.04552000000000002  0.7549400000000002  1.0000
  H   H347      1.0  0.15920000000000004  0.03573  0.72795  1.0000
  H   H348      1.0  0.10182000000000004  0.010090000000000007  0.6929  1.0000
  O   O172      1.0  0.66451  0.04552  0.08827  1.0000
  H   H349      1.0  0.6592  0.03573000000000001  0.06128  1.0000
  H   H350      1.0  0.60182  0.010090000000000002  0.02624  1.0000
  O   O173      1.0  0.66451  0.045520000000000005  0.42161  1.0000
  H   H351      1.0  0.6592  0.03573  0.39461  1.0000
  H   H352      1.0  0.60182  0.010089999999999991  0.35957  1.0000
  O   O174      1.0  0.66451  0.04552000000000002  0.7549400000000002  1.0000
  H   H353      1.0  0.6592  0.03573  0.72795  1.0000
  H   H354      1.0  0.60182  0.010090000000000007  0.6929  1.0000
  C   C493      1.0  0.16368000000000002  0.73927  0.09458000000000003  1.0000
  H   H355      1.0  0.19922  0.76263  0.09118  1.0000
  H   H356      1.0  0.16141  0.74718  0.15524  1.0000
  C   C494      1.0  0.16368000000000002  0.73927  0.42791  1.0000
  H   H357      1.0  0.19922  0.76263  0.42451  1.0000
  H   H358      1.0  0.16141  0.74718  0.48857  1.0000
  C   C495      1.0  0.16367999999999996  0.73927  0.76125  1.0000
  H   H359      1.0  0.19922000000000004  0.76263  0.75785  1.0000
  H   H360      1.0  0.16141000000000003  0.74718  0.8219  1.0000
  C   C496      1.0  0.66368  0.73927  0.09458000000000003  1.0000
  H   H361      1.0  0.69922  0.76263  0.09118  1.0000
  H   H362      1.0  0.6614100000000002  0.74718  0.15524  1.0000
  C   C497      1.0  0.66368  0.73927  0.42791  1.0000
  H   H363      1.0  0.69922  0.76263  0.42451  1.0000
  H   H364      1.0  0.6614100000000002  0.74718  0.48857  1.0000
  C   C498      1.0  0.66368  0.73927  0.76125  1.0000
  H   H365      1.0  0.69922  0.76263  0.75785  1.0000
  H   H366      1.0  0.6614100000000002  0.74718  0.8219  1.0000
  C   C499      1.0  0.031820000000000015  0.79331  0.12171000000000001  1.0000
  C   C500      1.0  0.12023000000000002  0.77219  0.09794  1.0000
  C   C501      1.0  0.07033  0.7606  0.11524  1.0000
  C   C502      1.0  0.9877900000000001  0.7925000000000001  0.15406000000000006  1.0000
  C   C503      1.0  0.9969  0.7856600000000001  0.18852  1.0000
  H   H367      1.0  0.05990000000000001  0.72857  0.12699  1.0000
  H   H368      1.0  0.03018999999999999  0.76717  0.18849  1.0000
  C   C504      1.0  0.03182000000000001  0.79331  0.45504  1.0000
  C   C505      1.0  0.12023000000000002  0.77219  0.43127  1.0000
  C   C506      1.0  0.07033000000000003  0.7606  0.44857  1.0000
  C   C507      1.0  0.9877900000000001  0.7925000000000001  0.4874  1.0000
  C   C508      1.0  0.9969  0.7856600000000001  0.52185  1.0000
  H   H369      1.0  0.05989999999999999  0.72857  0.4603300000000001  1.0000
  H   H370      1.0  0.030190000000000022  0.76717  0.52182  1.0000
  C   C509      1.0  0.03182000000000001  0.79331  0.78838  1.0000
  C   C510      1.0  0.12023000000000002  0.77219  0.76461  1.0000
  C   C511      1.0  0.07033000000000003  0.7606000000000004  0.7819000000000002  1.0000
  C   C512      1.0  0.9877900000000001  0.7925000000000001  0.82073  1.0000
  C   C513      1.0  0.9968999999999999  0.7856600000000001  0.85518  1.0000
  H   H371      1.0  0.05990000000000002  0.72857  0.79366  1.0000
  H   H372      1.0  0.03019000000000001  0.76717  0.85516  1.0000
  C   C514      1.0  0.53182  0.79331  0.12171000000000001  1.0000
  C   C515      1.0  0.62023  0.77219  0.09794  1.0000
  C   C516      1.0  0.57033  0.7606  0.11524  1.0000
  C   C517      1.0  0.48778999999999995  0.7925000000000001  0.15406000000000006  1.0000
  C   C518      1.0  0.4969  0.7856600000000001  0.18852  1.0000
  H   H373      1.0  0.5599  0.72857  0.12699  1.0000
  H   H374      1.0  0.53019  0.76717  0.18849  1.0000
  C   C519      1.0  0.5318199999999997  0.79331  0.45504  1.0000
  C   C520      1.0  0.6202299999999997  0.77219  0.43127  1.0000
  C   C521      1.0  0.57033  0.7606  0.44857  1.0000
  C   C522      1.0  0.48779000000000006  0.7925000000000001  0.4874  1.0000
  C   C523      1.0  0.49690000000000006  0.7856600000000001  0.52185  1.0000
  H   H375      1.0  0.5599  0.72857  0.4603300000000001  1.0000
  H   H376      1.0  0.5301899999999999  0.76717  0.52182  1.0000
  C   C524      1.0  0.53182  0.79331  0.78838  1.0000
  C   C525      1.0  0.62023  0.77219  0.76461  1.0000
  C   C526      1.0  0.5703299999999998  0.7606000000000004  0.7819000000000002  1.0000
  C   C527      1.0  0.48778999999999995  0.7925000000000001  0.82073  1.0000
  C   C528      1.0  0.4969  0.7856600000000001  0.85518  1.0000
  H   H377      1.0  0.5599  0.72857  0.79366  1.0000
  H   H378      1.0  0.53019  0.76717  0.85516  1.0000
  O   O175      1.0  0.039619999999999995  0.006359999999999984  0.2497  1.0000
  O   O176      1.0  0.039619999999999975  0.006360000000000017  0.58304  1.0000
  O   O177      1.0  0.039620000000000016  0.006360000000000049  0.9163700000000001  1.0000
  O   O178      1.0  0.53962  0.006359999999999984  0.2497  1.0000
  O   O179      1.0  0.53962  0.006360000000000017  0.58304  1.0000
  O   O180      1.0  0.5396199999999999  0.006360000000000049  0.9163700000000001  1.0000
  H   H379      1.0  0.01969  0.79666  0.2569  1.0000
  H   H380      1.0  0.01969000000000003  0.79666  0.59024  1.0000
  H   H381      1.0  0.01969000000000003  0.7966599999999999  0.9235699999999999  1.0000
  H   H382      1.0  0.51969  0.79666  0.2569  1.0000
  H   H383      1.0  0.51969  0.79666  0.59024  1.0000
  H   H384      1.0  0.51969  0.7966599999999999  0.9235699999999999  1.0000
  C   C529      1.0  0.12955  0.8152  0.08244  1.0000
  C   C530      1.0  0.44291  0.8144100000000001  0.15520000000000006  1.0000
  C   C531      1.0  0.97165  0.8145  0.2232  1.0000
  H   H385      1.0  0.43326999999999993  0.81764  0.12909  1.0000
  C   C532      1.0  0.12955  0.8152  0.41578  1.0000
  C   C533      1.0  0.44291  0.81441  0.48853  1.0000
  C   C534      1.0  0.97165  0.8145  0.55653  1.0000
  H   H386      1.0  0.43326999999999993  0.81764  0.46242  1.0000
  C   C535      1.0  0.12955  0.8152  0.74911  1.0000
  C   C536      1.0  0.44291  0.81441  0.8218700000000001  1.0000
  C   C537      1.0  0.9716499999999999  0.8145  0.8898700000000002  1.0000
  H   H387      1.0  0.43326999999999993  0.81764  0.79575  1.0000
  C   C538      1.0  0.62955  0.8152  0.08244  1.0000
  C   C539      1.0  0.94291  0.8144100000000001  0.15520000000000006  1.0000
  C   C540      1.0  0.47164999999999996  0.8145  0.2232  1.0000
  H   H388      1.0  0.93327  0.81764  0.12909  1.0000
  C   C541      1.0  0.6295499999999998  0.8152  0.41578  1.0000
  C   C542      1.0  0.94291  0.81441  0.48853  1.0000
  C   C543      1.0  0.47164999999999996  0.8145  0.55653  1.0000
  H   H389      1.0  0.93327  0.81764  0.46242  1.0000
  C   C544      1.0  0.62955  0.8152  0.74911  1.0000
  C   C545      1.0  0.94291  0.81441  0.8218700000000001  1.0000
  C   C546      1.0  0.4716499999999997  0.8145  0.8898700000000002  1.0000
  H   H390      1.0  0.93327  0.81764  0.79575  1.0000
  C   C547      1.0  0.31129000000000007  0.00659  0.09884  1.0000
  C   C548      1.0  0.31129000000000007  0.0065899999999999926  0.43218  1.0000
  C   C549      1.0  0.31129000000000007  0.006590000000000025  0.76551  1.0000
  C   C550      1.0  0.81129  0.00659  0.09884  1.0000
  C   C551      1.0  0.81129  0.0065899999999999926  0.43218  1.0000
  C   C552      1.0  0.81129  0.006590000000000025  0.76551  1.0000
  C   C553      1.0  0.99126  0.821  0.25594  1.0000
  H   H391      1.0  0.16737  0.82488  0.06848  1.0000
  C   C554      1.0  0.99126  0.8210000000000001  0.5892700000000001  1.0000
  H   H392      1.0  0.16737000000000002  0.82488  0.40181  1.0000
  C   C555      1.0  0.9912599999999999  0.8210000000000001  0.9226100000000002  1.0000
  H   H393      1.0  0.16737  0.82488  0.7351400000000001  1.0000
  C   C556      1.0  0.49126  0.821  0.25594  1.0000
  H   H394      1.0  0.66737  0.82488  0.06848  1.0000
  C   C557      1.0  0.49126  0.8210000000000001  0.5892700000000001  1.0000
  H   H395      1.0  0.66737  0.82488  0.40181  1.0000
  C   C558      1.0  0.49125999999999986  0.8210000000000001  0.9226100000000002  1.0000
  H   H396      1.0  0.66737  0.82488  0.7351400000000001  1.0000
  C   C559      1.0  0.04151000000000003  0.8348600000000003  0.10515  1.0000
  C   C560      1.0  0.041510000000000026  0.8348600000000003  0.43848000000000004  1.0000
  C   C561      1.0  0.04151000000000004  0.8348600000000003  0.77182  1.0000
  C   C562      1.0  0.54151  0.8348600000000003  0.10515  1.0000
  C   C563      1.0  0.54151  0.8348600000000003  0.43848000000000004  1.0000
  C   C564      1.0  0.5415099999999998  0.8348600000000003  0.77182  1.0000
  C   C565      1.0  0.41492  0.83993  0.19014  1.0000
  C   C566      1.0  0.4149200000000001  0.83993  0.52347  1.0000
  C   C567      1.0  0.41491999999999996  0.83993  0.85681  1.0000
  C   C568      1.0  0.91492  0.83993  0.19014  1.0000
  C   C569      1.0  0.91492  0.83993  0.52347  1.0000
  C   C570      1.0  0.91492  0.83993  0.85681  1.0000
  Mg  Mg31      1.0  0.03429000000000002  0.9809000000000002  0.07747  1.0000
  O   O181      1.0  0.47802000000000006  0.94963  0.05214  1.0000
  C   C571      1.0  0.44449  0.97852  0.04944  1.0000
  C   C572      1.0  0.2795900000000001  0.9755300000000002  0.1927  1.0000
  C   C573      1.0  0.30476  0.97693  0.12565  1.0000
  C   C574      1.0  0.27275  0.99241  0.16108  1.0000
  H   H397      1.0  0.33843  0.9882900000000001  0.24595  1.0000
  Mg  Mg32      1.0  0.03429000000000001  0.9809000000000002  0.4108  1.0000
  O   O182      1.0  0.4780200000000001  0.9496300000000003  0.3854800000000001  1.0000
  C   C575      1.0  0.44449  0.97852  0.38277  1.0000
  C   C576      1.0  0.2795900000000001  0.9755300000000002  0.52603  1.0000
  C   C577      1.0  0.30476000000000003  0.9769300000000001  0.45897999999999994  1.0000
  C   C578      1.0  0.27275  0.99241  0.49442  1.0000
  H   H398      1.0  0.33843  0.9882900000000002  0.57928  1.0000
  Mg  Mg33      1.0  0.03428999999999997  0.9809000000000003  0.7441300000000002  1.0000
  O   O183      1.0  0.47802000000000006  0.94963  0.71881  1.0000
  C   C579      1.0  0.44449  0.97852  0.7161  1.0000
  C   C580      1.0  0.2795900000000001  0.9755300000000002  0.85937  1.0000
  C   C581      1.0  0.30476  0.9769300000000002  0.7923100000000001  1.0000
  C   C582      1.0  0.27274999999999994  0.99241  0.8277500000000002  1.0000
  H   H399      1.0  0.33843000000000006  0.9882900000000002  0.91261  1.0000
  Mg  Mg34      1.0  0.53429  0.9809000000000002  0.07747  1.0000
  O   O184      1.0  0.97802  0.94963  0.05214  1.0000
  C   C583      1.0  0.94449  0.97852  0.04944  1.0000
  C   C584      1.0  0.77959  0.9755300000000002  0.1927  1.0000
  C   C585      1.0  0.80476  0.97693  0.12565  1.0000
  C   C586      1.0  0.77275  0.99241  0.16108  1.0000
  H   H400      1.0  0.8384299999999999  0.9882900000000001  0.24595  1.0000
  Mg  Mg35      1.0  0.53429  0.9809000000000002  0.4108  1.0000
  O   O185      1.0  0.97802  0.9496300000000003  0.3854800000000001  1.0000
  C   C587      1.0  0.94449  0.97852  0.38277  1.0000
  C   C588      1.0  0.77959  0.9755300000000002  0.52603  1.0000
  C   C589      1.0  0.80476  0.9769300000000001  0.45897999999999994  1.0000
  C   C590      1.0  0.77275  0.99241  0.49442  1.0000
  H   H401      1.0  0.8384300000000001  0.9882900000000002  0.57928  1.0000
  Mg  Mg36      1.0  0.5342900000000002  0.9809000000000003  0.7441300000000002  1.0000
  O   O186      1.0  0.97802  0.94963  0.71881  1.0000
  C   C591      1.0  0.94449  0.97852  0.7161  1.0000
  C   C592      1.0  0.77959  0.9755300000000002  0.85937  1.0000
  C   C593      1.0  0.80476  0.9769300000000002  0.7923100000000001  1.0000
  C   C594      1.0  0.77275  0.99241  0.8277500000000002  1.0000
  H   H402      1.0  0.8384300000000001  0.9882900000000002  0.91261  1.0000
  O   O187      1.0  0.93815  0.9879000000000001  0.2876  1.0000
  O   O188      1.0  0.0072299999999999864  0.96711  0.30347  1.0000
  O   O189      1.0  0.13733  0.92352  0.07931  1.0000
  O   O190      1.0  0.059230000000000005  0.91085  0.06591000000000001  1.0000
  O   O191      1.0  0.06893000000000003  0.9922700000000002  0.02527  1.0000
  H   H403      1.0  0.07610000000000001  0.9593400000000001  0.007270000000000001  1.0000
  C   C595      1.0  0.96304  0.9544100000000002  0.295  1.0000
  C   C596      1.0  0.09852000000000002  0.8936100000000001  0.0727  1.0000
  C   C597      1.0  0.09007000000000003  0.8460000000000002  0.08533  1.0000
  C   C598      1.0  0.43305999999999994  0.84526  0.22333  1.0000
  C   C599      1.0  0.42084  0.8871600000000003  0.2535  1.0000
  C   C600      1.0  0.45115  0.90079  0.28051  1.0000
  C   C601      1.0  0.48165  0.8648000000000003  0.28441000000000005  1.0000
  H   H404      1.0  0.012340000000000026  0.8615100000000002  0.1109  1.0000
  H   H405      1.0  0.38379  0.8615100000000002  0.19055  1.0000
  H   H406      1.0  0.39537  0.91385  0.25141  1.0000
  H   H407      1.0  0.0033400000000000166  0.8734800000000003  0.30641  1.0000
  C   C602      1.0  0.30517000000000005  0.93087  0.18541000000000002  1.0000
  C   C603      1.0  0.3328400000000001  0.9111  0.14857  1.0000
  C   C604      1.0  0.33759  0.93795  0.12007  1.0000
  C   C605      1.0  0.3796300000000001  0.9326  0.08967  1.0000
  C   C606      1.0  0.39177  0.9697800000000001  0.06822  1.0000
  C   C607      1.0  0.35577  0.004530000000000007  0.07138000000000001  1.0000
  H   H408      1.0  0.08470000000000001  0.9985500000000003  0.18023  1.0000
  H   H409      1.0  0.30831  0.91459  0.20864  1.0000
  H   H410      1.0  0.35571  0.8791800000000001  0.14364  1.0000
  H   H411      1.0  0.4066600000000001  0.90478  0.08702  1.0000
  O   O192      1.0  0.93815  0.9879000000000001  0.62094  1.0000
  O   O193      1.0  0.0072300000000000185  0.96711  0.6368  1.0000
  O   O194      1.0  0.13733  0.92352  0.4126400000000001  1.0000
  O   O195      1.0  0.059229999999999984  0.91085  0.39925  1.0000
  O   O196      1.0  0.06893000000000003  0.9922700000000002  0.35861  1.0000
  H   H412      1.0  0.0761  0.9593400000000001  0.3406100000000001  1.0000
  C   C608      1.0  0.96304  0.9544100000000002  0.62833  1.0000
  C   C609      1.0  0.09851999999999998  0.8936100000000001  0.40603  1.0000
  C   C610      1.0  0.09007000000000001  0.8460000000000002  0.41867  1.0000
  C   C611      1.0  0.43305999999999994  0.84526  0.55666  1.0000
  C   C612      1.0  0.42084  0.8871600000000002  0.58683  1.0000
  C   C613      1.0  0.45115  0.90079  0.61385  1.0000
  C   C614      1.0  0.48165  0.8648  0.61774  1.0000
  H   H413      1.0  0.01234000000000001  0.8615100000000002  0.44423  1.0000
  H   H414      1.0  0.38379  0.8615100000000002  0.52388  1.0000
  H   H415      1.0  0.39537000000000005  0.91385  0.58474  1.0000
  H   H416      1.0  0.003339999999999984  0.8734800000000003  0.63974  1.0000
  C   C615      1.0  0.30517000000000005  0.93087  0.51874  1.0000
  C   C616      1.0  0.3328400000000001  0.9111  0.4819  1.0000
  C   C617      1.0  0.33759  0.93795  0.45341  1.0000
  C   C618      1.0  0.37962999999999997  0.9326  0.42301  1.0000
  C   C619      1.0  0.39177  0.9697800000000001  0.40155  1.0000
  C   C620      1.0  0.35577  0.004530000000000007  0.40471  1.0000
  H   H417      1.0  0.08470000000000001  0.9985500000000003  0.51356  1.0000
  H   H418      1.0  0.30831  0.91459  0.54198  1.0000
  H   H419      1.0  0.35571  0.8791800000000001  0.47698  1.0000
  H   H420      1.0  0.4066600000000001  0.9047800000000001  0.42035  1.0000
  O   O197      1.0  0.9381499999999998  0.9879000000000001  0.9542700000000001  1.0000
  O   O198      1.0  0.007229999999999889  0.96711  0.9701400000000001  1.0000
  O   O199      1.0  0.13733  0.92352  0.74598  1.0000
  O   O200      1.0  0.059230000000000005  0.91085  0.73258  1.0000
  O   O201      1.0  0.06893000000000005  0.9922700000000002  0.69194  1.0000
  H   H421      1.0  0.0761  0.9593400000000001  0.67394  1.0000
  C   C621      1.0  0.96304  0.9544100000000002  0.96166  1.0000
  C   C622      1.0  0.09852  0.8936100000000001  0.73937  1.0000
  C   C623      1.0  0.09007000000000004  0.8460000000000002  0.752  1.0000
  C   C624      1.0  0.43305999999999994  0.84526  0.8899900000000001  1.0000
  C   C625      1.0  0.42084  0.8871600000000002  0.92016  1.0000
  C   C626      1.0  0.4511500000000003  0.90079  0.94718  1.0000
  C   C627      1.0  0.4816500000000001  0.8648  0.95108  1.0000
  H   H422      1.0  0.012340000000000042  0.8615100000000002  0.77756  1.0000
  H   H423      1.0  0.38379  0.8615100000000002  0.85721  1.0000
  H   H424      1.0  0.39536999999999994  0.91385  0.9180799999999999  1.0000
  H   H425      1.0  0.0033399999999999515  0.8734800000000003  0.97308  1.0000
  C   C628      1.0  0.30517000000000005  0.93087  0.85207  1.0000
  C   C629      1.0  0.33283999999999997  0.9111  0.8152400000000002  1.0000
  C   C630      1.0  0.33759  0.93795  0.78674  1.0000
  C   C631      1.0  0.3796300000000001  0.9326  0.75634  1.0000
  C   C632      1.0  0.3917699999999999  0.9697800000000002  0.7348900000000003  1.0000
  C   C633      1.0  0.35577  0.004530000000000007  0.73805  1.0000
  H   H426      1.0  0.08469999999999998  0.9985500000000003  0.8468900000000001  1.0000
  H   H427      1.0  0.30831  0.91459  0.87531  1.0000
  H   H428      1.0  0.35571  0.8791800000000001  0.81031  1.0000
  H   H429      1.0  0.4066600000000001  0.9047800000000001  0.75368  1.0000
  O   O202      1.0  0.43815  0.9879000000000001  0.2876  1.0000
  O   O203      1.0  0.50723  0.96711  0.30347  1.0000
  O   O204      1.0  0.63733  0.92352  0.07931  1.0000
  O   O205      1.0  0.55923  0.91085  0.06591000000000001  1.0000
  O   O206      1.0  0.56893  0.9922700000000002  0.02527  1.0000
  H   H430      1.0  0.5761  0.9593400000000001  0.007270000000000001  1.0000
  C   C634      1.0  0.46304  0.9544100000000002  0.295  1.0000
  C   C635      1.0  0.59852  0.8936100000000001  0.0727  1.0000
  C   C636      1.0  0.5900700000000002  0.8460000000000002  0.08533  1.0000
  C   C637      1.0  0.93306  0.84526  0.22333  1.0000
  C   C638      1.0  0.9208400000000001  0.8871600000000003  0.2535  1.0000
  C   C639      1.0  0.95115  0.90079  0.28051  1.0000
  C   C640      1.0  0.9816500000000001  0.8648000000000003  0.28441000000000005  1.0000
  H   H431      1.0  0.51234  0.8615100000000002  0.1109  1.0000
  H   H432      1.0  0.8837900000000001  0.8615100000000002  0.19055  1.0000
  H   H433      1.0  0.89537  0.91385  0.25141  1.0000
  H   H434      1.0  0.5033400000000001  0.8734800000000003  0.30641  1.0000
  C   C641      1.0  0.80517  0.93087  0.18541000000000002  1.0000
  C   C642      1.0  0.83284  0.9111  0.14857  1.0000
  C   C643      1.0  0.8375900000000001  0.93795  0.12007  1.0000
  C   C644      1.0  0.87963  0.9326  0.08967  1.0000
  C   C645      1.0  0.89177  0.9697800000000001  0.06822  1.0000
  C   C646      1.0  0.85577  0.004530000000000007  0.07138000000000001  1.0000
  H   H435      1.0  0.5847  0.9985500000000003  0.18023  1.0000
  H   H436      1.0  0.80831  0.91459  0.20864  1.0000
  H   H437      1.0  0.85571  0.8791800000000001  0.14364  1.0000
  H   H438      1.0  0.90666  0.90478  0.08702  1.0000
  O   O207      1.0  0.43815  0.9879000000000001  0.62094  1.0000
  O   O208      1.0  0.50723  0.96711  0.6368  1.0000
  O   O209      1.0  0.63733  0.92352  0.4126400000000001  1.0000
  O   O210      1.0  0.55923  0.91085  0.39925  1.0000
  O   O211      1.0  0.56893  0.9922700000000002  0.35861  1.0000
  H   H439      1.0  0.5761  0.9593400000000001  0.3406100000000001  1.0000
  C   C647      1.0  0.46304000000000006  0.9544100000000002  0.62833  1.0000
  C   C648      1.0  0.59852  0.8936100000000001  0.40603  1.0000
  C   C649      1.0  0.59007  0.8460000000000002  0.41867  1.0000
  C   C650      1.0  0.93306  0.84526  0.55666  1.0000
  C   C651      1.0  0.9208400000000001  0.8871600000000002  0.58683  1.0000
  C   C652      1.0  0.9511499999999999  0.90079  0.61385  1.0000
  C   C653      1.0  0.9816500000000001  0.8648  0.61774  1.0000
  H   H440      1.0  0.51234  0.8615100000000002  0.44423  1.0000
  H   H441      1.0  0.8837900000000001  0.8615100000000002  0.52388  1.0000
  H   H442      1.0  0.89537  0.91385  0.58474  1.0000
  H   H443      1.0  0.5033400000000002  0.8734800000000003  0.63974  1.0000
  C   C654      1.0  0.80517  0.93087  0.51874  1.0000
  C   C655      1.0  0.83284  0.9111  0.4819  1.0000
  C   C656      1.0  0.8375900000000001  0.93795  0.45341  1.0000
  C   C657      1.0  0.87963  0.9326  0.42301  1.0000
  C   C658      1.0  0.89177  0.9697800000000001  0.40155  1.0000
  C   C659      1.0  0.85577  0.004530000000000007  0.40471  1.0000
  H   H444      1.0  0.5847  0.9985500000000003  0.51356  1.0000
  H   H445      1.0  0.80831  0.91459  0.54198  1.0000
  H   H446      1.0  0.85571  0.8791800000000001  0.47698  1.0000
  H   H447      1.0  0.90666  0.9047800000000001  0.42035  1.0000
  O   O212      1.0  0.43814999999999993  0.9879000000000001  0.9542700000000001  1.0000
  O   O213      1.0  0.5072299999999998  0.96711  0.9701400000000001  1.0000
  O   O214      1.0  0.63733  0.92352  0.74598  1.0000
  O   O215      1.0  0.55923  0.91085  0.73258  1.0000
  O   O216      1.0  0.5689300000000003  0.9922700000000002  0.69194  1.0000
  H   H448      1.0  0.5761  0.9593400000000001  0.67394  1.0000
  C   C660      1.0  0.46304  0.9544100000000002  0.96166  1.0000
  C   C661      1.0  0.59852  0.8936100000000001  0.73937  1.0000
  C   C662      1.0  0.59007  0.8460000000000002  0.752  1.0000
  C   C663      1.0  0.93306  0.84526  0.8899900000000001  1.0000
  C   C664      1.0  0.9208400000000001  0.8871600000000002  0.92016  1.0000
  C   C665      1.0  0.9511500000000002  0.90079  0.94718  1.0000
  C   C666      1.0  0.9816499999999999  0.8648  0.95108  1.0000
  H   H449      1.0  0.5123400000000002  0.8615100000000002  0.77756  1.0000
  H   H450      1.0  0.8837900000000001  0.8615100000000002  0.85721  1.0000
  H   H451      1.0  0.89537  0.91385  0.9180799999999999  1.0000
  H   H452      1.0  0.5033400000000001  0.8734800000000003  0.97308  1.0000
  C   C667      1.0  0.80517  0.93087  0.85207  1.0000
  C   C668      1.0  0.8328399999999998  0.9111  0.8152400000000002  1.0000
  C   C669      1.0  0.8375900000000001  0.93795  0.78674  1.0000
  C   C670      1.0  0.87963  0.9326  0.75634  1.0000
  C   C671      1.0  0.8917699999999998  0.9697800000000002  0.7348900000000003  1.0000
  C   C672      1.0  0.85577  0.004530000000000007  0.73805  1.0000
  H   H453      1.0  0.5847  0.9985500000000003  0.8468900000000001  1.0000
  H   H454      1.0  0.80831  0.91459  0.87531  1.0000
  H   H455      1.0  0.85571  0.8791800000000001  0.81031  1.0000
  H   H456      1.0  0.90666  0.9047800000000001  0.75368  1.0000
