data_image0
_chemical_formula_structural       CNi3HCHCHCHCH2CO4HO5HO11C16OC2H10C12OC2H9CNi3HCHCHCHCH2CO4HO5HO11C16OC2H10C12OC2H9CNi3HCHCHCHCH2CO4HO5HO11C16OC2H10C12OC2H9CNi3HCHCHCHCH2CO4HO5HO11C16OC2H10C12OC2H9CNi3HCHCHCHCH2CO4HO5HO9CO2C16OC2H10C15OC2H10CNi3HCHCHCHCH2CO4HO5HO9CO2C16OC2H10C15OC2H10CNi3HCHCHCHCH2CO4HO5HO9CO2C16OC2H10C15OC2H10CNi3HCHCHCHCH2CO4HO5HO9CO2C16OC2H10C15OC2H10CNi3HCHC2H2CO4HO4HO8COC16OC2H9C13OC2H7CNi3HCHC2H2CO4HO4HO8COC16OC2H9C13OC2H7CNi3HCHC2H2CO4HO4HO8COC16OC2H9C13OC2H7CNi3HCHC2H2CO4HO4HO8COC16OC2H9C13OC2H7CNi3HCHCHCHCH2CO4HO5HO11C16OC2H10C12OC2H9CNi3HCHCHCHCH2CO4HO5HO11C16OC2H10C12OC2H9CNi3HCHCHCHCH2CO4HO5HO11C16OC2H10C12OC2H9CNi3HCHCHCHCH2CO4HO5HO11C16OC2H10C12OC2H9CNi3HCHCHCHCH2CO4HO5HO9CO2C16OC2H10C15OC2H10CNi3HCHCHCHCH2CO4HO5HO9CO2C16OC2H10C15OC2H10CNi3HCHCHCHCH2CO4HO5HO9CO2C16OC2H10C15OC2H10CNi3HCHCHCHCH2CO4HO5HO9CO2C16OC2H10C15OC2H10CNi3HCHC2H2CO4HO4HO8COC16OC2H9C13OC2H7CNi3HCHC2H2CO4HO4HO8COC16OC2H9C13OC2H7CNi3HCHC2H2CO4HO4HO8COC16OC2H9C13OC2H7CNi3HCHC2H2CO4HO4HO8COC16OC2H9C13OC2H7CNi3HCHCHCHCH2CO4HO5HO11C16OC2H10C12OC2H9CNi3HCHCHCHCH2CO4HO5HO11C16OC2H10C12OC2H9CNi3HCHCHCHCH2CO4HO5HO11C16OC2H10C12OC2H9CNi3HCHCHCHCH2CO4HO5HO11C16OC2H10C12OC2H9CNi3HCHCHCHCH2CO4HO5HO9CO2C16OC2H10C15OC2H10CNi3HCHCHCHCH2CO4HO5HO9CO2C16OC2H10C15OC2H10CNi3HCHCHCHCH2CO4HO5HO9CO2C16OC2H10C15OC2H10CNi3HCHCHCHCH2CO4HO5HO9CO2C16OC2H10C15OC2H10CNi3HCHC2H2CO4HO4HO8COC16OC2H9C13OC2H7CNi3HCHC2H2CO4HO4HO8COC16OC2H9C13OC2H7CNi3HCHC2H2CO4HO4HO8COC16OC2H9C13OC2H7CNi3HCHC2H2CO4HO4HO8COC16OC2H9C13OC2H7CH2O3HC2H2CH2O3HC2H2CH2O3HC2H2CH2O3HC2H2CH2O3HC2H2CH2O3HC2H2CH2O3HC2H2CH2O3HC2H2CH2O3HC2H2CH2O3HC2H2CH2O3HC2H2CH2O3HC2H2C4HC4HC4HC4HC4HC4HC4HC4HC4HC4HC4HC4H13
_chemical_formula_sum              "C1512 Ni108 H1008 O792"
_cell_length_a       36.5868
_cell_length_b       36.5841
_cell_length_c       34.467
_cell_angle_alpha    111.554
_cell_angle_beta     111.554
_cell_angle_gamma    93.20399999999998

_symmetry_space_group_name_H-M    'P 1'
_symmetry_Int_Tables_number       1

loop_
  _symmetry_equiv_pos_as_xyz
  'x,y,z'

loop_
  _atom_site_type_symbol
  _atom_site_label
  _atom_site_symmetry_multiplicity
  _atom_site_fract_x
  _atom_site_fract_y
  _atom_site_fract_z
  _atom_site_occupancy
  C   C1        1.0  0.09832000000000002  0.17319999999999997  0.14833999999999994  1.0000
  Ni  Ni1       1.0  0.07945  0.10998  0.06706  1.0000
  Ni  Ni2       1.0  0.08932  0.09045999999999998  0.13916999999999996  1.0000
  Ni  Ni3       1.0  0.09895000000000001  0.10012  0.24493  1.0000
  H   H1        1.0  0.14919999999999997  0.07798999999999998  0.18955999999999995  1.0000
  C   C2        1.0  0.34956  0.42446  0.23577999999999993  1.0000
  H   H2        1.0  0.44473  0.37355  0.19453  1.0000
  C   C3        1.0  0.18535000000000001  0.1465  0.3062  1.0000
  H   H3        1.0  0.07771  0.1492  0.28379  1.0000
  C   C4        1.0  0.04291999999999999  0.33741  0.07788999999999997  1.0000
  H   H4        1.0  0.37358  0.44506  0.10033  1.0000
  C   C5        1.0  0.42928  0.36546999999999996  0.26761  1.0000
  H   H5        1.0  0.40029  0.3685  0.18326  1.0000
  H   H6        1.0  0.15427  0.12243999999999994  0.20081999999999994  1.0000
  C   C6        1.0  0.15730000000000005  0.09347999999999998  0.11648999999999997  1.0000
  O   O1        1.0  0.32447  0.04565999999999999  0.09653999999999999  1.0000
  O   O2        1.0  0.37564000000000003  0.09938000000000001  0.157  1.0000
  O   O3        1.0  0.14376  0.19829  0.28755  1.0000
  O   O4        1.0  0.09002999999999997  0.14712999999999998  0.22710999999999995  1.0000
  H   H7        1.0  0.3669299999999998  0.40185  0.07060999999999998  1.0000
  O   O5        1.0  0.08216  0.16125  0.10403999999999997  1.0000
  O   O6        1.0  0.10824999999999999  0.14612999999999998  0.16431999999999994  1.0000
  O   O7        1.0  0.36152  0.10729  0.28009  1.0000
  O   O8        1.0  0.37662000000000007  0.41453  0.21979999999999994  1.0000
  O   O9        1.0  0.18598  0.16762999999999995  0.3466599999999999  1.0000
  H   H8        1.0  0.12091999999999997  0.15583999999999995  0.3134999999999999  1.0000
  O   O10       1.0  0.15383  0.11922999999999995  0.2691099999999999  1.0000
  O   O11       1.0  0.021789999999999993  0.33678  0.03743999999999999  1.0000
  O   O12       1.0  0.0702  0.36892  0.11499  1.0000
  O   O13       1.0  0.07220999999999997  0.3856099999999999  0.28312999999999994  1.0000
  O   O14       1.0  0.45077  0.39178  0.26339  1.0000
  O   O15       1.0  0.13715  0.11720999999999997  0.10096999999999998  1.0000
  O   O16       1.0  0.13099  0.07197999999999999  0.12070999999999998  1.0000
  O   O17       1.0  0.13298  0.09902999999999998  0.19157999999999994  1.0000
  O   O18       1.0  0.4237  0.38979  0.19251  1.0000
  O   O19       1.0  0.09804000000000002  0.13355  0.29233  1.0000
  O   O20       1.0  0.38922  0.42473  0.09177999999999997  1.0000
  C   C7        1.0  0.11026  0.18812  0.25115  1.0000
  C   C8        1.0  0.44071000000000005  0.29392  0.18792  1.0000
  C   C9        1.0  0.46935000000000004  0.27799  0.17244  1.0000
  C   C10       1.0  0.46820000000000006  0.23746  0.16158  1.0000
  C   C11       1.0  0.44751  0.21740999999999996  0.17764999999999995  1.0000
  C   C12       1.0  0.10437999999999997  0.24223999999999998  0.21461999999999995  1.0000
  C   C13       1.0  0.09802999999999999  0.22761  0.24536999999999998  1.0000
  C   C14       1.0  0.09919999999999998  0.26049999999999995  0.2851899999999999  1.0000
  C   C15       1.0  0.10167000000000001  0.30257  0.29196  1.0000
  C   C16       1.0  0.09968  0.31763  0.25924  1.0000
  C   C17       1.0  0.43833999999999995  0.28557  0.22223999999999994  1.0000
  C   C18       1.0  0.40075999999999995  0.28841999999999995  0.15143999999999994  1.0000
  C   C19       1.0  0.06795000000000001  0.29762  0.11677999999999997  1.0000
  C   C20       1.0  0.36743  0.30361  0.08727  1.0000
  C   C21       1.0  0.32985  0.29263  0.08640999999999997  1.0000
  C   C22       1.0  0.32763  0.27828  0.11820999999999997  1.0000
  O   O21       1.0  0.29106  0.26747  0.11840999999999997  1.0000
  C   C23       1.0  0.28293  0.30174  0.14697  1.0000
  C   C24       1.0  0.36316  0.27643  0.1511  1.0000
  H   H9        1.0  0.48304999999999987  0.29197999999999996  0.15687999999999994  1.0000
  H   H10       1.0  0.48056  0.22126  0.13778  1.0000
  H   H11       1.0  0.10225999999999999  0.2539199999999999  0.3141899999999999  1.0000
  H   H12       1.0  0.10977999999999997  0.32556999999999997  0.3254499999999999  1.0000
  H   H13       1.0  0.09691999999999998  0.30983999999999995  0.12052999999999997  1.0000
  H   H14       1.0  0.30344  0.2993  0.06506  1.0000
  H   H15       1.0  0.25372  0.29278  0.14751999999999998  1.0000
  H   H16       1.0  0.30628000000000005  0.31393  0.18296999999999994  1.0000
  H   H17       1.0  0.27981  0.32525  0.13338  1.0000
  H   H18       1.0  0.36098  0.26703  0.17666  1.0000
  C   C25       1.0  0.22885000000000003  0.08204999999999998  0.19617999999999994  1.0000
  C   C26       1.0  0.28053  0.08506  0.16949  1.0000
  C   C27       1.0  0.29516000000000003  0.09139  0.13874  1.0000
  C   C28       1.0  0.26227  0.42356999999999995  0.09891  1.0000
  C   C29       1.0  0.22019  0.4211  0.09215  1.0000
  C   C30       1.0  0.20514  0.08975  0.12486  1.0000
  C   C31       1.0  0.23720000000000002  0.08441999999999997  0.16185999999999995  1.0000
  C   C32       1.0  0.23433  0.122  0.23265999999999995  1.0000
  C   C33       1.0  0.2251300000000001  0.12146999999999998  0.26732  1.0000
  C   C34       1.0  0.21913999999999995  0.15531999999999996  0.29682999999999987  1.0000
  C   C35       1.0  0.23013  0.19291  0.2977  1.0000
  C   C36       1.0  0.24448000000000003  0.19512999999999997  0.26588999999999996  1.0000
  O   O22       1.0  0.25529  0.2317  0.2657  1.0000
  C   C37       1.0  0.22103  0.23984  0.23713999999999993  1.0000
  C   C38       1.0  0.24633  0.15961  0.23300999999999997  1.0000
  H   H19       1.0  0.3015  0.042220000000000014  0.24635  1.0000
  H   H20       1.0  0.26883999999999997  0.42051  0.06992  1.0000
  H   H21       1.0  0.19720000000000001  0.41298  0.05864999999999999  1.0000
  H   H22       1.0  0.21290999999999996  0.42583  0.26355999999999996  1.0000
  H   H23       1.0  0.2234600000000001  0.21932999999999997  0.31905  1.0000
  H   H24       1.0  0.22999000000000003  0.26906  0.23659  1.0000
  H   H25       1.0  0.20884000000000003  0.21648999999999996  0.20114999999999994  1.0000
  H   H26       1.0  0.19752000000000006  0.24296  0.25073  1.0000
  H   H27       1.0  0.25573  0.16179  0.20746  1.0000
  C   C39       1.0  0.09832000000000003  0.1732  0.39834  1.0000
  Ni  Ni4       1.0  0.07945  0.10998  0.31706  1.0000
  Ni  Ni5       1.0  0.08932  0.09045999999999998  0.38917  1.0000
  Ni  Ni6       1.0  0.09894999999999995  0.10011999999999997  0.49492999999999987  1.0000
  H   H28       1.0  0.14919999999999994  0.07797999999999995  0.4395599999999999  1.0000
  C   C40       1.0  0.34956  0.42445999999999995  0.4857799999999999  1.0000
  H   H29       1.0  0.44473  0.37355  0.4445199999999999  1.0000
  C   C41       1.0  0.18535000000000001  0.14650000000000002  0.5562  1.0000
  H   H30       1.0  0.07771000000000002  0.1492  0.53379  1.0000
  C   C42       1.0  0.04291999999999995  0.3374  0.3278899999999999  1.0000
  H   H31       1.0  0.37358  0.44506  0.35032  1.0000
  C   C43       1.0  0.42928  0.36546999999999996  0.51761  1.0000
  H   H32       1.0  0.4002899999999999  0.3685  0.43325999999999987  1.0000
  H   H33       1.0  0.15426999999999993  0.12242999999999994  0.4508199999999999  1.0000
  C   C44       1.0  0.15730000000000002  0.09347999999999998  0.3664799999999999  1.0000
  O   O23       1.0  0.3244699999999999  0.04565999999999995  0.3465399999999999  1.0000
  O   O24       1.0  0.37564  0.09938  0.407  1.0000
  O   O25       1.0  0.14376  0.19829  0.53755  1.0000
  O   O26       1.0  0.09002999999999997  0.14712999999999998  0.47710999999999987  1.0000
  H   H34       1.0  0.3669299999999999  0.40183999999999986  0.32061  1.0000
  O   O27       1.0  0.08215999999999998  0.16124999999999995  0.3540399999999999  1.0000
  O   O28       1.0  0.10824999999999999  0.14612999999999995  0.4143199999999999  1.0000
  O   O29       1.0  0.36152  0.10729  0.53009  1.0000
  O   O30       1.0  0.37662000000000007  0.41453  0.4698  1.0000
  O   O31       1.0  0.18598  0.16763  0.59666  1.0000
  H   H35       1.0  0.12092000000000004  0.15584  0.5635  1.0000
  O   O32       1.0  0.15383000000000002  0.11923  0.5191  1.0000
  O   O33       1.0  0.021789999999999997  0.33678  0.28743  1.0000
  O   O34       1.0  0.07020000000000003  0.36890999999999996  0.36498  1.0000
  O   O35       1.0  0.07221000000000005  0.38561  0.53313  1.0000
  O   O36       1.0  0.45077  0.39177999999999996  0.5133899999999999  1.0000
  O   O37       1.0  0.13716  0.11721000000000002  0.35097  1.0000
  O   O38       1.0  0.13098999999999994  0.07197999999999996  0.3707099999999999  1.0000
  O   O39       1.0  0.13298  0.09902  0.44158  1.0000
  O   O40       1.0  0.4237  0.38979  0.44251  1.0000
  O   O41       1.0  0.09804000000000004  0.13355  0.54233  1.0000
  O   O42       1.0  0.38922  0.42473  0.34178  1.0000
  C   C45       1.0  0.11026  0.18811  0.50115  1.0000
  C   C46       1.0  0.44070999999999994  0.29392  0.43791999999999986  1.0000
  C   C47       1.0  0.46935000000000004  0.27799  0.42244  1.0000
  C   C48       1.0  0.46821  0.23746  0.41158  1.0000
  C   C49       1.0  0.44751  0.21740999999999994  0.42764999999999986  1.0000
  C   C50       1.0  0.10437999999999997  0.24224000000000004  0.46462  1.0000
  C   C51       1.0  0.09802999999999998  0.22761  0.49536999999999987  1.0000
  C   C52       1.0  0.09919000000000003  0.2605  0.53519  1.0000
  C   C53       1.0  0.10167000000000004  0.30257  0.54196  1.0000
  C   C54       1.0  0.09967999999999996  0.31762999999999997  0.5092399999999999  1.0000
  C   C55       1.0  0.4383399999999999  0.28557  0.47224  1.0000
  C   C56       1.0  0.40076  0.28841999999999995  0.40143999999999996  1.0000
  C   C57       1.0  0.06795000000000001  0.29762  0.36677  1.0000
  C   C58       1.0  0.36743  0.30361  0.33727  1.0000
  C   C59       1.0  0.32985  0.29262999999999995  0.33639999999999987  1.0000
  C   C60       1.0  0.32763  0.27828  0.36821  1.0000
  O   O43       1.0  0.29105999999999993  0.26747  0.3684099999999999  1.0000
  C   C61       1.0  0.28293  0.30173999999999995  0.3969699999999999  1.0000
  C   C62       1.0  0.36316  0.27643  0.4011  1.0000
  H   H36       1.0  0.48305  0.29198  0.40688  1.0000
  H   H37       1.0  0.48056  0.22126  0.3877899999999999  1.0000
  H   H38       1.0  0.10226  0.2539199999999999  0.5641899999999999  1.0000
  H   H39       1.0  0.10977999999999997  0.32556999999999997  0.57545  1.0000
  H   H40       1.0  0.09691999999999998  0.30982999999999994  0.37053  1.0000
  H   H41       1.0  0.30344  0.2993  0.3150599999999999  1.0000
  H   H42       1.0  0.25372  0.29278999999999994  0.3975199999999999  1.0000
  H   H43       1.0  0.30628000000000005  0.31393  0.4329699999999999  1.0000
  H   H44       1.0  0.27982  0.32525  0.3833799999999999  1.0000
  H   H45       1.0  0.36098  0.26704  0.4266599999999999  1.0000
  C   C63       1.0  0.22884999999999997  0.08204999999999997  0.4461799999999999  1.0000
  C   C64       1.0  0.28052999999999995  0.08504999999999997  0.41948999999999986  1.0000
  C   C65       1.0  0.29516000000000003  0.09138999999999997  0.3887399999999999  1.0000
  C   C66       1.0  0.26227  0.42355999999999994  0.34891  1.0000
  C   C67       1.0  0.22018999999999997  0.42108999999999996  0.3421399999999999  1.0000
  C   C68       1.0  0.20513999999999993  0.08974999999999995  0.3748599999999999  1.0000
  C   C69       1.0  0.2371999999999999  0.08441999999999994  0.4118599999999999  1.0000
  C   C70       1.0  0.23433  0.12199999999999996  0.48265999999999987  1.0000
  C   C71       1.0  0.22513  0.12146999999999998  0.51732  1.0000
  C   C72       1.0  0.21914  0.15532  0.54682  1.0000
  C   C73       1.0  0.23012999999999995  0.19290999999999997  0.5476899999999999  1.0000
  C   C74       1.0  0.24448000000000003  0.19512999999999997  0.51589  1.0000
  O   O44       1.0  0.2553  0.2317  0.5157  1.0000
  C   C75       1.0  0.22103  0.23984  0.48714  1.0000
  C   C76       1.0  0.24633999999999998  0.15961  0.48301  1.0000
  H   H46       1.0  0.3015  0.04221999999999999  0.49635  1.0000
  H   H47       1.0  0.26883999999999997  0.4205  0.31991  1.0000
  H   H48       1.0  0.19720000000000001  0.41298  0.30865  1.0000
  H   H49       1.0  0.21291  0.42583  0.51356  1.0000
  H   H50       1.0  0.22345999999999996  0.2193299999999999  0.5690499999999997  1.0000
  H   H51       1.0  0.22998999999999994  0.26905999999999997  0.4865899999999999  1.0000
  H   H52       1.0  0.20885000000000004  0.21649  0.45114  1.0000
  H   H53       1.0  0.19752000000000006  0.24296  0.50073  1.0000
  H   H54       1.0  0.25572999999999996  0.16178999999999993  0.45745999999999987  1.0000
  C   C77       1.0  0.09832000000000003  0.1732  0.64834  1.0000
  Ni  Ni7       1.0  0.07945  0.10998000000000002  0.56706  1.0000
  Ni  Ni8       1.0  0.08931999999999994  0.09045999999999986  0.6391699999999998  1.0000
  Ni  Ni9       1.0  0.09895000000000004  0.10012000000000003  0.74493  1.0000
  H   H55       1.0  0.14919999999999997  0.07798000000000004  0.68956  1.0000
  C   C78       1.0  0.3495599999999999  0.42445999999999995  0.7357799999999998  1.0000
  H   H56       1.0  0.44473  0.37355  0.69452  1.0000
  C   C79       1.0  0.1853499999999999  0.14649999999999988  0.8061999999999998  1.0000
  H   H57       1.0  0.07771000000000002  0.1492  0.78379  1.0000
  C   C80       1.0  0.04291999999999995  0.33739999999999987  0.5778899999999998  1.0000
  H   H58       1.0  0.37358  0.44506  0.60032  1.0000
  C   C81       1.0  0.42928  0.3654699999999999  0.7676099999999998  1.0000
  H   H59       1.0  0.40029  0.36849999999999994  0.6832599999999999  1.0000
  H   H60       1.0  0.1542699999999999  0.12242999999999989  0.7008199999999998  1.0000
  C   C82       1.0  0.15729999999999994  0.0934799999999999  0.6164799999999999  1.0000
  O   O45       1.0  0.3244699999999999  0.045659999999999965  0.5965399999999998  1.0000
  O   O46       1.0  0.37564000000000003  0.09938000000000001  0.657  1.0000
  O   O47       1.0  0.14375999999999994  0.19828999999999994  0.7875499999999998  1.0000
  O   O48       1.0  0.09003000000000005  0.14713000000000004  0.72711  1.0000
  H   H61       1.0  0.3669299999999998  0.40184999999999993  0.5706099999999997  1.0000
  O   O49       1.0  0.0821599999999999  0.16124999999999995  0.6040399999999998  1.0000
  O   O50       1.0  0.10824999999999993  0.14612999999999993  0.6643199999999998  1.0000
  O   O51       1.0  0.36152  0.10729000000000004  0.78009  1.0000
  O   O52       1.0  0.37662000000000007  0.4145299999999999  0.7198  1.0000
  O   O53       1.0  0.18598  0.16763  0.84666  1.0000
  H   H62       1.0  0.12091999999999997  0.15584  0.8135  1.0000
  O   O54       1.0  0.15382999999999988  0.1192299999999999  0.7690999999999998  1.0000
  O   O55       1.0  0.02178999999999991  0.33677999999999997  0.5374299999999997  1.0000
  O   O56       1.0  0.07020000000000003  0.36891000000000007  0.61498  1.0000
  O   O57       1.0  0.07220999999999991  0.3856099999999999  0.7831299999999998  1.0000
  O   O58       1.0  0.45076999999999984  0.3917799999999999  0.7633899999999998  1.0000
  O   O59       1.0  0.13716  0.11720999999999997  0.60097  1.0000
  O   O60       1.0  0.13099  0.07198000000000002  0.62071  1.0000
  O   O61       1.0  0.13298  0.09903000000000003  0.69158  1.0000
  O   O62       1.0  0.42369999999999997  0.3897899999999999  0.6925099999999997  1.0000
  O   O63       1.0  0.09803999999999995  0.13354999999999995  0.79233  1.0000
  O   O64       1.0  0.38923  0.42473  0.59178  1.0000
  C   C83       1.0  0.11026  0.18811  0.75115  1.0000
  C   C84       1.0  0.44071000000000005  0.29392  0.6879199999999999  1.0000
  C   C85       1.0  0.46935000000000004  0.27799  0.67244  1.0000
  C   C86       1.0  0.46821  0.23746  0.66158  1.0000
  C   C87       1.0  0.44751  0.21740999999999994  0.67765  1.0000
  C   C88       1.0  0.10437999999999999  0.24224000000000004  0.71462  1.0000
  C   C89       1.0  0.09802999999999992  0.2276099999999999  0.7453699999999998  1.0000
  C   C90       1.0  0.09919999999999993  0.2604999999999999  0.7851899999999998  1.0000
  C   C91       1.0  0.10166999999999993  0.3025699999999999  0.7919599999999998  1.0000
  C   C92       1.0  0.09967999999999996  0.31763  0.75924  1.0000
  C   C93       1.0  0.4383399999999998  0.2855699999999999  0.7222399999999998  1.0000
  C   C94       1.0  0.40075999999999995  0.28841999999999995  0.6514399999999999  1.0000
  C   C95       1.0  0.06795000000000002  0.29762  0.61677  1.0000
  C   C96       1.0  0.36743  0.30361  0.58727  1.0000
  C   C97       1.0  0.32985  0.2926299999999999  0.5864099999999998  1.0000
  C   C98       1.0  0.3276299999999998  0.27827999999999997  0.6182099999999998  1.0000
  O   O65       1.0  0.29106  0.26747  0.61841  1.0000
  C   C99       1.0  0.2829299999999999  0.3017399999999999  0.6469699999999998  1.0000
  C   C100      1.0  0.3631599999999999  0.27642999999999995  0.6510999999999998  1.0000
  H   H63       1.0  0.48305  0.29198  0.65688  1.0000
  H   H64       1.0  0.48056  0.22126  0.63778  1.0000
  H   H65       1.0  0.10225999999999995  0.2539199999999999  0.8141899999999997  1.0000
  H   H66       1.0  0.10979000000000001  0.32556999999999997  0.82545  1.0000
  H   H67       1.0  0.09691999999999991  0.3098299999999999  0.6205299999999998  1.0000
  H   H68       1.0  0.30344  0.2993  0.56506  1.0000
  H   H69       1.0  0.25372  0.2927799999999999  0.6475199999999998  1.0000
  H   H70       1.0  0.30628  0.3139299999999999  0.6829699999999997  1.0000
  H   H71       1.0  0.27981  0.32525  0.63338  1.0000
  H   H72       1.0  0.36098  0.26703  0.67666  1.0000
  C   C101      1.0  0.22884999999999991  0.08204999999999991  0.6961799999999998  1.0000
  C   C102      1.0  0.28052999999999995  0.08504999999999986  0.6694899999999998  1.0000
  C   C103      1.0  0.29516000000000003  0.09138999999999996  0.6387399999999999  1.0000
  C   C104      1.0  0.26227  0.42356999999999995  0.59891  1.0000
  C   C105      1.0  0.2202  0.42109  0.59215  1.0000
  C   C106      1.0  0.20514  0.08975  0.62486  1.0000
  C   C107      1.0  0.23720000000000002  0.08442000000000001  0.66186  1.0000
  C   C108      1.0  0.23432999999999998  0.1219999999999999  0.7326599999999998  1.0000
  C   C109      1.0  0.2251299999999999  0.12146999999999991  0.7673199999999998  1.0000
  C   C110      1.0  0.21913999999999983  0.1553199999999999  0.7968199999999998  1.0000
  C   C111      1.0  0.23013  0.19291000000000003  0.7977  1.0000
  C   C112      1.0  0.24448000000000003  0.19512999999999997  0.76589  1.0000
  O   O66       1.0  0.25529  0.2317  0.7657  1.0000
  C   C113      1.0  0.22103  0.23984  0.73714  1.0000
  C   C114      1.0  0.24633999999999998  0.15961  0.73301  1.0000
  H   H73       1.0  0.30149999999999993  0.04221999999999992  0.7463499999999997  1.0000
  H   H74       1.0  0.26883999999999997  0.4205  0.56991  1.0000
  H   H75       1.0  0.19720000000000001  0.41298  0.55865  1.0000
  H   H76       1.0  0.21291  0.42583  0.76356  1.0000
  H   H77       1.0  0.22345999999999996  0.21931999999999993  0.8190499999999997  1.0000
  H   H78       1.0  0.22998999999999997  0.26905999999999997  0.7365899999999999  1.0000
  H   H79       1.0  0.20884000000000008  0.21649  0.70114  1.0000
  H   H80       1.0  0.19751999999999997  0.24295999999999993  0.7507299999999998  1.0000
  H   H81       1.0  0.25573  0.16179  0.70746  1.0000
  C   C115      1.0  0.09831999999999994  0.17319999999999988  0.8983399999999998  1.0000
  Ni  Ni10      1.0  0.07944999999999992  0.1099799999999999  0.8170599999999998  1.0000
  Ni  Ni11      1.0  0.08932000000000002  0.09046000000000001  0.88917  1.0000
  Ni  Ni12      1.0  0.09893999999999992  0.10011999999999989  0.9949299999999999  1.0000
  H   H82       1.0  0.1492  0.07796999999999998  0.9395499999999999  1.0000
  C   C116      1.0  0.3495599999999999  0.4244599999999999  0.9857799999999998  1.0000
  H   H83       1.0  0.44472000000000006  0.37355  0.94452  1.0000
  C   C117      1.0  0.18534000000000003  0.1465  0.0562  1.0000
  H   H84       1.0  0.07771  0.1492  0.03379  1.0000
  C   C118      1.0  0.0429199999999999  0.33739999999999987  0.8278799999999997  1.0000
  H   H85       1.0  0.37358  0.44506  0.85032  1.0000
  C   C119      1.0  0.42927  0.36546999999999996  0.01761  1.0000
  H   H86       1.0  0.40028  0.3684999999999999  0.9332499999999998  1.0000
  H   H87       1.0  0.15427999999999992  0.12241999999999992  0.9508099999999998  1.0000
  C   C120      1.0  0.1573  0.09347999999999988  0.8664799999999998  1.0000
  O   O67       1.0  0.32446999999999987  0.045659999999999944  0.8465299999999998  1.0000
  O   O68       1.0  0.37564  0.09937000000000001  0.90699  1.0000
  O   O69       1.0  0.14375  0.19829  0.03755  1.0000
  O   O70       1.0  0.09001999999999999  0.14712999999999996  0.9771  1.0000
  H   H88       1.0  0.3669299999999998  0.40183999999999986  0.8205999999999998  1.0000
  O   O71       1.0  0.08215999999999993  0.1612499999999999  0.8540399999999998  1.0000
  O   O72       1.0  0.10824999999999993  0.1461299999999999  0.9143199999999998  1.0000
  O   O73       1.0  0.36152  0.10728999999999997  0.03009  1.0000
  O   O74       1.0  0.37662  0.4145299999999999  0.9697999999999998  1.0000
  O   O75       1.0  0.18598  0.16762999999999997  0.09665999999999997  1.0000
  H   H89       1.0  0.12092000000000001  0.15584  0.0635  1.0000
  O   O76       1.0  0.15383000000000002  0.11923  0.019099999999999992  1.0000
  O   O77       1.0  0.021790000000000035  0.33677  0.78743  1.0000
  O   O78       1.0  0.07020999999999994  0.36890999999999996  0.8649799999999999  1.0000
  O   O79       1.0  0.07221000000000001  0.38561  0.03312999999999999  1.0000
  O   O80       1.0  0.45077  0.39178  0.013379999999999996  1.0000
  O   O81       1.0  0.13715999999999995  0.1172099999999999  0.8509699999999998  1.0000
  O   O82       1.0  0.13099  0.07197999999999999  0.8706999999999999  1.0000
  O   O83       1.0  0.13297999999999993  0.09901999999999993  0.9415699999999998  1.0000
  O   O84       1.0  0.4236899999999999  0.3897999999999999  0.9424999999999998  1.0000
  O   O85       1.0  0.09803  0.13355  0.042329999999999986  1.0000
  O   O86       1.0  0.38923  0.42473  0.84178  1.0000
  C   C121      1.0  0.11025000000000001  0.18812  0.00115  1.0000
  C   C122      1.0  0.4407099999999998  0.2939099999999999  0.9379199999999998  1.0000
  C   C123      1.0  0.46934999999999993  0.2779899999999999  0.9224299999999998  1.0000
  C   C124      1.0  0.46821  0.23745999999999995  0.9115799999999998  1.0000
  C   C125      1.0  0.44751  0.21741  0.92765  1.0000
  C   C126      1.0  0.10436999999999992  0.2422299999999999  0.9646199999999998  1.0000
  C   C127      1.0  0.09802999999999994  0.22761  0.9953599999999998  1.0000
  C   C128      1.0  0.09918999999999999  0.2605  0.03519  1.0000
  C   C129      1.0  0.10166  0.30257  0.04195  1.0000
  C   C130      1.0  0.09968  0.31763  0.009239999999999998  1.0000
  C   C131      1.0  0.43833999999999995  0.28556999999999994  0.97224  1.0000
  C   C132      1.0  0.40075999999999995  0.28841999999999995  0.9014399999999998  1.0000
  C   C133      1.0  0.0679499999999999  0.2976199999999999  0.8667699999999998  1.0000
  C   C134      1.0  0.36743  0.30359999999999987  0.8372599999999998  1.0000
  C   C135      1.0  0.32985  0.2926299999999999  0.8363999999999998  1.0000
  C   C136      1.0  0.32763  0.27828  0.86821  1.0000
  O   O87       1.0  0.29106  0.26747  0.86841  1.0000
  C   C137      1.0  0.28292999999999996  0.3017399999999999  0.8969699999999998  1.0000
  C   C138      1.0  0.3631599999999999  0.27642999999999995  0.9010899999999997  1.0000
  H   H90       1.0  0.48304999999999987  0.2919799999999999  0.9068799999999998  1.0000
  H   H91       1.0  0.48056  0.22126  0.88779  1.0000
  H   H92       1.0  0.10225000000000002  0.25392  0.06418  1.0000
  H   H93       1.0  0.10978  0.32556999999999997  0.07545  1.0000
  H   H94       1.0  0.09692  0.30982999999999994  0.87052  1.0000
  H   H95       1.0  0.30343999999999993  0.2992999999999999  0.8150499999999999  1.0000
  H   H96       1.0  0.25372  0.29278999999999994  0.8975199999999998  1.0000
  H   H97       1.0  0.30628  0.31392999999999993  0.9329599999999998  1.0000
  H   H98       1.0  0.27982  0.32524999999999993  0.8833699999999999  1.0000
  H   H99       1.0  0.36098  0.26704  0.92665  1.0000
  C   C139      1.0  0.22884999999999997  0.08204999999999989  0.9461799999999998  1.0000
  C   C140      1.0  0.2805299999999999  0.0850499999999999  0.9194899999999998  1.0000
  C   C141      1.0  0.29516000000000003  0.09137999999999996  0.8887399999999998  1.0000
  C   C142      1.0  0.26227  0.4235599999999999  0.8489099999999998  1.0000
  C   C143      1.0  0.2201999999999999  0.42108999999999996  0.8421399999999998  1.0000
  C   C144      1.0  0.20514  0.08974000000000003  0.87486  1.0000
  C   C145      1.0  0.23720000000000008  0.08441999999999998  0.91186  1.0000
  C   C146      1.0  0.23432999999999993  0.12199999999999996  0.9826599999999998  1.0000
  C   C147      1.0  0.22512000000000001  0.12146999999999998  0.01731  1.0000
  C   C148      1.0  0.21914  0.15532  0.04682  1.0000
  C   C149      1.0  0.23013  0.19291  0.04769  1.0000
  C   C150      1.0  0.24448000000000003  0.19512999999999997  0.015889999999999998  1.0000
  O   O88       1.0  0.2553  0.2317  0.0157  1.0000
  C   C151      1.0  0.22103999999999988  0.23983999999999994  0.9871399999999998  1.0000
  C   C152      1.0  0.2463399999999999  0.15959999999999994  0.9830099999999998  1.0000
  H   H100      1.0  0.3014999999999999  0.04221999999999992  0.9963499999999997  1.0000
  H   H101      1.0  0.26883999999999986  0.42048999999999986  0.8199099999999998  1.0000
  H   H102      1.0  0.19720000000000004  0.41297000000000006  0.80865  1.0000
  H   H103      1.0  0.21291  0.42583  0.01356  1.0000
  H   H104      1.0  0.22346000000000002  0.21932999999999997  0.06904  1.0000
  H   H105      1.0  0.22999999999999993  0.2690599999999999  0.9865899999999997  1.0000
  H   H106      1.0  0.20884999999999998  0.21648999999999993  0.9511399999999998  1.0000
  H   H107      1.0  0.19752000000000006  0.24296  0.0007199999999999998  1.0000
  H   H108      1.0  0.2557400000000001  0.16179000000000004  0.95745  1.0000
  C   C153      1.0  0.09831  0.50654  0.14833  1.0000
  Ni  Ni13      1.0  0.07945  0.44332  0.06704999999999997  1.0000
  Ni  Ni14      1.0  0.08931999999999998  0.42381  0.13916999999999996  1.0000
  Ni  Ni15      1.0  0.09895000000000001  0.43345  0.24493  1.0000
  H   H109      1.0  0.14919999999999997  0.41135  0.18956999999999993  1.0000
  C   C154      1.0  0.3495599999999999  0.7577899999999999  0.23577999999999993  1.0000
  H   H110      1.0  0.44473  0.70689  0.19452  1.0000
  C   C155      1.0  0.18535000000000001  0.47984  0.30621  1.0000
  H   H111      1.0  0.07771  0.48252999999999996  0.28378  1.0000
  C   C156      1.0  0.042919999999999986  0.67074  0.07788999999999997  1.0000
  H   H112      1.0  0.37358  0.77839  0.10031999999999998  1.0000
  C   C157      1.0  0.42928  0.6988  0.26761  1.0000
  H   H113      1.0  0.40029  0.70183  0.18326  1.0000
  H   H114      1.0  0.15426  0.4558  0.20082999999999995  1.0000
  C   C158      1.0  0.15730000000000005  0.42682  0.11648999999999997  1.0000
  O   O89       1.0  0.32447  0.37901  0.09653999999999999  1.0000
  O   O90       1.0  0.37564  0.43272  0.15699  1.0000
  O   O91       1.0  0.14376  0.53163  0.28755  1.0000
  O   O92       1.0  0.09003999999999995  0.48045999999999994  0.22710999999999995  1.0000
  H   H115      1.0  0.36692999999999987  0.7351799999999998  0.07060999999999998  1.0000
  O   O93       1.0  0.08215  0.49457999999999996  0.10402  1.0000
  O   O94       1.0  0.10824  0.47947999999999996  0.16431  1.0000
  O   O95       1.0  0.36151999999999995  0.44061999999999996  0.28008  1.0000
  O   O96       1.0  0.37662000000000007  0.74786  0.21979999999999994  1.0000
  O   O97       1.0  0.18597999999999995  0.50097  0.34666999999999987  1.0000
  H   H116      1.0  0.12091999999999999  0.48917000000000005  0.3134999999999999  1.0000
  O   O98       1.0  0.15384  0.45255999999999996  0.2691099999999999  1.0000
  O   O99       1.0  0.02179  0.67011  0.03742999999999999  1.0000
  O   O100      1.0  0.07019999999999998  0.70225  0.11497999999999997  1.0000
  O   O101      1.0  0.07220999999999998  0.71895  0.28312999999999994  1.0000
  O   O102      1.0  0.45077  0.7251200000000001  0.26339  1.0000
  O   O103      1.0  0.13715  0.45055  0.10096999999999998  1.0000
  O   O104      1.0  0.13098  0.40532  0.12070999999999998  1.0000
  O   O105      1.0  0.13296999999999998  0.43238  0.19158999999999998  1.0000
  O   O106      1.0  0.4237  0.72313  0.19251  1.0000
  C   C159      1.0  0.33465000000000006  0.4125  0.13295  1.0000
  O   O107      1.0  0.09802999999999998  0.4668800000000001  0.29231999999999997  1.0000
  O   O108      1.0  0.38922  0.75806  0.09177999999999997  1.0000
  C   C160      1.0  0.11026  0.52145  0.25115  1.0000
  C   C161      1.0  0.44071000000000005  0.62725  0.18792  1.0000
  C   C162      1.0  0.46935000000000004  0.61133  0.17242999999999994  1.0000
  C   C163      1.0  0.46820000000000006  0.5708  0.16157  1.0000
  C   C164      1.0  0.4475  0.55075  0.17764  1.0000
  C   C165      1.0  0.10437999999999999  0.5755699999999999  0.21461999999999995  1.0000
  C   C166      1.0  0.09803999999999999  0.56094  0.24535999999999994  1.0000
  C   C167      1.0  0.09919999999999998  0.5938299999999999  0.2851899999999999  1.0000
  C   C168      1.0  0.10166999999999998  0.63591  0.29196  1.0000
  C   C169      1.0  0.09968  0.65096  0.25924  1.0000
  C   C170      1.0  0.43833999999999995  0.61891  0.22223999999999994  1.0000
  C   C171      1.0  0.40075999999999995  0.62176  0.15143999999999994  1.0000
  C   C172      1.0  0.06794  0.63096  0.11677  1.0000
  C   C173      1.0  0.36743  0.63694  0.08727  1.0000
  C   C174      1.0  0.32985  0.62597  0.08639999999999998  1.0000
  C   C175      1.0  0.32763  0.61162  0.11820999999999997  1.0000
  O   O109      1.0  0.29106  0.60081  0.11840999999999997  1.0000
  C   C176      1.0  0.28293  0.63508  0.14697  1.0000
  C   C177      1.0  0.36316  0.60977  0.1511  1.0000
  H   H117      1.0  0.48305  0.62532  0.15687999999999994  1.0000
  H   H118      1.0  0.48055000000000003  0.5546  0.13777  1.0000
  H   H119      1.0  0.10226999999999997  0.58726  0.3141899999999999  1.0000
  H   H120      1.0  0.10978999999999996  0.6589  0.3254499999999999  1.0000
  H   H121      1.0  0.09692  0.64317  0.12052  1.0000
  H   H122      1.0  0.30344  0.63264  0.06505  1.0000
  H   H123      1.0  0.25371  0.6261199999999999  0.14751999999999998  1.0000
  H   H124      1.0  0.30628000000000005  0.64726  0.18295999999999996  1.0000
  H   H125      1.0  0.27981  0.65859  0.13338  1.0000
  H   H126      1.0  0.36098  0.60037  0.17666  1.0000
  C   C178      1.0  0.22884999999999997  0.41539  0.19617999999999994  1.0000
  C   C179      1.0  0.24478  0.38674  0.21167  1.0000
  C   C180      1.0  0.28531000000000006  0.3879  0.22253  1.0000
  C   C181      1.0  0.30535  0.4086099999999999  0.20645999999999995  1.0000
  C   C182      1.0  0.28053  0.41839  0.16949  1.0000
  C   C183      1.0  0.29516000000000003  0.42473  0.13874  1.0000
  C   C184      1.0  0.26227  0.7569  0.09891  1.0000
  C   C185      1.0  0.2202  0.75443  0.09215  1.0000
  C   C186      1.0  0.20514  0.42308  0.12486  1.0000
  C   C187      1.0  0.2371999999999999  0.41776  0.16185999999999995  1.0000
  C   C188      1.0  0.23433  0.45533  0.23265999999999995  1.0000
  C   C189      1.0  0.22513  0.45480999999999994  0.26732  1.0000
  C   C190      1.0  0.21915  0.48866  0.29682999999999987  1.0000
  C   C191      1.0  0.23013  0.52624  0.2977  1.0000
  C   C192      1.0  0.24447999999999998  0.52847  0.26588999999999996  1.0000
  O   O110      1.0  0.25529  0.56504  0.2657  1.0000
  C   C193      1.0  0.22102000000000002  0.57317  0.23713999999999993  1.0000
  C   C194      1.0  0.24633  0.49294  0.23300999999999997  1.0000
  H   H127      1.0  0.23079  0.37304  0.22722999999999993  1.0000
  H   H128      1.0  0.30151  0.37554999999999994  0.24633999999999998  1.0000
  H   H129      1.0  0.26883999999999997  0.75384  0.06990999999999999  1.0000
  H   H130      1.0  0.19720000000000001  0.74632  0.05864999999999999  1.0000
  H   H131      1.0  0.21290999999999996  0.7591599999999998  0.26355999999999996  1.0000
  H   H132      1.0  0.22346000000000005  0.5526599999999999  0.31905  1.0000
  H   H133      1.0  0.22998  0.6023899999999999  0.23659  1.0000
  H   H134      1.0  0.20883  0.54982  0.20114999999999994  1.0000
  H   H135      1.0  0.19751  0.57629  0.25073  1.0000
  H   H136      1.0  0.25573  0.49513  0.20745  1.0000
  C   C195      1.0  0.09831999999999995  0.50654  0.39832999999999996  1.0000
  Ni  Ni16      1.0  0.07945000000000006  0.44332  0.31705  1.0000
  Ni  Ni17      1.0  0.08931999999999998  0.4238  0.38917  1.0000
  Ni  Ni18      1.0  0.09894999999999995  0.43345  0.49492999999999987  1.0000
  H   H137      1.0  0.14919999999999997  0.41133999999999993  0.4395699999999999  1.0000
  C   C196      1.0  0.3495599999999999  0.7577899999999999  0.4857799999999999  1.0000
  H   H138      1.0  0.44473  0.70689  0.4445199999999999  1.0000
  C   C197      1.0  0.18535000000000001  0.47984  0.55621  1.0000
  H   H139      1.0  0.07771000000000002  0.48252999999999996  0.53378  1.0000
  C   C198      1.0  0.04291999999999996  0.67074  0.3278799999999999  1.0000
  H   H140      1.0  0.37358  0.77839  0.35032  1.0000
  C   C199      1.0  0.42928  0.6988  0.51761  1.0000
  H   H141      1.0  0.4002899999999999  0.7018299999999998  0.43325999999999987  1.0000
  H   H142      1.0  0.15425999999999998  0.45579000000000003  0.4508299999999999  1.0000
  C   C200      1.0  0.15730000000000005  0.42682  0.36649  1.0000
  O   O111      1.0  0.3244699999999999  0.37899999999999995  0.3465399999999999  1.0000
  O   O112      1.0  0.37564  0.43272  0.4069899999999999  1.0000
  O   O113      1.0  0.14376  0.53163  0.53755  1.0000
  O   O114      1.0  0.09003999999999994  0.48045999999999994  0.4770999999999999  1.0000
  H   H143      1.0  0.3669299999999999  0.73518  0.3206  1.0000
  O   O115      1.0  0.08214999999999996  0.49457999999999996  0.3540299999999999  1.0000
  O   O116      1.0  0.10823999999999996  0.47947  0.4143099999999999  1.0000
  O   O117      1.0  0.36151999999999995  0.44061999999999996  0.5300799999999999  1.0000
  O   O118      1.0  0.37662000000000007  0.7478600000000001  0.4698  1.0000
  O   O119      1.0  0.18598  0.50097  0.59666  1.0000
  H   H144      1.0  0.12092000000000001  0.48917000000000005  0.5635  1.0000
  O   O120      1.0  0.15384  0.45255999999999996  0.51911  1.0000
  O   O121      1.0  0.021799999999999996  0.67011  0.28743  1.0000
  O   O122      1.0  0.07020000000000003  0.70225  0.36498  1.0000
  O   O123      1.0  0.07221000000000005  0.71895  0.53313  1.0000
  O   O124      1.0  0.4507699999999999  0.7251099999999999  0.5133799999999998  1.0000
  O   O125      1.0  0.13715  0.45055  0.35097  1.0000
  O   O126      1.0  0.13097999999999999  0.40532  0.3707099999999999  1.0000
  O   O127      1.0  0.13297  0.43238  0.44159  1.0000
  O   O128      1.0  0.4237  0.72313  0.4425  1.0000
  C   C201      1.0  0.33465000000000006  0.4125  0.38295  1.0000
  O   O129      1.0  0.09803  0.4668800000000001  0.54232  1.0000
  O   O130      1.0  0.38923  0.75806  0.34178  1.0000
  C   C202      1.0  0.11026  0.52145  0.50114  1.0000
  C   C203      1.0  0.4407099999999998  0.6272499999999999  0.43791999999999986  1.0000
  C   C204      1.0  0.46935000000000004  0.61133  0.42243  1.0000
  C   C205      1.0  0.46820000000000006  0.5708  0.41157  1.0000
  C   C206      1.0  0.4474999999999999  0.55075  0.4276399999999999  1.0000
  C   C207      1.0  0.10436999999999998  0.57557  0.46462  1.0000
  C   C208      1.0  0.09803999999999997  0.56094  0.4953599999999999  1.0000
  C   C209      1.0  0.09920000000000004  0.59383  0.53519  1.0000
  C   C210      1.0  0.10167000000000001  0.63591  0.54196  1.0000
  C   C211      1.0  0.09967999999999996  0.65096  0.5092399999999999  1.0000
  C   C212      1.0  0.4383399999999999  0.61891  0.47224  1.0000
  C   C213      1.0  0.40076  0.62176  0.40143999999999996  1.0000
  C   C214      1.0  0.06795  0.63095  0.36677  1.0000
  C   C215      1.0  0.36743  0.63694  0.33726  1.0000
  C   C216      1.0  0.32985  0.62596  0.33639999999999987  1.0000
  C   C217      1.0  0.32763  0.61162  0.36821  1.0000
  O   O131      1.0  0.29105999999999993  0.6008099999999998  0.3684099999999999  1.0000
  C   C218      1.0  0.28293  0.63508  0.3969699999999999  1.0000
  C   C219      1.0  0.36316  0.60977  0.40109  1.0000
  H   H145      1.0  0.48305  0.62532  0.40688  1.0000
  H   H146      1.0  0.48055000000000003  0.5546  0.38777  1.0000
  H   H147      1.0  0.10226  0.58726  0.5641799999999999  1.0000
  H   H148      1.0  0.10978  0.6589  0.57545  1.0000
  H   H149      1.0  0.09692000000000003  0.64316  0.37052  1.0000
  H   H150      1.0  0.30344  0.6326299999999999  0.3150499999999999  1.0000
  H   H151      1.0  0.25372  0.6261199999999999  0.3975199999999999  1.0000
  H   H152      1.0  0.30628000000000005  0.6472699999999999  0.4329599999999999  1.0000
  H   H153      1.0  0.27981  0.65859  0.38337  1.0000
  H   H154      1.0  0.36098  0.60038  0.4266599999999999  1.0000
  C   C220      1.0  0.22884999999999991  0.41539  0.4461799999999999  1.0000
  C   C221      1.0  0.24478  0.38674  0.46167  1.0000
  C   C222      1.0  0.28531000000000006  0.3879  0.47253  1.0000
  C   C223      1.0  0.30535  0.4086099999999999  0.45647  1.0000
  C   C224      1.0  0.28052999999999995  0.41839  0.41948999999999986  1.0000
  C   C225      1.0  0.29516000000000003  0.42473  0.3887399999999999  1.0000
  C   C226      1.0  0.26227  0.7569  0.34891  1.0000
  C   C227      1.0  0.22019999999999995  0.7544199999999999  0.3421399999999999  1.0000
  C   C228      1.0  0.20513999999999993  0.4230799999999999  0.3748599999999999  1.0000
  C   C229      1.0  0.2371999999999999  0.41776  0.4118599999999999  1.0000
  C   C230      1.0  0.23433  0.45533  0.48265999999999987  1.0000
  C   C231      1.0  0.22513  0.45480999999999994  0.51732  1.0000
  C   C232      1.0  0.21914  0.48866  0.54683  1.0000
  C   C233      1.0  0.23013  0.52624  0.5477  1.0000
  C   C234      1.0  0.24448000000000003  0.52847  0.51589  1.0000
  O   O132      1.0  0.25529  0.56504  0.5157  1.0000
  C   C235      1.0  0.22102000000000002  0.57317  0.48714  1.0000
  C   C236      1.0  0.24633  0.49294  0.48301  1.0000
  H   H155      1.0  0.23078999999999994  0.37304  0.4772299999999999  1.0000
  H   H156      1.0  0.3015  0.37555  0.49634  1.0000
  H   H157      1.0  0.26884  0.75383  0.31991  1.0000
  H   H158      1.0  0.19720000000000001  0.74631  0.30865  1.0000
  H   H159      1.0  0.21291  0.7591599999999998  0.51356  1.0000
  H   H160      1.0  0.22345999999999996  0.5526599999999999  0.5690499999999997  1.0000
  H   H161      1.0  0.2299799999999999  0.6023899999999999  0.4865899999999999  1.0000
  H   H162      1.0  0.20884000000000005  0.54982  0.45114  1.0000
  H   H163      1.0  0.19751  0.57629  0.50073  1.0000
  H   H164      1.0  0.25573  0.49513  0.4574499999999999  1.0000
  C   C237      1.0  0.09832000000000005  0.50654  0.64833  1.0000
  Ni  Ni19      1.0  0.07945  0.44332  0.5670499999999999  1.0000
  Ni  Ni20      1.0  0.08931999999999995  0.42380999999999985  0.6391699999999998  1.0000
  Ni  Ni21      1.0  0.09895000000000004  0.43345  0.74493  1.0000
  H   H165      1.0  0.14920000000000005  0.41135  0.68957  1.0000
  C   C238      1.0  0.3495599999999999  0.7577899999999999  0.7357799999999998  1.0000
  H   H166      1.0  0.44473  0.70689  0.69452  1.0000
  C   C239      1.0  0.18535  0.47984  0.8062099999999998  1.0000
  H   H167      1.0  0.07770999999999997  0.48252999999999996  0.78378  1.0000
  C   C240      1.0  0.04291999999999991  0.67074  0.5778899999999998  1.0000
  H   H168      1.0  0.37358  0.77839  0.60032  1.0000
  C   C241      1.0  0.42928  0.6987999999999999  0.7676099999999998  1.0000
  H   H169      1.0  0.4002899999999999  0.7018299999999998  0.6832599999999999  1.0000
  H   H170      1.0  0.15425999999999995  0.45579000000000003  0.7008299999999997  1.0000
  C   C242      1.0  0.15730000000000005  0.42682  0.61649  1.0000
  O   O133      1.0  0.3244699999999999  0.37899999999999995  0.5965399999999998  1.0000
  O   O134      1.0  0.37564  0.43272  0.65699  1.0000
  O   O135      1.0  0.14375999999999992  0.5316299999999999  0.7875499999999998  1.0000
  O   O136      1.0  0.09003999999999994  0.48045999999999994  0.7271  1.0000
  H   H171      1.0  0.3669299999999998  0.73518  0.5705999999999998  1.0000
  O   O137      1.0  0.08214999999999996  0.49457999999999996  0.6040299999999997  1.0000
  O   O138      1.0  0.10823999999999996  0.47947  0.6643099999999997  1.0000
  O   O139      1.0  0.36151999999999995  0.4406199999999999  0.7800799999999999  1.0000
  O   O140      1.0  0.37662000000000007  0.7478599999999999  0.7198  1.0000
  O   O141      1.0  0.18598  0.50097  0.84667  1.0000
  H   H172      1.0  0.12092000000000001  0.48917000000000005  0.8135  1.0000
  O   O142      1.0  0.15384  0.4525599999999999  0.7691099999999997  1.0000
  O   O143      1.0  0.021799999999999917  0.6701099999999999  0.5374299999999997  1.0000
  O   O144      1.0  0.07020000000000003  0.70225  0.61498  1.0000
  O   O145      1.0  0.07220999999999991  0.7189499999999999  0.7831299999999998  1.0000
  O   O146      1.0  0.45076999999999984  0.7251099999999998  0.7633899999999998  1.0000
  O   O147      1.0  0.13715000000000002  0.45055  0.60097  1.0000
  O   O148      1.0  0.13099000000000005  0.40532  0.62071  1.0000
  O   O149      1.0  0.13296999999999998  0.43238  0.69159  1.0000
  O   O150      1.0  0.42369999999999997  0.72313  0.6925099999999997  1.0000
  C   C243      1.0  0.33465  0.41249999999999987  0.6329499999999998  1.0000
  O   O151      1.0  0.09804000000000002  0.4668800000000001  0.79232  1.0000
  O   O152      1.0  0.38923  0.75806  0.59178  1.0000
  C   C244      1.0  0.11026  0.52145  0.75115  1.0000
  C   C245      1.0  0.44070999999999994  0.62725  0.6879199999999999  1.0000
  C   C246      1.0  0.46935000000000004  0.61133  0.67243  1.0000
  C   C247      1.0  0.46819999999999984  0.5708  0.66157  1.0000
  C   C248      1.0  0.4475  0.55075  0.67764  1.0000
  C   C249      1.0  0.10437999999999999  0.57557  0.71462  1.0000
  C   C250      1.0  0.09803999999999995  0.56094  0.7453599999999998  1.0000
  C   C251      1.0  0.09919999999999993  0.5938299999999999  0.7851899999999998  1.0000
  C   C252      1.0  0.10167999999999992  0.63591  0.7919599999999998  1.0000
  C   C253      1.0  0.09967999999999996  0.65096  0.75924  1.0000
  C   C254      1.0  0.4383399999999999  0.61891  0.7222399999999998  1.0000
  C   C255      1.0  0.40075999999999995  0.62176  0.6514399999999999  1.0000
  C   C256      1.0  0.06795000000000001  0.63095  0.61677  1.0000
  C   C257      1.0  0.36743  0.63694  0.58726  1.0000
  C   C258      1.0  0.32985  0.62596  0.5863999999999998  1.0000
  C   C259      1.0  0.3276299999999998  0.6116199999999999  0.6182099999999998  1.0000
  O   O153      1.0  0.29106  0.60081  0.61841  1.0000
  C   C260      1.0  0.2829299999999999  0.6350799999999998  0.6469699999999998  1.0000
  C   C261      1.0  0.3631599999999999  0.60977  0.6510899999999997  1.0000
  H   H173      1.0  0.48305  0.62532  0.65688  1.0000
  H   H174      1.0  0.48055000000000003  0.5546  0.63777  1.0000
  H   H175      1.0  0.10226999999999994  0.58726  0.8141899999999997  1.0000
  H   H176      1.0  0.10979000000000001  0.6589  0.82545  1.0000
  H   H177      1.0  0.09691999999999994  0.64316  0.6205199999999997  1.0000
  H   H178      1.0  0.30344  0.63264  0.56505  1.0000
  H   H179      1.0  0.25372  0.6261199999999999  0.6475199999999998  1.0000
  H   H180      1.0  0.30628000000000005  0.64727  0.6829599999999998  1.0000
  H   H181      1.0  0.27981  0.65859  0.63338  1.0000
  H   H182      1.0  0.36098  0.60037  0.67666  1.0000
  C   C262      1.0  0.22884999999999991  0.4153899999999998  0.6961799999999998  1.0000
  C   C263      1.0  0.24477999999999991  0.38673999999999986  0.7116699999999998  1.0000
  C   C264      1.0  0.2853099999999999  0.3878999999999999  0.7225299999999998  1.0000
  C   C265      1.0  0.3053499999999999  0.40860999999999986  0.7064699999999998  1.0000
  C   C266      1.0  0.28052999999999995  0.4183899999999999  0.6694899999999998  1.0000
  C   C267      1.0  0.29516000000000003  0.4247299999999999  0.6387399999999999  1.0000
  C   C268      1.0  0.26227  0.7569  0.59891  1.0000
  C   C269      1.0  0.22019999999999995  0.75442  0.5921399999999999  1.0000
  C   C270      1.0  0.20514  0.42308  0.62486  1.0000
  C   C271      1.0  0.23720000000000002  0.41776  0.66186  1.0000
  C   C272      1.0  0.23432999999999993  0.45533  0.7326599999999998  1.0000
  C   C273      1.0  0.2251299999999999  0.4548099999999998  0.7673199999999998  1.0000
  C   C274      1.0  0.21915  0.48866  0.7968299999999998  1.0000
  C   C275      1.0  0.23013  0.52624  0.7977  1.0000
  C   C276      1.0  0.24448000000000003  0.52847  0.76589  1.0000
  O   O154      1.0  0.25529  0.56504  0.7657  1.0000
  C   C277      1.0  0.22102000000000002  0.57317  0.73714  1.0000
  C   C278      1.0  0.24633  0.49294  0.73301  1.0000
  H   H183      1.0  0.23078999999999988  0.37304  0.7272299999999998  1.0000
  H   H184      1.0  0.30150999999999983  0.3755499999999999  0.7463399999999998  1.0000
  H   H185      1.0  0.26884  0.75383  0.56991  1.0000
  H   H186      1.0  0.19720000000000001  0.74631  0.55865  1.0000
  H   H187      1.0  0.21291  0.7591599999999998  0.76356  1.0000
  H   H188      1.0  0.2234599999999999  0.5526599999999999  0.8190499999999997  1.0000
  H   H189      1.0  0.22996999999999998  0.6023899999999999  0.7365899999999999  1.0000
  H   H190      1.0  0.20883000000000004  0.54982  0.70114  1.0000
  H   H191      1.0  0.19750999999999994  0.5762899999999999  0.7507299999999998  1.0000
  H   H192      1.0  0.25573  0.49513  0.70745  1.0000
  C   C279      1.0  0.09831999999999995  0.5065299999999999  0.8983299999999997  1.0000
  Ni  Ni22      1.0  0.07944999999999997  0.44332  0.8170499999999998  1.0000
  Ni  Ni23      1.0  0.08931999999999998  0.4238  0.88917  1.0000
  Ni  Ni24      1.0  0.09894999999999997  0.4334499999999999  0.9949299999999999  1.0000
  H   H193      1.0  0.14920000000000003  0.41134  0.93956  1.0000
  C   C280      1.0  0.3495599999999999  0.7577899999999999  0.9857799999999998  1.0000
  H   H194      1.0  0.44472000000000006  0.70688  0.94451  1.0000
  C   C281      1.0  0.18535000000000001  0.47984  0.0562  1.0000
  H   H195      1.0  0.07771  0.48252999999999996  0.03378  1.0000
  C   C282      1.0  0.04291999999999992  0.67073  0.8278799999999997  1.0000
  H   H196      1.0  0.37358  0.77839  0.85032  1.0000
  C   C283      1.0  0.42927  0.6988  0.01761  1.0000
  H   H197      1.0  0.40028  0.7018399999999998  0.9332499999999998  1.0000
  H   H198      1.0  0.15426999999999993  0.45577999999999985  0.9508199999999998  1.0000
  C   C284      1.0  0.1573  0.42681999999999987  0.8664799999999998  1.0000
  O   O155      1.0  0.32446999999999987  0.37899999999999995  0.8465299999999998  1.0000
  O   O156      1.0  0.37564  0.43272  0.90699  1.0000
  O   O157      1.0  0.14376  0.53163  0.03755  1.0000
  O   O158      1.0  0.09002999999999997  0.48045999999999994  0.9771  1.0000
  H   H199      1.0  0.3669299999999998  0.73518  0.8205999999999998  1.0000
  O   O159      1.0  0.08215999999999994  0.4945799999999999  0.8540299999999997  1.0000
  O   O160      1.0  0.10823999999999993  0.47947  0.9143099999999997  1.0000
  O   O161      1.0  0.36152  0.44061999999999996  0.030079999999999992  1.0000
  O   O162      1.0  0.37662  0.7478599999999999  0.9697999999999998  1.0000
  O   O163      1.0  0.18598  0.50097  0.09665999999999997  1.0000
  H   H200      1.0  0.12092000000000001  0.48917000000000005  0.06349  1.0000
  O   O164      1.0  0.15384  0.45255999999999996  0.01910999999999999  1.0000
  O   O165      1.0  0.021790000000000035  0.67011  0.78743  1.0000
  O   O166      1.0  0.07020999999999994  0.70224  0.8649799999999999  1.0000
  O   O167      1.0  0.07221000000000001  0.71895  0.03312999999999999  1.0000
  O   O168      1.0  0.45077  0.72512  0.013379999999999996  1.0000
  O   O169      1.0  0.13714999999999994  0.45055  0.8509699999999998  1.0000
  O   O170      1.0  0.13099  0.40532  0.87071  1.0000
  O   O171      1.0  0.13296999999999998  0.43236999999999987  0.9415799999999998  1.0000
  O   O172      1.0  0.4236899999999999  0.72313  0.9424999999999998  1.0000
  C   C285      1.0  0.33465000000000006  0.41249  0.88295  1.0000
  O   O173      1.0  0.09803  0.4668800000000001  0.04232  1.0000
  O   O174      1.0  0.38923  0.75806  0.84178  1.0000
  C   C286      1.0  0.11026  0.52145  0.00114  1.0000
  C   C287      1.0  0.4407099999999998  0.62725  0.9379199999999998  1.0000
  C   C288      1.0  0.4693499999999998  0.6113299999999999  0.9224299999999998  1.0000
  C   C289      1.0  0.46820000000000006  0.57079  0.9115799999999998  1.0000
  C   C290      1.0  0.4474999999999999  0.5507499999999999  0.9276399999999999  1.0000
  C   C291      1.0  0.10436999999999994  0.57557  0.9646099999999997  1.0000
  C   C292      1.0  0.09802999999999994  0.56094  0.9953599999999998  1.0000
  C   C293      1.0  0.09919000000000003  0.59383  0.03519  1.0000
  C   C294      1.0  0.10166999999999998  0.63591  0.04195  1.0000
  C   C295      1.0  0.09968  0.65096  0.009239999999999998  1.0000
  C   C296      1.0  0.43833  0.61891  0.97224  1.0000
  C   C297      1.0  0.40075999999999995  0.62176  0.9014399999999998  1.0000
  C   C298      1.0  0.06794999999999991  0.63095  0.8667699999999998  1.0000
  C   C299      1.0  0.36743  0.63694  0.8372599999999998  1.0000
  C   C300      1.0  0.32985  0.62596  0.8363999999999998  1.0000
  C   C301      1.0  0.32763  0.61162  0.86821  1.0000
  O   O175      1.0  0.29106  0.60081  0.8684  1.0000
  C   C302      1.0  0.2829299999999999  0.6350799999999999  0.8969599999999998  1.0000
  C   C303      1.0  0.36314999999999986  0.60977  0.9010899999999997  1.0000
  H   H201      1.0  0.48304999999999987  0.62532  0.9068799999999998  1.0000
  H   H202      1.0  0.48056  0.5546  0.8877799999999999  1.0000
  H   H203      1.0  0.10226  0.58726  0.06418  1.0000
  H   H204      1.0  0.10978  0.6589  0.07545  1.0000
  H   H205      1.0  0.09692000000000002  0.64316  0.87052  1.0000
  H   H206      1.0  0.30343999999999993  0.63263  0.8150499999999999  1.0000
  H   H207      1.0  0.25371999999999995  0.6261299999999999  0.8975099999999998  1.0000
  H   H208      1.0  0.30628000000000005  0.64727  0.9329599999999998  1.0000
  H   H209      1.0  0.27981  0.6585899999999999  0.8833699999999999  1.0000
  H   H210      1.0  0.36097  0.60038  0.92665  1.0000
  C   C304      1.0  0.22884999999999991  0.4153799999999999  0.9461799999999998  1.0000
  C   C305      1.0  0.24477999999999991  0.38673999999999986  0.9616699999999998  1.0000
  C   C306      1.0  0.2853099999999999  0.38789999999999997  0.9725399999999997  1.0000
  C   C307      1.0  0.30535  0.4086  0.95647  1.0000
  C   C308      1.0  0.2805299999999999  0.4183899999999999  0.9194799999999997  1.0000
  C   C309      1.0  0.29516  0.4247199999999999  0.8887299999999998  1.0000
  C   C310      1.0  0.26227  0.7568899999999998  0.8489099999999998  1.0000
  C   C311      1.0  0.2201999999999999  0.75442  0.8421399999999998  1.0000
  C   C312      1.0  0.20514  0.42308  0.87486  1.0000
  C   C313      1.0  0.23720000000000002  0.41776  0.91186  1.0000
  C   C314      1.0  0.23432999999999993  0.45533  0.9826599999999998  1.0000
  C   C315      1.0  0.22513  0.45480999999999994  0.01732  1.0000
  C   C316      1.0  0.21914  0.48866  0.04682  1.0000
  C   C317      1.0  0.23013  0.52624  0.04769  1.0000
  C   C318      1.0  0.24448000000000003  0.52847  0.015889999999999998  1.0000
  O   O176      1.0  0.25529  0.56504  0.0157  1.0000
  C   C319      1.0  0.2210299999999999  0.57317  0.9871399999999998  1.0000
  C   C320      1.0  0.2463299999999999  0.49294  0.9830099999999998  1.0000
  H   H211      1.0  0.23078999999999983  0.37303999999999987  0.9772199999999998  1.0000
  H   H212      1.0  0.30149999999999993  0.3755499999999999  0.9963399999999998  1.0000
  H   H213      1.0  0.26883999999999986  0.7538299999999999  0.8199099999999998  1.0000
  H   H214      1.0  0.19720000000000004  0.7463100000000001  0.80865  1.0000
  H   H215      1.0  0.21291  0.7591599999999998  0.013549999999999996  1.0000
  H   H216      1.0  0.22346000000000002  0.5526599999999999  0.06905  1.0000
  H   H217      1.0  0.2299799999999999  0.6023899999999999  0.9865899999999997  1.0000
  H   H218      1.0  0.20883999999999994  0.54982  0.9511399999999998  1.0000
  H   H219      1.0  0.19752000000000006  0.57629  0.00073  1.0000
  H   H220      1.0  0.25573  0.49511999999999995  0.95745  1.0000
  C   C321      1.0  0.09831  0.83987  0.14833  1.0000
  Ni  Ni25      1.0  0.07945  0.7766499999999998  0.06704999999999997  1.0000
  Ni  Ni26      1.0  0.08931999999999998  0.7571399999999999  0.13916999999999996  1.0000
  Ni  Ni27      1.0  0.09895000000000001  0.7667800000000001  0.24493  1.0000
  H   H221      1.0  0.14919999999999997  0.74469  0.18956999999999993  1.0000
  C   C322      1.0  0.18535000000000001  0.8131699999999998  0.30621  1.0000
  H   H222      1.0  0.07771  0.81586  0.28378  1.0000
  C   C323      1.0  0.04292  0.00406  0.07788  1.0000
  C   C324      1.0  0.42928  0.03214  0.26761  1.0000
  H   H223      1.0  0.40027  0.035169999999999986  0.18325  1.0000
  H   H224      1.0  0.15426  0.78913  0.20082999999999995  1.0000
  C   C325      1.0  0.15730000000000002  0.76015  0.11648999999999997  1.0000
  O   O177      1.0  0.32447  0.71234  0.09653999999999999  1.0000
  O   O178      1.0  0.37564  0.76606  0.15699  1.0000
  O   O179      1.0  0.14377  0.86496  0.28755  1.0000
  O   O180      1.0  0.09003999999999998  0.8137899999999999  0.22709999999999994  1.0000
  H   H225      1.0  0.3669299999999999  0.06851  0.07060999999999998  1.0000
  O   O181      1.0  0.08215  0.82792  0.10402  1.0000
  O   O182      1.0  0.10824  0.81281  0.1643  1.0000
  O   O183      1.0  0.36152  0.77395  0.28008  1.0000
  O   O184      1.0  0.18598  0.8343  0.3466599999999999  1.0000
  H   H226      1.0  0.12092000000000001  0.82251  0.31349  1.0000
  O   O185      1.0  0.15384  0.78589  0.2691099999999999  1.0000
  O   O186      1.0  0.02179  0.0034399999999999977  0.03742999999999999  1.0000
  O   O187      1.0  0.07021  0.035569999999999984  0.11497999999999997  1.0000
  O   O188      1.0  0.07222  0.052279999999999986  0.28312999999999994  1.0000
  O   O189      1.0  0.45077  0.05845  0.26339  1.0000
  O   O190      1.0  0.13715  0.78388  0.10096999999999998  1.0000
  O   O191      1.0  0.13098  0.73866  0.12070999999999998  1.0000
  O   O192      1.0  0.13296999999999998  0.76572  0.19158999999999998  1.0000
  C   C326      1.0  0.33465000000000006  0.74584  0.13295  1.0000
  O   O193      1.0  0.09803999999999999  0.80021  0.29231999999999997  1.0000
  C   C327      1.0  0.11027  0.85478  0.25114  1.0000
  C   C328      1.0  0.4407  0.96059  0.18792  1.0000
  C   C329      1.0  0.46935000000000004  0.9446699999999999  0.17244  1.0000
  C   C330      1.0  0.46820000000000006  0.90413  0.16157  1.0000
  C   C331      1.0  0.4475  0.8840799999999999  0.17764  1.0000
  C   C332      1.0  0.10437  0.9089  0.21460999999999994  1.0000
  C   C333      1.0  0.09803999999999999  0.89428  0.24535999999999994  1.0000
  C   C334      1.0  0.09920999999999999  0.92716  0.2851899999999999  1.0000
  C   C335      1.0  0.10168  0.96924  0.29196  1.0000
  C   C336      1.0  0.09968000000000003  0.9843000000000001  0.25924  1.0000
  C   C337      1.0  0.43833  0.95224  0.22223999999999994  1.0000
  C   C338      1.0  0.40075999999999995  0.95509  0.15143999999999994  1.0000
  C   C339      1.0  0.06794  0.96428  0.11675999999999997  1.0000
  C   C340      1.0  0.36743  0.97027  0.08726  1.0000
  C   C341      1.0  0.32985  0.9593  0.08639999999999998  1.0000
  C   C342      1.0  0.3276299999999999  0.94495  0.11820999999999997  1.0000
  O   O194      1.0  0.29106  0.9341400000000001  0.11840999999999997  1.0000
  C   C343      1.0  0.28293  0.9684199999999998  0.14697  1.0000
  C   C344      1.0  0.36315  0.9431  0.1511  1.0000
  H   H227      1.0  0.48305  0.95866  0.15688999999999995  1.0000
  H   H228      1.0  0.48055000000000003  0.8879399999999998  0.13777  1.0000
  H   H229      1.0  0.10227999999999998  0.92059  0.3141899999999999  1.0000
  H   H230      1.0  0.10978999999999996  0.99224  0.3254499999999999  1.0000
  H   H231      1.0  0.09690999999999998  0.97648  0.12050999999999998  1.0000
  H   H232      1.0  0.30343  0.96597  0.06505  1.0000
  H   H233      1.0  0.25370999999999994  0.95946  0.14751999999999998  1.0000
  H   H234      1.0  0.27981  0.9919299999999999  0.13338  1.0000
  H   H235      1.0  0.36097  0.9337199999999999  0.17666  1.0000
  C   C345      1.0  0.22884999999999997  0.7487199999999999  0.19617999999999994  1.0000
  C   C346      1.0  0.24478  0.72008  0.21167  1.0000
  C   C347      1.0  0.28530999999999995  0.72124  0.22253  1.0000
  C   C348      1.0  0.30535  0.7419399999999999  0.20645999999999995  1.0000
  C   C349      1.0  0.28053  0.75173  0.16948  1.0000
  C   C350      1.0  0.29516000000000003  0.75806  0.13874  1.0000
  C   C351      1.0  0.20514  0.75642  0.12486  1.0000
  C   C352      1.0  0.2371999999999999  0.7511  0.16185999999999995  1.0000
  C   C353      1.0  0.23433  0.78867  0.23265999999999995  1.0000
  C   C354      1.0  0.22513  0.78814  0.26732  1.0000
  C   C355      1.0  0.21914999999999993  0.8219899999999998  0.29682999999999987  1.0000
  C   C356      1.0  0.23013  0.85958  0.2977  1.0000
  C   C357      1.0  0.24447999999999998  0.8617999999999999  0.26588999999999996  1.0000
  O   O195      1.0  0.25529  0.8983699999999999  0.2657  1.0000
  C   C358      1.0  0.22102000000000002  0.90651  0.23713999999999993  1.0000
  C   C359      1.0  0.24632999999999997  0.82628  0.23300999999999997  1.0000
  H   H236      1.0  0.23079  0.7063699999999999  0.22721999999999995  1.0000
  H   H237      1.0  0.30151  0.70889  0.24633999999999998  1.0000
  H   H238      1.0  0.22346000000000002  0.88599  0.31905  1.0000
  H   H239      1.0  0.22997  0.93573  0.23659  1.0000
  H   H240      1.0  0.20883  0.88316  0.20113999999999996  1.0000
  H   H241      1.0  0.19750999999999996  0.9096199999999999  0.25073  1.0000
  H   H242      1.0  0.25572  0.8284599999999999  0.20745  1.0000
  C   C360      1.0  0.09831999999999998  0.83987  0.39832999999999996  1.0000
  Ni  Ni28      1.0  0.07945000000000002  0.7766499999999998  0.31705  1.0000
  Ni  Ni29      1.0  0.08931999999999998  0.7571399999999999  0.38917  1.0000
  Ni  Ni30      1.0  0.09894999999999997  0.7667799999999999  0.49492999999999987  1.0000
  H   H243      1.0  0.14919999999999997  0.74468  0.4395699999999999  1.0000
  C   C361      1.0  0.18535000000000001  0.81317  0.55621  1.0000
  H   H244      1.0  0.07771  0.81586  0.53378  1.0000
  C   C362      1.0  0.042919999999999965  0.0040599999999999786  0.3278799999999999  1.0000
  C   C363      1.0  0.42928  0.03214  0.51761  1.0000
  H   H245      1.0  0.40026000000000006  0.03516999999999996  0.4332499999999999  1.0000
  H   H246      1.0  0.15425999999999998  0.78912  0.4508299999999999  1.0000
  C   C364      1.0  0.15729999999999997  0.76015  0.3664799999999999  1.0000
  O   O196      1.0  0.32447  0.7123299999999999  0.3465299999999999  1.0000
  O   O197      1.0  0.37564  0.7660499999999999  0.4069899999999999  1.0000
  O   O198      1.0  0.14376  0.86496  0.53755  1.0000
  O   O199      1.0  0.09003999999999994  0.8137899999999999  0.4770999999999999  1.0000
  H   H247      1.0  0.36693  0.06851  0.32061  1.0000
  O   O200      1.0  0.08215999999999998  0.82792  0.3540199999999999  1.0000
  O   O201      1.0  0.10824  0.81281  0.4143  1.0000
  O   O202      1.0  0.36151999999999995  0.77395  0.5300799999999999  1.0000
  O   O203      1.0  0.18598  0.8343  0.59666  1.0000
  H   H248      1.0  0.12092000000000001  0.82251  0.56349  1.0000
  O   O204      1.0  0.15384  0.78589  0.51911  1.0000
  O   O205      1.0  0.021789999999999993  0.0034400000000000025  0.28743  1.0000
  O   O206      1.0  0.07021000000000001  0.035570000000000004  0.36497  1.0000
  O   O207      1.0  0.07222000000000002  0.052279999999999986  0.53313  1.0000
  O   O208      1.0  0.45077  0.05844999999999995  0.5133799999999998  1.0000
  O   O209      1.0  0.13715  0.78388  0.35097  1.0000
  O   O210      1.0  0.13098999999999997  0.73865  0.3707099999999999  1.0000
  O   O211      1.0  0.13297  0.76571  0.44158  1.0000
  C   C365      1.0  0.33465000000000006  0.7458299999999998  0.38295  1.0000
  O   O212      1.0  0.09803  0.80021  0.54232  1.0000
  C   C366      1.0  0.11026  0.85478  0.50114  1.0000
  C   C367      1.0  0.44069999999999976  0.96059  0.43791999999999986  1.0000
  C   C368      1.0  0.46935000000000004  0.9446699999999999  0.42244  1.0000
  C   C369      1.0  0.46820000000000006  0.90413  0.41157  1.0000
  C   C370      1.0  0.4474999999999999  0.8840799999999999  0.4276399999999999  1.0000
  C   C371      1.0  0.10437  0.9089  0.46461  1.0000
  C   C372      1.0  0.09803999999999996  0.89428  0.4953599999999999  1.0000
  C   C373      1.0  0.09920000000000002  0.92716  0.53519  1.0000
  C   C374      1.0  0.10168000000000002  0.96924  0.54196  1.0000
  C   C375      1.0  0.09967999999999996  0.9843000000000001  0.5092399999999999  1.0000
  C   C376      1.0  0.43833  0.95224  0.47224  1.0000
  C   C377      1.0  0.40075999999999995  0.95509  0.40143999999999996  1.0000
  C   C378      1.0  0.06794  0.96428  0.36676  1.0000
  C   C379      1.0  0.36743  0.97027  0.33725  1.0000
  C   C380      1.0  0.32985  0.95929  0.33639999999999987  1.0000
  C   C381      1.0  0.32763  0.94495  0.36821  1.0000
  O   O213      1.0  0.29105999999999993  0.93415  0.3684099999999999  1.0000
  C   C382      1.0  0.28293  0.9684199999999998  0.3969699999999999  1.0000
  C   C383      1.0  0.36315  0.9431  0.4011  1.0000
  H   H249      1.0  0.4830600000000002  0.95866  0.40689  1.0000
  H   H250      1.0  0.48055000000000003  0.8879399999999998  0.38777  1.0000
  H   H251      1.0  0.10226999999999999  0.92059  0.5641899999999999  1.0000
  H   H252      1.0  0.10978999999999996  0.99224  0.57545  1.0000
  H   H253      1.0  0.09692000000000003  0.97648  0.37051  1.0000
  H   H254      1.0  0.30343  0.96596  0.31504  1.0000
  H   H255      1.0  0.25370999999999994  0.9594699999999999  0.3975199999999999  1.0000
  H   H256      1.0  0.27981  0.9919299999999999  0.38337  1.0000
  H   H257      1.0  0.36097  0.9337199999999999  0.4266599999999999  1.0000
  C   C384      1.0  0.22884999999999997  0.74872  0.4461799999999999  1.0000
  C   C385      1.0  0.24478  0.72008  0.46167  1.0000
  C   C386      1.0  0.28530999999999995  0.72124  0.47253  1.0000
  C   C387      1.0  0.30535  0.74194  0.45646  1.0000
  C   C388      1.0  0.28053  0.75172  0.41948  1.0000
  C   C389      1.0  0.29516  0.75806  0.3887299999999999  1.0000
  C   C390      1.0  0.20513999999999993  0.75642  0.3748599999999999  1.0000
  C   C391      1.0  0.23719999999999997  0.7510899999999999  0.4118599999999999  1.0000
  C   C392      1.0  0.23433  0.78867  0.48265999999999987  1.0000
  C   C393      1.0  0.22513  0.7881399999999998  0.51732  1.0000
  C   C394      1.0  0.21915  0.82199  0.54683  1.0000
  C   C395      1.0  0.23013  0.85958  0.5477  1.0000
  C   C396      1.0  0.24448000000000003  0.8617999999999999  0.51589  1.0000
  O   O214      1.0  0.25529  0.8983699999999999  0.5157  1.0000
  C   C397      1.0  0.22102000000000002  0.90651  0.48714  1.0000
  C   C398      1.0  0.24633  0.82628  0.48301  1.0000
  H   H258      1.0  0.23079  0.7063699999999999  0.47721999999999987  1.0000
  H   H259      1.0  0.30151  0.70889  0.49634  1.0000
  H   H260      1.0  0.2234599999999999  0.88599  0.5690499999999997  1.0000
  H   H261      1.0  0.22997  0.93573  0.4865899999999999  1.0000
  H   H262      1.0  0.20883  0.88316  0.45114  1.0000
  H   H263      1.0  0.19750999999999996  0.9096199999999999  0.50073  1.0000
  H   H264      1.0  0.25572999999999996  0.8284599999999999  0.4574499999999999  1.0000
  C   C399      1.0  0.09832000000000005  0.83987  0.64833  1.0000
  Ni  Ni31      1.0  0.07945  0.7766499999999998  0.5670499999999999  1.0000
  Ni  Ni32      1.0  0.08931999999999995  0.7571399999999998  0.6391699999999998  1.0000
  Ni  Ni33      1.0  0.09895000000000005  0.76678  0.74493  1.0000
  H   H265      1.0  0.14920000000000005  0.74468  0.68957  1.0000
  C   C400      1.0  0.18535  0.8131699999999997  0.8062099999999998  1.0000
  H   H266      1.0  0.07770999999999999  0.81586  0.78378  1.0000
  C   C401      1.0  0.042919999999999923  0.004059999999999906  0.5778799999999997  1.0000
  C   C402      1.0  0.42928  0.032139999999999926  0.7676099999999998  1.0000
  H   H267      1.0  0.4002699999999999  0.03516999999999991  0.6832499999999998  1.0000
  H   H268      1.0  0.15425999999999995  0.7891299999999999  0.7008299999999997  1.0000
  C   C403      1.0  0.15729999999999997  0.76015  0.6164799999999999  1.0000
  O   O215      1.0  0.3244699999999999  0.71234  0.5965399999999998  1.0000
  O   O216      1.0  0.37564000000000003  0.7660599999999999  0.65699  1.0000
  O   O217      1.0  0.14376999999999995  0.86496  0.7875499999999998  1.0000
  O   O218      1.0  0.09003999999999994  0.81379  0.7271  1.0000
  H   H269      1.0  0.3669299999999999  0.06850999999999993  0.5706099999999997  1.0000
  O   O219      1.0  0.08215999999999993  0.8279199999999998  0.6040199999999998  1.0000
  O   O220      1.0  0.10823999999999989  0.81281  0.6642999999999998  1.0000
  O   O221      1.0  0.36152  0.77395  0.7800799999999999  1.0000
  O   O222      1.0  0.18598  0.8343  0.84666  1.0000
  H   H270      1.0  0.12091999999999997  0.82251  0.8134899999999999  1.0000
  O   O223      1.0  0.15384  0.7858899999999999  0.7691099999999997  1.0000
  O   O224      1.0  0.021789999999999903  0.003439999999999905  0.5374299999999997  1.0000
  O   O225      1.0  0.07021000000000001  0.03557000000000003  0.61498  1.0000
  O   O226      1.0  0.07221999999999992  0.05227999999999991  0.7831299999999998  1.0000
  O   O227      1.0  0.4507699999999999  0.05844999999999993  0.7633799999999997  1.0000
  O   O228      1.0  0.13715  0.78388  0.60097  1.0000
  O   O229      1.0  0.13099000000000005  0.73865  0.62071  1.0000
  O   O230      1.0  0.13297  0.76571  0.69159  1.0000
  C   C404      1.0  0.33465  0.7458299999999999  0.6329499999999998  1.0000
  O   O231      1.0  0.09803999999999999  0.80021  0.79232  1.0000
  C   C405      1.0  0.11027  0.85478  0.75114  1.0000
  C   C406      1.0  0.44069999999999987  0.96059  0.6879199999999999  1.0000
  C   C407      1.0  0.46935000000000004  0.9446699999999999  0.67244  1.0000
  C   C408      1.0  0.46820000000000006  0.90413  0.66157  1.0000
  C   C409      1.0  0.4474999999999999  0.8840799999999999  0.67764  1.0000
  C   C410      1.0  0.10437  0.9089  0.71461  1.0000
  C   C411      1.0  0.09803999999999992  0.89428  0.7453599999999998  1.0000
  C   C412      1.0  0.09920999999999991  0.9271599999999999  0.7851899999999998  1.0000
  C   C413      1.0  0.1016799999999999  0.96924  0.7919599999999998  1.0000
  C   C414      1.0  0.09967999999999996  0.9843000000000001  0.75924  1.0000
  C   C415      1.0  0.43833  0.9522399999999998  0.7222399999999998  1.0000
  C   C416      1.0  0.40075999999999995  0.95509  0.6514399999999999  1.0000
  C   C417      1.0  0.06794  0.96428  0.61676  1.0000
  C   C418      1.0  0.36743  0.97027  0.58726  1.0000
  C   C419      1.0  0.32985  0.95929  0.5863999999999998  1.0000
  C   C420      1.0  0.32762999999999987  0.94495  0.6182099999999998  1.0000
  O   O232      1.0  0.29106  0.93415  0.61841  1.0000
  C   C421      1.0  0.2829299999999999  0.9684199999999998  0.6469699999999998  1.0000
  C   C422      1.0  0.36314999999999986  0.9431  0.6510999999999998  1.0000
  H   H271      1.0  0.48305  0.95866  0.65689  1.0000
  H   H272      1.0  0.48055000000000003  0.8879399999999998  0.63777  1.0000
  H   H273      1.0  0.10227999999999993  0.92059  0.8141899999999997  1.0000
  H   H274      1.0  0.10980000000000002  0.99224  0.82546  1.0000
  H   H275      1.0  0.09691999999999999  0.97648  0.62051  1.0000
  H   H276      1.0  0.30343  0.96597  0.56505  1.0000
  H   H277      1.0  0.25370999999999994  0.9594699999999998  0.6475199999999998  1.0000
  H   H278      1.0  0.27981  0.9919299999999999  0.63337  1.0000
  H   H279      1.0  0.36097  0.9337199999999999  0.67666  1.0000
  C   C423      1.0  0.22884999999999991  0.74872  0.6961799999999998  1.0000
  C   C424      1.0  0.24477999999999997  0.7200799999999998  0.7116699999999998  1.0000
  C   C425      1.0  0.2853099999999999  0.7212399999999998  0.7225299999999998  1.0000
  C   C426      1.0  0.3053499999999999  0.7419399999999998  0.7064599999999998  1.0000
  C   C427      1.0  0.2805299999999999  0.75172  0.6694799999999997  1.0000
  C   C428      1.0  0.29516  0.7580599999999997  0.6387299999999998  1.0000
  C   C429      1.0  0.20514  0.7564199999999999  0.62486  1.0000
  C   C430      1.0  0.23720000000000002  0.75109  0.66186  1.0000
  C   C431      1.0  0.23432999999999998  0.78867  0.7326599999999998  1.0000
  C   C432      1.0  0.22512999999999994  0.7881399999999998  0.7673199999999998  1.0000
  C   C433      1.0  0.21915  0.82199  0.7968299999999998  1.0000
  C   C434      1.0  0.23013  0.85958  0.7977  1.0000
  C   C435      1.0  0.24448000000000003  0.8617999999999999  0.76589  1.0000
  O   O233      1.0  0.25529  0.8983699999999999  0.7657  1.0000
  C   C436      1.0  0.22102000000000002  0.9064999999999999  0.73714  1.0000
  C   C437      1.0  0.24633  0.8262800000000001  0.73301  1.0000
  H   H280      1.0  0.23078999999999988  0.7063699999999999  0.7272199999999998  1.0000
  H   H281      1.0  0.3015099999999999  0.70889  0.7463399999999998  1.0000
  H   H282      1.0  0.2234599999999999  0.88599  0.8190499999999997  1.0000
  H   H283      1.0  0.22997  0.93572  0.7365899999999999  1.0000
  H   H284      1.0  0.20883000000000004  0.88315  0.70114  1.0000
  H   H285      1.0  0.19750999999999988  0.9096199999999999  0.7507299999999998  1.0000
  H   H286      1.0  0.25573  0.8284599999999999  0.70745  1.0000
  C   C438      1.0  0.09831999999999995  0.8398699999999999  0.8983299999999997  1.0000
  Ni  Ni34      1.0  0.07944999999999991  0.7766499999999998  0.8170499999999998  1.0000
  Ni  Ni35      1.0  0.08931999999999998  0.75713  0.88917  1.0000
  Ni  Ni36      1.0  0.09894999999999991  0.7667799999999999  0.9949199999999998  1.0000
  H   H287      1.0  0.1492  0.74467  0.93956  1.0000
  C   C439      1.0  0.18535000000000001  0.81317  0.0562  1.0000
  H   H288      1.0  0.07771  0.81586  0.03378  1.0000
  C   C440      1.0  0.042919999999999944  0.004059999999999906  0.8278699999999998  1.0000
  C   C441      1.0  0.42927  0.03214  0.01761  1.0000
  H   H289      1.0  0.40026000000000006  0.035179999999999934  0.9332399999999997  1.0000
  H   H290      1.0  0.15426999999999993  0.7891199999999999  0.9508199999999998  1.0000
  C   C442      1.0  0.1572999999999999  0.76015  0.8664799999999998  1.0000
  O   O234      1.0  0.32446999999999987  0.7123299999999999  0.8465299999999998  1.0000
  O   O235      1.0  0.37564  0.76605  0.90699  1.0000
  O   O236      1.0  0.14376  0.86496  0.03755  1.0000
  O   O237      1.0  0.09002999999999997  0.8137899999999999  0.9771  1.0000
  H   H291      1.0  0.36692999999999987  0.06850999999999988  0.8206099999999997  1.0000
  O   O238      1.0  0.08215999999999994  0.82792  0.8540199999999998  1.0000
  O   O239      1.0  0.10823999999999989  0.81281  0.9143099999999997  1.0000
  O   O240      1.0  0.36152  0.77395  0.030079999999999992  1.0000
  O   O241      1.0  0.18598  0.8343  0.09665999999999997  1.0000
  H   H292      1.0  0.12092000000000001  0.82251  0.06349  1.0000
  O   O242      1.0  0.15384  0.7859  0.019099999999999992  1.0000
  O   O243      1.0  0.02178999999999998  0.0034399999999999782  0.78742  1.0000
  O   O244      1.0  0.07020999999999998  0.03556999999999991  0.8649699999999998  1.0000
  O   O245      1.0  0.07221000000000001  0.05228  0.03312999999999999  1.0000
  O   O246      1.0  0.45077  0.05845  0.013379999999999996  1.0000
  O   O247      1.0  0.13714999999999994  0.78388  0.8509699999999998  1.0000
  O   O248      1.0  0.13099000000000005  0.73865  0.87071  1.0000
  O   O249      1.0  0.13296999999999998  0.7657099999999998  0.9415799999999998  1.0000
  C   C443      1.0  0.33465000000000006  0.7458299999999999  0.88295  1.0000
  O   O250      1.0  0.09803  0.80021  0.04232  1.0000
  C   C444      1.0  0.11026  0.85478  0.00114  1.0000
  C   C445      1.0  0.44069999999999976  0.96059  0.9379199999999998  1.0000
  C   C446      1.0  0.46934999999999993  0.9446599999999998  0.9224299999999998  1.0000
  C   C447      1.0  0.46819999999999995  0.9041299999999998  0.9115699999999998  1.0000
  C   C448      1.0  0.4474999999999999  0.8840799999999999  0.9276399999999999  1.0000
  C   C449      1.0  0.10436999999999994  0.9089  0.9646099999999997  1.0000
  C   C450      1.0  0.09802999999999994  0.89428  0.9953599999999998  1.0000
  C   C451      1.0  0.09920000000000002  0.92716  0.03519  1.0000
  C   C452      1.0  0.10167  0.96924  0.04195  1.0000
  C   C453      1.0  0.09968  0.9843000000000001  0.009239999999999998  1.0000
  C   C454      1.0  0.43833  0.95224  0.97224  1.0000
  C   C455      1.0  0.40075999999999995  0.95509  0.9014299999999997  1.0000
  C   C456      1.0  0.06793999999999992  0.9642699999999998  0.8667599999999998  1.0000
  C   C457      1.0  0.36743  0.97026  0.8372499999999998  1.0000
  C   C458      1.0  0.32985  0.95929  0.8363899999999997  1.0000
  C   C459      1.0  0.32763  0.94495  0.86821  1.0000
  O   O251      1.0  0.29106  0.93415  0.8684  1.0000
  C   C460      1.0  0.2829299999999999  0.9684199999999998  0.8969599999999998  1.0000
  C   C461      1.0  0.36314999999999986  0.9431  0.9010899999999997  1.0000
  H   H293      1.0  0.48305  0.95866  0.9068799999999998  1.0000
  H   H294      1.0  0.48056  0.8879399999999998  0.8877799999999999  1.0000
  H   H295      1.0  0.10226  0.92059  0.06418  1.0000
  H   H296      1.0  0.10979000000000001  0.99224  0.07545  1.0000
  H   H297      1.0  0.09692000000000002  0.97648  0.8705  1.0000
  H   H298      1.0  0.30343000000000003  0.96596  0.81504  1.0000
  H   H299      1.0  0.25370999999999994  0.9594699999999999  0.8975099999999998  1.0000
  H   H300      1.0  0.27981  0.9919299999999999  0.8833699999999999  1.0000
  H   H301      1.0  0.36097  0.9337199999999999  0.92666  1.0000
  C   C462      1.0  0.22884999999999997  0.74872  0.9461799999999998  1.0000
  C   C463      1.0  0.24477999999999991  0.72007  0.9616699999999998  1.0000
  C   C464      1.0  0.28530999999999995  0.72124  0.9725299999999998  1.0000
  C   C465      1.0  0.30535  0.74194  0.95646  1.0000
  C   C466      1.0  0.28052999999999995  0.75172  0.9194799999999997  1.0000
  C   C467      1.0  0.29516  0.75806  0.8887299999999998  1.0000
  C   C468      1.0  0.20514  0.75641  0.87486  1.0000
  C   C469      1.0  0.23720000000000002  0.75109  0.91186  1.0000
  C   C470      1.0  0.23432999999999993  0.78867  0.9826499999999998  1.0000
  C   C471      1.0  0.22513  0.78814  0.01731  1.0000
  C   C472      1.0  0.21914  0.82199  0.04682  1.0000
  C   C473      1.0  0.23013  0.85958  0.04769  1.0000
  C   C474      1.0  0.24448000000000003  0.8617999999999999  0.015889999999999998  1.0000
  O   O252      1.0  0.25529  0.8983699999999999  0.0157  1.0000
  C   C475      1.0  0.2210199999999999  0.90651  0.9871399999999998  1.0000
  C   C476      1.0  0.24632999999999985  0.82627  0.9830099999999998  1.0000
  H   H302      1.0  0.23078999999999988  0.7063699999999999  0.9772199999999998  1.0000
  H   H303      1.0  0.30149999999999993  0.70889  0.9963399999999998  1.0000
  H   H304      1.0  0.22346000000000002  0.88599  0.06905  1.0000
  H   H305      1.0  0.2299799999999999  0.9357299999999998  0.9865899999999997  1.0000
  H   H306      1.0  0.20883999999999994  0.88316  0.9511399999999998  1.0000
  H   H307      1.0  0.19750999999999996  0.9096199999999999  0.0007199999999999998  1.0000
  H   H308      1.0  0.25573  0.82846  0.95745  1.0000
  C   C477      1.0  0.43166  0.17319999999999997  0.14833999999999994  1.0000
  Ni  Ni37      1.0  0.41279  0.10998  0.06706  1.0000
  Ni  Ni38      1.0  0.42266  0.09045999999999998  0.13916999999999996  1.0000
  Ni  Ni39      1.0  0.4322800000000001  0.10012  0.24493  1.0000
  H   H309      1.0  0.48254  0.07798999999999998  0.18955999999999995  1.0000
  C   C478      1.0  0.6829  0.42446  0.23577999999999993  1.0000
  H   H310      1.0  0.77806  0.37355  0.19453  1.0000
  C   C479      1.0  0.51868  0.1465  0.3062  1.0000
  H   H311      1.0  0.4110400000000001  0.1492  0.28379  1.0000
  C   C480      1.0  0.3762499999999999  0.33741  0.07788999999999997  1.0000
  H   H312      1.0  0.70691  0.44506  0.10033  1.0000
  C   C481      1.0  0.76261  0.36546999999999996  0.26761  1.0000
  H   H313      1.0  0.73363  0.3685  0.18326  1.0000
  H   H314      1.0  0.48761  0.12243999999999994  0.20081999999999994  1.0000
  C   C482      1.0  0.49063000000000007  0.09347999999999998  0.11648999999999997  1.0000
  O   O253      1.0  0.6578000000000002  0.04565999999999999  0.09653999999999999  1.0000
  O   O254      1.0  0.7089800000000002  0.09938000000000001  0.157  1.0000
  O   O255      1.0  0.47709000000000007  0.19829  0.28755  1.0000
  O   O256      1.0  0.42336  0.14712999999999998  0.22710999999999995  1.0000
  H   H315      1.0  0.70026  0.40185  0.07060999999999998  1.0000
  O   O257      1.0  0.41549  0.16125  0.10403999999999997  1.0000
  O   O258      1.0  0.44158000000000003  0.14612999999999998  0.16431999999999994  1.0000
  O   O259      1.0  0.6948500000000002  0.10729  0.28009  1.0000
  O   O260      1.0  0.70995  0.41453  0.21979999999999994  1.0000
  O   O261      1.0  0.51932  0.16762999999999995  0.3466599999999999  1.0000
  H   H316      1.0  0.45425000000000004  0.15583999999999995  0.3134999999999999  1.0000
  O   O262      1.0  0.48717  0.11922999999999995  0.2691099999999999  1.0000
  O   O263      1.0  0.35513  0.33678  0.03743999999999999  1.0000
  O   O264      1.0  0.40354  0.36892  0.11499  1.0000
  O   O265      1.0  0.40554999999999997  0.3856099999999999  0.28312999999999994  1.0000
  O   O266      1.0  0.78411  0.39178  0.26339  1.0000
  O   O267      1.0  0.47049  0.11720999999999997  0.10096999999999998  1.0000
  O   O268      1.0  0.46432  0.07197999999999999  0.12070999999999998  1.0000
  O   O269      1.0  0.46631000000000006  0.09902999999999998  0.19157999999999994  1.0000
  O   O270      1.0  0.75704  0.38979  0.19251  1.0000
  O   O271      1.0  0.43137  0.13355  0.29233  1.0000
  O   O272      1.0  0.7225600000000001  0.42473  0.09177999999999997  1.0000
  C   C483      1.0  0.4435900000000002  0.18812  0.25115  1.0000
  C   C484      1.0  0.77404  0.29392  0.18792  1.0000
  C   C485      1.0  0.80269  0.27799  0.17244  1.0000
  C   C486      1.0  0.8015400000000003  0.23746  0.16158  1.0000
  C   C487      1.0  0.78084  0.21740999999999996  0.17764999999999995  1.0000
  C   C488      1.0  0.43771  0.24223999999999998  0.21461999999999995  1.0000
  C   C489      1.0  0.43137000000000003  0.22761  0.24536999999999998  1.0000
  C   C490      1.0  0.43253  0.26049999999999995  0.2851899999999999  1.0000
  C   C491      1.0  0.43501  0.30257  0.29196  1.0000
  C   C492      1.0  0.43301000000000006  0.31763  0.25924  1.0000
  C   C493      1.0  0.7716699999999999  0.28557  0.22223999999999994  1.0000
  C   C494      1.0  0.73409  0.28841999999999995  0.15143999999999994  1.0000
  C   C495      1.0  0.40128000000000014  0.29762  0.11677999999999997  1.0000
  C   C496      1.0  0.70077  0.30361  0.08727  1.0000
  C   C497      1.0  0.6631900000000002  0.29263  0.08640999999999997  1.0000
  C   C498      1.0  0.66097  0.27828  0.11820999999999997  1.0000
  O   O273      1.0  0.6244000000000001  0.26747  0.11840999999999997  1.0000
  C   C499      1.0  0.61627  0.30174  0.14697  1.0000
  C   C500      1.0  0.69649  0.27643  0.1511  1.0000
  H   H317      1.0  0.81638  0.29197999999999996  0.15687999999999994  1.0000
  H   H318      1.0  0.81389  0.22126  0.13778  1.0000
  H   H319      1.0  0.4355899999999999  0.2539199999999999  0.3141899999999999  1.0000
  H   H320      1.0  0.44312000000000007  0.32556999999999997  0.3254499999999999  1.0000
  H   H321      1.0  0.43025  0.30983999999999995  0.12052999999999997  1.0000
  H   H322      1.0  0.63677  0.2993  0.06506  1.0000
  H   H323      1.0  0.58705  0.29278  0.14751999999999998  1.0000
  H   H324      1.0  0.6396099999999999  0.31393  0.18296999999999994  1.0000
  H   H325      1.0  0.61315  0.32525  0.13338  1.0000
  H   H326      1.0  0.69431  0.26703  0.17666  1.0000
  C   C501      1.0  0.56218  0.08204999999999998  0.19617999999999994  1.0000
  C   C502      1.0  0.61387  0.08506  0.16949  1.0000
  C   C503      1.0  0.62849  0.09139  0.13874  1.0000
  C   C504      1.0  0.5956  0.42356999999999995  0.09891  1.0000
  C   C505      1.0  0.5535300000000001  0.4211  0.09215  1.0000
  C   C506      1.0  0.5384699999999999  0.08975  0.12486  1.0000
  C   C507      1.0  0.57053  0.08441999999999997  0.16185999999999995  1.0000
  C   C508      1.0  0.56767  0.122  0.23265999999999995  1.0000
  C   C509      1.0  0.55846  0.12146999999999998  0.26732  1.0000
  C   C510      1.0  0.55248  0.15531999999999996  0.29682999999999987  1.0000
  C   C511      1.0  0.5634600000000001  0.19291  0.2977  1.0000
  C   C512      1.0  0.5778100000000002  0.19512999999999997  0.26588999999999996  1.0000
  O   O274      1.0  0.5886300000000001  0.2317  0.2657  1.0000
  C   C513      1.0  0.5543599999999997  0.23984  0.23713999999999993  1.0000
  C   C514      1.0  0.57967  0.15961  0.23300999999999997  1.0000
  H   H327      1.0  0.6348400000000001  0.042220000000000014  0.24635  1.0000
  H   H328      1.0  0.60217  0.42051  0.06992  1.0000
  H   H329      1.0  0.5305300000000001  0.41298  0.05864999999999999  1.0000
  H   H330      1.0  0.54625  0.42583  0.26355999999999996  1.0000
  H   H331      1.0  0.55679  0.21932999999999997  0.31905  1.0000
  H   H332      1.0  0.56332  0.26906  0.23659  1.0000
  H   H333      1.0  0.54218  0.21648999999999996  0.20114999999999994  1.0000
  H   H334      1.0  0.53085  0.24296  0.25073  1.0000
  H   H335      1.0  0.58907  0.16179  0.20746  1.0000
  C   C515      1.0  0.43166000000000004  0.1732  0.39834  1.0000
  Ni  Ni40      1.0  0.41279  0.10998  0.31706  1.0000
  Ni  Ni41      1.0  0.42266  0.09045999999999998  0.38917  1.0000
  Ni  Ni42      1.0  0.43228000000000005  0.10011999999999997  0.49492999999999987  1.0000
  H   H336      1.0  0.48254  0.07797999999999995  0.4395599999999999  1.0000
  C   C516      1.0  0.6828999999999998  0.42445999999999995  0.4857799999999999  1.0000
  H   H337      1.0  0.77806  0.37355  0.4445199999999999  1.0000
  C   C517      1.0  0.51868  0.14650000000000002  0.5562  1.0000
  H   H338      1.0  0.4110400000000001  0.1492  0.53379  1.0000
  C   C518      1.0  0.3762499999999999  0.3374  0.3278899999999999  1.0000
  H   H339      1.0  0.70691  0.44506  0.35032  1.0000
  C   C519      1.0  0.76261  0.36546999999999996  0.51761  1.0000
  H   H340      1.0  0.7336199999999999  0.3685  0.43325999999999987  1.0000
  H   H341      1.0  0.48761  0.12242999999999994  0.4508199999999999  1.0000
  C   C520      1.0  0.49063000000000007  0.09347999999999998  0.3664799999999999  1.0000
  O   O275      1.0  0.6578000000000002  0.04565999999999995  0.3465399999999999  1.0000
  O   O276      1.0  0.7089800000000002  0.09938  0.407  1.0000
  O   O277      1.0  0.47709000000000007  0.19829  0.53755  1.0000
  O   O278      1.0  0.42336  0.14712999999999998  0.47710999999999987  1.0000
  H   H342      1.0  0.7002599999999999  0.40183999999999986  0.32061  1.0000
  O   O279      1.0  0.41549  0.16124999999999995  0.3540399999999999  1.0000
  O   O280      1.0  0.44158000000000003  0.14612999999999995  0.4143199999999999  1.0000
  O   O281      1.0  0.6948500000000002  0.10729  0.53009  1.0000
  O   O282      1.0  0.70995  0.41453  0.4698  1.0000
  O   O283      1.0  0.51931  0.16763  0.59666  1.0000
  H   H343      1.0  0.45425000000000004  0.15584  0.5635  1.0000
  O   O284      1.0  0.48717  0.11923  0.5191  1.0000
  O   O285      1.0  0.35513  0.33678  0.28743  1.0000
  O   O286      1.0  0.40354  0.36890999999999996  0.36498  1.0000
  O   O287      1.0  0.40555  0.38561  0.53313  1.0000
  O   O288      1.0  0.7841  0.39177999999999996  0.5133899999999999  1.0000
  O   O289      1.0  0.47049  0.11721000000000002  0.35097  1.0000
  O   O290      1.0  0.46432  0.07197999999999996  0.3707099999999999  1.0000
  O   O291      1.0  0.46631000000000006  0.09902  0.44158  1.0000
  O   O292      1.0  0.75703  0.38979  0.44251  1.0000
  O   O293      1.0  0.43137  0.13355  0.54233  1.0000
  O   O294      1.0  0.7225600000000001  0.42473  0.34178  1.0000
  C   C521      1.0  0.44359000000000004  0.18811  0.50115  1.0000
  C   C522      1.0  0.7740399999999998  0.29392  0.43791999999999986  1.0000
  C   C523      1.0  0.8026900000000003  0.27799  0.42244  1.0000
  C   C524      1.0  0.8015400000000003  0.23746  0.41158  1.0000
  C   C525      1.0  0.78084  0.21740999999999994  0.42764999999999986  1.0000
  C   C526      1.0  0.43771  0.24224000000000004  0.46462  1.0000
  C   C527      1.0  0.43136  0.22761  0.49536999999999987  1.0000
  C   C528      1.0  0.43253  0.2605  0.53519  1.0000
  C   C529      1.0  0.435  0.30257  0.54196  1.0000
  C   C530      1.0  0.43300999999999995  0.31762999999999997  0.5092399999999999  1.0000
  C   C531      1.0  0.7716699999999999  0.28557  0.47224  1.0000
  C   C532      1.0  0.7341000000000001  0.28841999999999995  0.40143999999999996  1.0000
  C   C533      1.0  0.40128  0.29762  0.36677  1.0000
  C   C534      1.0  0.70077  0.30361  0.33727  1.0000
  C   C535      1.0  0.6631900000000002  0.29262999999999995  0.33639999999999987  1.0000
  C   C536      1.0  0.66097  0.27828  0.36821  1.0000
  O   O295      1.0  0.6244000000000001  0.26747  0.3684099999999999  1.0000
  C   C537      1.0  0.6162699999999999  0.30173999999999995  0.3969699999999999  1.0000
  C   C538      1.0  0.69649  0.27643  0.4011  1.0000
  H   H344      1.0  0.81638  0.29198  0.40688  1.0000
  H   H345      1.0  0.81389  0.22126  0.3877899999999999  1.0000
  H   H346      1.0  0.43559  0.2539199999999999  0.5641899999999999  1.0000
  H   H347      1.0  0.44311000000000006  0.32556999999999997  0.57545  1.0000
  H   H348      1.0  0.43026000000000003  0.30982999999999994  0.37053  1.0000
  H   H349      1.0  0.6367699999999998  0.2993  0.3150599999999999  1.0000
  H   H350      1.0  0.58705  0.29278999999999994  0.3975199999999999  1.0000
  H   H351      1.0  0.63962  0.31393  0.4329699999999999  1.0000
  H   H352      1.0  0.61315  0.32525  0.3833799999999999  1.0000
  H   H353      1.0  0.69431  0.26704  0.4266599999999999  1.0000
  C   C539      1.0  0.56218  0.08204999999999997  0.4461799999999999  1.0000
  C   C540      1.0  0.61387  0.08504999999999997  0.41948999999999986  1.0000
  C   C541      1.0  0.62849  0.09138999999999997  0.3887399999999999  1.0000
  C   C542      1.0  0.5956  0.42355999999999994  0.34891  1.0000
  C   C543      1.0  0.5535300000000001  0.42108999999999996  0.3421399999999999  1.0000
  C   C544      1.0  0.5384699999999999  0.08974999999999995  0.3748599999999999  1.0000
  C   C545      1.0  0.5705299999999999  0.08441999999999994  0.4118599999999999  1.0000
  C   C546      1.0  0.56767  0.12199999999999996  0.48265999999999987  1.0000
  C   C547      1.0  0.55846  0.12146999999999998  0.51732  1.0000
  C   C548      1.0  0.55248  0.15532  0.54682  1.0000
  C   C549      1.0  0.5634600000000001  0.19290999999999997  0.5476899999999999  1.0000
  C   C550      1.0  0.57782  0.19512999999999997  0.51589  1.0000
  O   O296      1.0  0.5886300000000001  0.2317  0.5157  1.0000
  C   C551      1.0  0.55437  0.23984  0.48714  1.0000
  C   C552      1.0  0.57967  0.15961  0.48301  1.0000
  H   H354      1.0  0.6348400000000001  0.04221999999999999  0.49635  1.0000
  H   H355      1.0  0.6021699999999999  0.4205  0.31991  1.0000
  H   H356      1.0  0.5305300000000001  0.41298  0.30865  1.0000
  H   H357      1.0  0.54624  0.42583  0.51356  1.0000
  H   H358      1.0  0.5567899999999999  0.2193299999999999  0.5690499999999997  1.0000
  H   H359      1.0  0.56333  0.26905999999999997  0.4865899999999999  1.0000
  H   H360      1.0  0.54218  0.21649  0.45114  1.0000
  H   H361      1.0  0.53085  0.24296  0.50073  1.0000
  H   H362      1.0  0.58907  0.16178999999999993  0.45745999999999987  1.0000
  C   C553      1.0  0.43166000000000004  0.1732  0.64834  1.0000
  Ni  Ni43      1.0  0.41279  0.10998000000000002  0.56706  1.0000
  Ni  Ni44      1.0  0.42266  0.09045999999999986  0.6391699999999998  1.0000
  Ni  Ni45      1.0  0.4322800000000001  0.10012000000000003  0.74493  1.0000
  H   H363      1.0  0.48254  0.07798000000000004  0.68956  1.0000
  C   C554      1.0  0.6829  0.42445999999999995  0.7357799999999998  1.0000
  H   H364      1.0  0.77806  0.37355  0.69452  1.0000
  C   C555      1.0  0.5186799999999999  0.14649999999999988  0.8061999999999998  1.0000
  H   H365      1.0  0.4110400000000001  0.1492  0.78379  1.0000
  C   C556      1.0  0.37624999999999986  0.33739999999999987  0.5778899999999998  1.0000
  H   H366      1.0  0.70691  0.44506  0.60032  1.0000
  C   C557      1.0  0.76261  0.3654699999999999  0.7676099999999998  1.0000
  H   H367      1.0  0.73362  0.36849999999999994  0.6832599999999999  1.0000
  H   H368      1.0  0.48760999999999993  0.12242999999999989  0.7008199999999998  1.0000
  C   C558      1.0  0.49063000000000007  0.0934799999999999  0.6164799999999999  1.0000
  O   O297      1.0  0.6578000000000002  0.045659999999999965  0.5965399999999998  1.0000
  O   O298      1.0  0.7089800000000002  0.09938000000000001  0.657  1.0000
  O   O299      1.0  0.47709000000000007  0.19828999999999994  0.7875499999999998  1.0000
  O   O300      1.0  0.42336  0.14713000000000004  0.72711  1.0000
  H   H369      1.0  0.7002599999999999  0.40184999999999993  0.5706099999999997  1.0000
  O   O301      1.0  0.41549  0.16124999999999995  0.6040399999999998  1.0000
  O   O302      1.0  0.44158000000000003  0.14612999999999993  0.6643199999999998  1.0000
  O   O303      1.0  0.69486  0.10729000000000004  0.78009  1.0000
  O   O304      1.0  0.70996  0.4145299999999999  0.7198  1.0000
  O   O305      1.0  0.51932  0.16763  0.84666  1.0000
  H   H370      1.0  0.45425000000000004  0.15584  0.8135  1.0000
  O   O306      1.0  0.4871699999999999  0.1192299999999999  0.7690999999999998  1.0000
  O   O307      1.0  0.35512999999999995  0.33677999999999997  0.5374299999999997  1.0000
  O   O308      1.0  0.40354  0.36891000000000007  0.61498  1.0000
  O   O309      1.0  0.4055499999999999  0.3856099999999999  0.7831299999999998  1.0000
  O   O310      1.0  0.7841099999999998  0.3917799999999999  0.7633899999999998  1.0000
  O   O311      1.0  0.47049  0.11720999999999997  0.60097  1.0000
  O   O312      1.0  0.46432  0.07198000000000002  0.62071  1.0000
  O   O313      1.0  0.46631000000000006  0.09903000000000003  0.69158  1.0000
  O   O314      1.0  0.7570399999999999  0.3897899999999999  0.6925099999999997  1.0000
  O   O315      1.0  0.4313699999999999  0.13354999999999995  0.79233  1.0000
  O   O316      1.0  0.7225600000000001  0.42473  0.59178  1.0000
  C   C559      1.0  0.44359000000000004  0.18811  0.75115  1.0000
  C   C560      1.0  0.7740399999999998  0.29392  0.6879199999999999  1.0000
  C   C561      1.0  0.8026900000000003  0.27799  0.67244  1.0000
  C   C562      1.0  0.8015400000000004  0.23746  0.66158  1.0000
  C   C563      1.0  0.78084  0.21740999999999994  0.67765  1.0000
  C   C564      1.0  0.43771  0.24224000000000004  0.71462  1.0000
  C   C565      1.0  0.43136999999999986  0.2276099999999999  0.7453699999999998  1.0000
  C   C566      1.0  0.43253  0.2604999999999999  0.7851899999999998  1.0000
  C   C567      1.0  0.43501  0.3025699999999999  0.7919599999999998  1.0000
  C   C568      1.0  0.43300999999999995  0.31763  0.75924  1.0000
  C   C569      1.0  0.7716699999999997  0.2855699999999999  0.7222399999999998  1.0000
  C   C570      1.0  0.7341000000000001  0.28841999999999995  0.6514399999999999  1.0000
  C   C571      1.0  0.40128000000000014  0.29762  0.61677  1.0000
  C   C572      1.0  0.70077  0.30361  0.58727  1.0000
  C   C573      1.0  0.6631900000000002  0.2926299999999999  0.5864099999999998  1.0000
  C   C574      1.0  0.66097  0.27827999999999997  0.6182099999999998  1.0000
  O   O317      1.0  0.6244000000000001  0.26747  0.61841  1.0000
  C   C575      1.0  0.6162699999999999  0.3017399999999999  0.6469699999999998  1.0000
  C   C576      1.0  0.69649  0.27642999999999995  0.6510999999999998  1.0000
  H   H371      1.0  0.81638  0.29198  0.65688  1.0000
  H   H372      1.0  0.81389  0.22126  0.63778  1.0000
  H   H373      1.0  0.43559999999999993  0.2539199999999999  0.8141899999999997  1.0000
  H   H374      1.0  0.44312000000000007  0.32556999999999997  0.82545  1.0000
  H   H375      1.0  0.43026000000000003  0.3098299999999999  0.6205299999999998  1.0000
  H   H376      1.0  0.63677  0.2993  0.56506  1.0000
  H   H377      1.0  0.58705  0.2927799999999999  0.6475199999999998  1.0000
  H   H378      1.0  0.63962  0.3139299999999999  0.6829699999999997  1.0000
  H   H379      1.0  0.61315  0.32525  0.63338  1.0000
  H   H380      1.0  0.69431  0.26703  0.67666  1.0000
  C   C577      1.0  0.56218  0.08204999999999991  0.6961799999999998  1.0000
  C   C578      1.0  0.61387  0.08504999999999986  0.6694899999999998  1.0000
  C   C579      1.0  0.6284899999999999  0.09138999999999996  0.6387399999999999  1.0000
  C   C580      1.0  0.5956  0.42356999999999995  0.59891  1.0000
  C   C581      1.0  0.5535300000000001  0.42109  0.59215  1.0000
  C   C582      1.0  0.53848  0.08975  0.62486  1.0000
  C   C583      1.0  0.57053  0.08442000000000001  0.66186  1.0000
  C   C584      1.0  0.5676699999999999  0.1219999999999999  0.7326599999999998  1.0000
  C   C585      1.0  0.5584599999999998  0.12146999999999991  0.7673199999999998  1.0000
  C   C586      1.0  0.5524799999999999  0.1553199999999999  0.7968199999999998  1.0000
  C   C587      1.0  0.5634600000000001  0.19291000000000003  0.7977  1.0000
  C   C588      1.0  0.5778100000000002  0.19512999999999997  0.76589  1.0000
  O   O318      1.0  0.5886300000000001  0.2317  0.7657  1.0000
  C   C589      1.0  0.55436  0.23984  0.73714  1.0000
  C   C590      1.0  0.57967  0.15961  0.73301  1.0000
  H   H381      1.0  0.6348400000000001  0.04221999999999992  0.7463499999999997  1.0000
  H   H382      1.0  0.60217  0.4205  0.56991  1.0000
  H   H383      1.0  0.5305300000000001  0.41298  0.55865  1.0000
  H   H384      1.0  0.54625  0.42583  0.76356  1.0000
  H   H385      1.0  0.5567899999999999  0.21931999999999993  0.8190499999999997  1.0000
  H   H386      1.0  0.56332  0.26905999999999997  0.7365899999999999  1.0000
  H   H387      1.0  0.54218  0.21649  0.70114  1.0000
  H   H388      1.0  0.5308499999999999  0.24295999999999993  0.7507299999999998  1.0000
  H   H389      1.0  0.58907  0.16179  0.70746  1.0000
  C   C591      1.0  0.43166  0.17319999999999988  0.8983399999999998  1.0000
  Ni  Ni46      1.0  0.41278999999999993  0.1099799999999999  0.8170599999999998  1.0000
  Ni  Ni47      1.0  0.42266  0.09046000000000001  0.88917  1.0000
  Ni  Ni48      1.0  0.43228000000000005  0.10011999999999989  0.9949299999999999  1.0000
  H   H390      1.0  0.48253000000000007  0.07796999999999998  0.9395499999999999  1.0000
  C   C592      1.0  0.6828899999999999  0.4244599999999999  0.9857799999999998  1.0000
  H   H391      1.0  0.77805  0.37355  0.94452  1.0000
  C   C593      1.0  0.51868  0.1465  0.0562  1.0000
  H   H392      1.0  0.4110400000000001  0.1492  0.03379  1.0000
  C   C594      1.0  0.37624999999999986  0.33739999999999987  0.8278799999999997  1.0000
  H   H393      1.0  0.70691  0.44506  0.85032  1.0000
  C   C595      1.0  0.76261  0.36546999999999996  0.01761  1.0000
  H   H394      1.0  0.7336099999999999  0.3684999999999999  0.9332499999999998  1.0000
  H   H395      1.0  0.48760999999999993  0.12241999999999992  0.9508099999999998  1.0000
  C   C596      1.0  0.49063000000000007  0.09347999999999988  0.8664799999999998  1.0000
  O   O319      1.0  0.6578  0.045659999999999944  0.8465299999999998  1.0000
  O   O320      1.0  0.7089800000000002  0.09937000000000001  0.90699  1.0000
  O   O321      1.0  0.47709000000000007  0.19829  0.03755  1.0000
  O   O322      1.0  0.42335999999999996  0.14712999999999996  0.9771  1.0000
  H   H396      1.0  0.7002599999999999  0.40183999999999986  0.8205999999999998  1.0000
  O   O323      1.0  0.41549  0.1612499999999999  0.8540399999999998  1.0000
  O   O324      1.0  0.44158000000000003  0.1461299999999999  0.9143199999999998  1.0000
  O   O325      1.0  0.6948500000000002  0.10728999999999997  0.03009  1.0000
  O   O326      1.0  0.70995  0.4145299999999999  0.9697999999999998  1.0000
  O   O327      1.0  0.51931  0.16762999999999997  0.09665999999999997  1.0000
  H   H397      1.0  0.45425000000000004  0.15584  0.0635  1.0000
  O   O328      1.0  0.48716  0.11923  0.019099999999999992  1.0000
  O   O329      1.0  0.35513  0.33677  0.78743  1.0000
  O   O330      1.0  0.40353999999999995  0.36890999999999996  0.8649799999999999  1.0000
  O   O331      1.0  0.40555  0.38561  0.03312999999999999  1.0000
  O   O332      1.0  0.7841  0.39178  0.013379999999999996  1.0000
  O   O333      1.0  0.47048999999999996  0.1172099999999999  0.8509699999999998  1.0000
  O   O334      1.0  0.46432  0.07197999999999999  0.8706999999999999  1.0000
  O   O335      1.0  0.46631000000000006  0.09901999999999993  0.9415699999999998  1.0000
  O   O336      1.0  0.75703  0.3897999999999999  0.9424999999999998  1.0000
  O   O337      1.0  0.43137  0.13355  0.042329999999999986  1.0000
  O   O338      1.0  0.7225600000000001  0.42473  0.84178  1.0000
  C   C597      1.0  0.44358  0.18812  0.00115  1.0000
  C   C598      1.0  0.77404  0.2939099999999999  0.9379199999999998  1.0000
  C   C599      1.0  0.8026899999999999  0.2779899999999999  0.9224299999999998  1.0000
  C   C600      1.0  0.8015400000000003  0.23745999999999995  0.9115799999999998  1.0000
  C   C601      1.0  0.78084  0.21741  0.92765  1.0000
  C   C602      1.0  0.43771  0.2422299999999999  0.9646199999999998  1.0000
  C   C603      1.0  0.43136  0.22761  0.9953599999999998  1.0000
  C   C604      1.0  0.43252  0.2605  0.03519  1.0000
  C   C605      1.0  0.435  0.30257  0.04195  1.0000
  C   C606      1.0  0.43301  0.31763  0.009239999999999998  1.0000
  C   C607      1.0  0.7716699999999999  0.28556999999999994  0.97224  1.0000
  C   C608      1.0  0.7340899999999999  0.28841999999999995  0.9014399999999998  1.0000
  C   C609      1.0  0.40128  0.2976199999999999  0.8667699999999998  1.0000
  C   C610      1.0  0.7007699999999999  0.30359999999999987  0.8372599999999998  1.0000
  C   C611      1.0  0.6631900000000002  0.2926299999999999  0.8363999999999998  1.0000
  C   C612      1.0  0.66097  0.27828  0.86821  1.0000
  O   O339      1.0  0.6244000000000001  0.26747  0.86841  1.0000
  C   C613      1.0  0.6162699999999999  0.3017399999999999  0.8969699999999998  1.0000
  C   C614      1.0  0.69649  0.27642999999999995  0.9010899999999997  1.0000
  H   H398      1.0  0.81638  0.2919799999999999  0.9068799999999998  1.0000
  H   H399      1.0  0.8139  0.22126  0.88779  1.0000
  H   H400      1.0  0.43557999999999997  0.25392  0.06418  1.0000
  H   H401      1.0  0.44311000000000006  0.32556999999999997  0.07545  1.0000
  H   H402      1.0  0.43026000000000003  0.30982999999999994  0.87052  1.0000
  H   H403      1.0  0.63677  0.2992999999999999  0.8150499999999999  1.0000
  H   H404      1.0  0.58705  0.29278999999999994  0.8975199999999998  1.0000
  H   H405      1.0  0.63962  0.31392999999999993  0.9329599999999998  1.0000
  H   H406      1.0  0.61315  0.32524999999999993  0.8833699999999999  1.0000
  H   H407      1.0  0.69431  0.26704  0.92665  1.0000
  C   C615      1.0  0.56218  0.08204999999999989  0.9461799999999998  1.0000
  C   C616      1.0  0.6138599999999999  0.0850499999999999  0.9194899999999998  1.0000
  C   C617      1.0  0.6284899999999999  0.09137999999999996  0.8887399999999998  1.0000
  C   C618      1.0  0.5955999999999999  0.4235599999999999  0.8489099999999998  1.0000
  C   C619      1.0  0.55353  0.42108999999999996  0.8421399999999998  1.0000
  C   C620      1.0  0.53847  0.08974000000000003  0.87486  1.0000
  C   C621      1.0  0.57053  0.08441999999999998  0.91186  1.0000
  C   C622      1.0  0.5676699999999999  0.12199999999999996  0.9826599999999998  1.0000
  C   C623      1.0  0.55846  0.12146999999999998  0.01731  1.0000
  C   C624      1.0  0.5524700000000001  0.15532  0.04682  1.0000
  C   C625      1.0  0.5634600000000001  0.19291  0.04769  1.0000
  C   C626      1.0  0.57782  0.19512999999999997  0.015889999999999998  1.0000
  O   O340      1.0  0.5886300000000001  0.2317  0.0157  1.0000
  C   C627      1.0  0.5543699999999999  0.23983999999999994  0.9871399999999998  1.0000
  C   C628      1.0  0.57967  0.15959999999999994  0.9830099999999998  1.0000
  H   H408      1.0  0.63484  0.04221999999999992  0.9963499999999997  1.0000
  H   H409      1.0  0.6021699999999999  0.42048999999999986  0.8199099999999998  1.0000
  H   H410      1.0  0.5305300000000001  0.41297000000000006  0.80865  1.0000
  H   H411      1.0  0.54624  0.42583  0.01356  1.0000
  H   H412      1.0  0.55679  0.21932999999999997  0.06904  1.0000
  H   H413      1.0  0.56333  0.2690599999999999  0.9865899999999997  1.0000
  H   H414      1.0  0.54218  0.21648999999999993  0.9511399999999998  1.0000
  H   H415      1.0  0.53086  0.24296  0.0007199999999999998  1.0000
  H   H416      1.0  0.58907  0.16179000000000004  0.95745  1.0000
  C   C629      1.0  0.43165  0.50654  0.14833  1.0000
  Ni  Ni49      1.0  0.41278  0.44332  0.06704999999999997  1.0000
  Ni  Ni50      1.0  0.42265  0.42381  0.13916999999999996  1.0000
  Ni  Ni51      1.0  0.43229  0.43345  0.24493  1.0000
  H   H417      1.0  0.48254  0.41135  0.18956999999999993  1.0000
  C   C630      1.0  0.6829  0.7577899999999999  0.23577999999999993  1.0000
  H   H418      1.0  0.77806  0.70689  0.19452  1.0000
  C   C631      1.0  0.5186900000000001  0.47984  0.30621  1.0000
  H   H419      1.0  0.4110400000000001  0.48252999999999996  0.28378  1.0000
  C   C632      1.0  0.3762499999999999  0.67074  0.07788999999999997  1.0000
  H   H420      1.0  0.7069099999999999  0.77839  0.10031999999999998  1.0000
  C   C633      1.0  0.76261  0.6988  0.26761  1.0000
  H   H421      1.0  0.73363  0.70183  0.18326  1.0000
  H   H422      1.0  0.48760000000000003  0.4558  0.20082999999999995  1.0000
  C   C634      1.0  0.49063000000000007  0.42682  0.11648999999999997  1.0000
  O   O341      1.0  0.6578000000000002  0.37901  0.09653999999999999  1.0000
  O   O342      1.0  0.70897  0.43272  0.15699  1.0000
  O   O343      1.0  0.4771  0.53163  0.28755  1.0000
  O   O344      1.0  0.42337  0.48045999999999994  0.22710999999999995  1.0000
  H   H423      1.0  0.70026  0.7351799999999998  0.07060999999999998  1.0000
  O   O345      1.0  0.41549  0.49457999999999996  0.10402  1.0000
  O   O346      1.0  0.4415700000000001  0.47947999999999996  0.16431  1.0000
  O   O347      1.0  0.6948500000000002  0.44061999999999996  0.28008  1.0000
  O   O348      1.0  0.7099600000000001  0.74786  0.21979999999999994  1.0000
  O   O349      1.0  0.51932  0.50097  0.34666999999999987  1.0000
  H   H424      1.0  0.45425000000000004  0.48917000000000005  0.3134999999999999  1.0000
  O   O350      1.0  0.4871699999999999  0.45255999999999996  0.2691099999999999  1.0000
  O   O351      1.0  0.35513  0.67011  0.03742999999999999  1.0000
  O   O352      1.0  0.40354  0.70225  0.11497999999999997  1.0000
  O   O353      1.0  0.40554999999999997  0.71895  0.28312999999999994  1.0000
  O   O354      1.0  0.78411  0.7251200000000001  0.26339  1.0000
  O   O355      1.0  0.47049  0.45055  0.10096999999999998  1.0000
  O   O356      1.0  0.46432  0.40532  0.12070999999999998  1.0000
  O   O357      1.0  0.46630000000000005  0.43238  0.19158999999999998  1.0000
  O   O358      1.0  0.75704  0.72313  0.19251  1.0000
  C   C635      1.0  0.66798  0.4125  0.13295  1.0000
  O   O359      1.0  0.43137  0.4668800000000001  0.29231999999999997  1.0000
  O   O360      1.0  0.7225600000000001  0.75806  0.09177999999999997  1.0000
  C   C636      1.0  0.4436  0.52145  0.25115  1.0000
  C   C637      1.0  0.77404  0.62725  0.18792  1.0000
  C   C638      1.0  0.80269  0.61133  0.17242999999999994  1.0000
  C   C639      1.0  0.8015300000000001  0.5708  0.16157  1.0000
  C   C640      1.0  0.7808300000000002  0.55075  0.17764  1.0000
  C   C641      1.0  0.43771  0.5755699999999999  0.21461999999999995  1.0000
  C   C642      1.0  0.4313699999999999  0.56094  0.24535999999999994  1.0000
  C   C643      1.0  0.43253  0.5938299999999999  0.2851899999999999  1.0000
  C   C644      1.0  0.43501  0.63591  0.29196  1.0000
  C   C645      1.0  0.43301  0.65096  0.25924  1.0000
  C   C646      1.0  0.7716699999999999  0.61891  0.22223999999999994  1.0000
  C   C647      1.0  0.73409  0.62176  0.15143999999999994  1.0000
  C   C648      1.0  0.40128000000000014  0.63096  0.11677  1.0000
  C   C649      1.0  0.70076  0.63694  0.08727  1.0000
  C   C650      1.0  0.66319  0.62597  0.08639999999999998  1.0000
  C   C651      1.0  0.66097  0.61162  0.11820999999999997  1.0000
  O   O361      1.0  0.6244000000000001  0.60081  0.11840999999999997  1.0000
  C   C652      1.0  0.61626  0.63508  0.14697  1.0000
  C   C653      1.0  0.69649  0.60977  0.1511  1.0000
  H   H425      1.0  0.8163900000000002  0.62532  0.15687999999999994  1.0000
  H   H426      1.0  0.81389  0.5546  0.13777  1.0000
  H   H427      1.0  0.43559999999999993  0.58726  0.3141899999999999  1.0000
  H   H428      1.0  0.44312000000000007  0.6589  0.3254499999999999  1.0000
  H   H429      1.0  0.43024999999999997  0.64317  0.12052  1.0000
  H   H430      1.0  0.63677  0.63264  0.06505  1.0000
  H   H431      1.0  0.58705  0.6261199999999999  0.14751999999999998  1.0000
  H   H432      1.0  0.63961  0.64726  0.18295999999999996  1.0000
  H   H433      1.0  0.61315  0.65859  0.13338  1.0000
  H   H434      1.0  0.69431  0.60037  0.17666  1.0000
  C   C654      1.0  0.56218  0.41539  0.19617999999999994  1.0000
  C   C655      1.0  0.57811  0.38674  0.21167  1.0000
  C   C656      1.0  0.61864  0.3879  0.22253  1.0000
  C   C657      1.0  0.63869  0.4086099999999999  0.20645999999999995  1.0000
  C   C658      1.0  0.6138599999999999  0.41839  0.16949  1.0000
  C   C659      1.0  0.62849  0.42473  0.13874  1.0000
  C   C660      1.0  0.5956  0.7569  0.09891  1.0000
  C   C661      1.0  0.5535300000000001  0.75443  0.09215  1.0000
  C   C662      1.0  0.53847  0.42308  0.12486  1.0000
  C   C663      1.0  0.57053  0.41776  0.16185999999999995  1.0000
  C   C664      1.0  0.56767  0.45533  0.23265999999999995  1.0000
  C   C665      1.0  0.55846  0.45480999999999994  0.26732  1.0000
  C   C666      1.0  0.55248  0.48866  0.29682999999999987  1.0000
  C   C667      1.0  0.5634600000000001  0.52624  0.2977  1.0000
  C   C668      1.0  0.5778100000000002  0.52847  0.26588999999999996  1.0000
  O   O362      1.0  0.58862  0.56504  0.2657  1.0000
  C   C669      1.0  0.5543499999999998  0.57317  0.23713999999999993  1.0000
  C   C670      1.0  0.57966  0.49294  0.23300999999999997  1.0000
  H   H435      1.0  0.56412  0.37304  0.22722999999999993  1.0000
  H   H436      1.0  0.6348400000000001  0.37554999999999994  0.24633999999999998  1.0000
  H   H437      1.0  0.60217  0.75384  0.06990999999999999  1.0000
  H   H438      1.0  0.5305300000000001  0.74632  0.05864999999999999  1.0000
  H   H439      1.0  0.54625  0.7591599999999998  0.26355999999999996  1.0000
  H   H440      1.0  0.55679  0.5526599999999999  0.31905  1.0000
  H   H441      1.0  0.56331  0.6023899999999999  0.23659  1.0000
  H   H442      1.0  0.5421699999999999  0.54982  0.20114999999999994  1.0000
  H   H443      1.0  0.53084  0.57629  0.25073  1.0000
  H   H444      1.0  0.58906  0.49513  0.20745  1.0000
  C   C671      1.0  0.4316499999999999  0.50654  0.39832999999999996  1.0000
  Ni  Ni52      1.0  0.41278  0.44332  0.31705  1.0000
  Ni  Ni53      1.0  0.42265  0.4238  0.38917  1.0000
  Ni  Ni54      1.0  0.43228999999999995  0.43345  0.49492999999999987  1.0000
  H   H445      1.0  0.48254  0.41133999999999993  0.4395699999999999  1.0000
  C   C672      1.0  0.6828999999999998  0.7577899999999999  0.4857799999999999  1.0000
  H   H446      1.0  0.77806  0.70689  0.4445199999999999  1.0000
  C   C673      1.0  0.51868  0.47984  0.55621  1.0000
  H   H447      1.0  0.4110400000000001  0.48252999999999996  0.53378  1.0000
  C   C674      1.0  0.37626000000000004  0.67074  0.3278799999999999  1.0000
  H   H448      1.0  0.70691  0.77839  0.35032  1.0000
  C   C675      1.0  0.7626099999999999  0.6988  0.51761  1.0000
  H   H449      1.0  0.7336199999999999  0.7018299999999998  0.43325999999999987  1.0000
  H   H450      1.0  0.48760000000000003  0.45579000000000003  0.4508299999999999  1.0000
  C   C676      1.0  0.49063000000000007  0.42682  0.36649  1.0000
  O   O363      1.0  0.6578000000000002  0.37899999999999995  0.3465399999999999  1.0000
  O   O364      1.0  0.70897  0.43272  0.4069899999999999  1.0000
  O   O365      1.0  0.47709000000000007  0.53163  0.53755  1.0000
  O   O366      1.0  0.42336999999999997  0.48045999999999994  0.4770999999999999  1.0000
  H   H451      1.0  0.70026  0.73518  0.3206  1.0000
  O   O367      1.0  0.41549  0.49457999999999996  0.3540299999999999  1.0000
  O   O368      1.0  0.4415700000000001  0.47947  0.4143099999999999  1.0000
  O   O369      1.0  0.6948500000000001  0.44061999999999996  0.5300799999999999  1.0000
  O   O370      1.0  0.70995  0.7478600000000001  0.4698  1.0000
  O   O371      1.0  0.51931  0.50097  0.59666  1.0000
  H   H452      1.0  0.45425000000000004  0.48917000000000005  0.5635  1.0000
  O   O372      1.0  0.48717  0.45255999999999996  0.51911  1.0000
  O   O373      1.0  0.35513  0.67011  0.28743  1.0000
  O   O374      1.0  0.40354  0.70225  0.36498  1.0000
  O   O375      1.0  0.40555  0.71895  0.53313  1.0000
  O   O376      1.0  0.7841099999999999  0.7251099999999999  0.5133799999999998  1.0000
  O   O377      1.0  0.47049  0.45055  0.35097  1.0000
  O   O378      1.0  0.46432  0.40532  0.3707099999999999  1.0000
  O   O379      1.0  0.46630000000000005  0.43238  0.44159  1.0000
  O   O380      1.0  0.75703  0.72313  0.4425  1.0000
  C   C677      1.0  0.66798  0.4125  0.38295  1.0000
  O   O381      1.0  0.43137  0.4668800000000001  0.54232  1.0000
  O   O382      1.0  0.7225600000000002  0.75806  0.34178  1.0000
  C   C678      1.0  0.44359000000000004  0.52145  0.50114  1.0000
  C   C679      1.0  0.7740399999999998  0.6272499999999999  0.43791999999999986  1.0000
  C   C680      1.0  0.80269  0.61133  0.42243  1.0000
  C   C681      1.0  0.8015300000000002  0.5708  0.41157  1.0000
  C   C682      1.0  0.7808300000000002  0.55075  0.4276399999999999  1.0000
  C   C683      1.0  0.43771  0.57557  0.46462  1.0000
  C   C684      1.0  0.4313699999999999  0.56094  0.4953599999999999  1.0000
  C   C685      1.0  0.43253  0.59383  0.53519  1.0000
  C   C686      1.0  0.43501  0.63591  0.54196  1.0000
  C   C687      1.0  0.43300999999999995  0.65096  0.5092399999999999  1.0000
  C   C688      1.0  0.7716699999999999  0.61891  0.47224  1.0000
  C   C689      1.0  0.73409  0.62176  0.40143999999999996  1.0000
  C   C690      1.0  0.4012800000000001  0.63095  0.36677  1.0000
  C   C691      1.0  0.7007700000000001  0.63694  0.33726  1.0000
  C   C692      1.0  0.6631900000000002  0.62596  0.33639999999999987  1.0000
  C   C693      1.0  0.66097  0.61162  0.36821  1.0000
  O   O383      1.0  0.6244000000000001  0.6008099999999998  0.3684099999999999  1.0000
  C   C694      1.0  0.61627  0.63508  0.3969699999999999  1.0000
  C   C695      1.0  0.6964899999999999  0.60977  0.40109  1.0000
  H   H453      1.0  0.8163900000000002  0.62532  0.40688  1.0000
  H   H454      1.0  0.81389  0.5546  0.38777  1.0000
  H   H455      1.0  0.43559999999999993  0.58726  0.5641799999999999  1.0000
  H   H456      1.0  0.44312000000000007  0.6589  0.57545  1.0000
  H   H457      1.0  0.4302500000000001  0.64316  0.37052  1.0000
  H   H458      1.0  0.63677  0.6326299999999999  0.3150499999999999  1.0000
  H   H459      1.0  0.58705  0.6261199999999999  0.3975199999999999  1.0000
  H   H460      1.0  0.6396199999999999  0.6472699999999999  0.4329599999999999  1.0000
  H   H461      1.0  0.61315  0.65859  0.38337  1.0000
  H   H462      1.0  0.6943099999999999  0.60038  0.4266599999999999  1.0000
  C   C696      1.0  0.56218  0.41539  0.4461799999999999  1.0000
  C   C697      1.0  0.57811  0.38674  0.46167  1.0000
  C   C698      1.0  0.61864  0.3879  0.47253  1.0000
  C   C699      1.0  0.63869  0.4086099999999999  0.45647  1.0000
  C   C700      1.0  0.61386  0.41839  0.41948999999999986  1.0000
  C   C701      1.0  0.62849  0.42473  0.3887399999999999  1.0000
  C   C702      1.0  0.5956  0.7569  0.34891  1.0000
  C   C703      1.0  0.5535300000000001  0.7544199999999999  0.3421399999999999  1.0000
  C   C704      1.0  0.53847  0.4230799999999999  0.3748599999999999  1.0000
  C   C705      1.0  0.57053  0.41776  0.4118599999999999  1.0000
  C   C706      1.0  0.56767  0.45533  0.48265999999999987  1.0000
  C   C707      1.0  0.55846  0.45480999999999994  0.51732  1.0000
  C   C708      1.0  0.55248  0.48866  0.54683  1.0000
  C   C709      1.0  0.5634600000000001  0.52624  0.5477  1.0000
  C   C710      1.0  0.5778100000000002  0.52847  0.51589  1.0000
  O   O384      1.0  0.58862  0.56504  0.5157  1.0000
  C   C711      1.0  0.55436  0.57317  0.48714  1.0000
  C   C712      1.0  0.57967  0.49294  0.48301  1.0000
  H   H463      1.0  0.56412  0.37304  0.4772299999999999  1.0000
  H   H464      1.0  0.6348400000000001  0.37555  0.49634  1.0000
  H   H465      1.0  0.60217  0.75383  0.31991  1.0000
  H   H466      1.0  0.5305300000000001  0.74631  0.30865  1.0000
  H   H467      1.0  0.54625  0.7591599999999998  0.51356  1.0000
  H   H468      1.0  0.55679  0.5526599999999999  0.5690499999999997  1.0000
  H   H469      1.0  0.56331  0.6023899999999999  0.4865899999999999  1.0000
  H   H470      1.0  0.54217  0.54982  0.45114  1.0000
  H   H471      1.0  0.53085  0.57629  0.50073  1.0000
  H   H472      1.0  0.58906  0.49513  0.4574499999999999  1.0000
  C   C713      1.0  0.43165  0.50654  0.64833  1.0000
  Ni  Ni55      1.0  0.41278  0.44332  0.5670499999999999  1.0000
  Ni  Ni56      1.0  0.42265  0.42380999999999985  0.6391699999999998  1.0000
  Ni  Ni57      1.0  0.43229000000000006  0.43345  0.74493  1.0000
  H   H473      1.0  0.48254  0.41135  0.68957  1.0000
  C   C714      1.0  0.6829  0.7577899999999999  0.7357799999999998  1.0000
  H   H474      1.0  0.77806  0.70689  0.69452  1.0000
  C   C715      1.0  0.5186900000000001  0.47984  0.8062099999999998  1.0000
  H   H475      1.0  0.41104  0.48252999999999996  0.78378  1.0000
  C   C716      1.0  0.37624999999999986  0.67074  0.5778899999999998  1.0000
  H   H476      1.0  0.70691  0.77839  0.60032  1.0000
  C   C717      1.0  0.7626099999999999  0.6987999999999999  0.7676099999999998  1.0000
  H   H477      1.0  0.73362  0.7018299999999998  0.6832599999999999  1.0000
  H   H478      1.0  0.4875999999999998  0.45579000000000003  0.7008299999999997  1.0000
  C   C718      1.0  0.49063000000000007  0.42682  0.61649  1.0000
  O   O385      1.0  0.6578000000000002  0.37899999999999995  0.5965399999999998  1.0000
  O   O386      1.0  0.70897  0.43272  0.65699  1.0000
  O   O387      1.0  0.4771  0.5316299999999999  0.7875499999999998  1.0000
  O   O388      1.0  0.42336999999999997  0.48045999999999994  0.7271  1.0000
  H   H479      1.0  0.70026  0.73518  0.5705999999999998  1.0000
  O   O389      1.0  0.41549  0.49457999999999996  0.6040299999999997  1.0000
  O   O390      1.0  0.4415700000000001  0.47947  0.6643099999999997  1.0000
  O   O391      1.0  0.6948500000000002  0.4406199999999999  0.7800799999999999  1.0000
  O   O392      1.0  0.7099600000000001  0.7478599999999999  0.7198  1.0000
  O   O393      1.0  0.51932  0.50097  0.84667  1.0000
  H   H480      1.0  0.45425000000000004  0.48917000000000005  0.8135  1.0000
  O   O394      1.0  0.48717  0.4525599999999999  0.7691099999999997  1.0000
  O   O395      1.0  0.3551299999999999  0.6701099999999999  0.5374299999999997  1.0000
  O   O396      1.0  0.40354  0.70225  0.61498  1.0000
  O   O397      1.0  0.4055499999999999  0.7189499999999999  0.7831299999999998  1.0000
  O   O398      1.0  0.7841099999999998  0.7251099999999998  0.7633899999999998  1.0000
  O   O399      1.0  0.47049  0.45055  0.60097  1.0000
  O   O400      1.0  0.46432  0.40532  0.62071  1.0000
  O   O401      1.0  0.46630000000000005  0.43238  0.69159  1.0000
  O   O402      1.0  0.75704  0.72313  0.6925099999999997  1.0000
  C   C719      1.0  0.66798  0.41249999999999987  0.6329499999999998  1.0000
  O   O403      1.0  0.43137  0.4668800000000001  0.79232  1.0000
  O   O404      1.0  0.7225600000000001  0.75806  0.59178  1.0000
  C   C720      1.0  0.4436  0.52145  0.75115  1.0000
  C   C721      1.0  0.7740399999999998  0.62725  0.6879199999999999  1.0000
  C   C722      1.0  0.80269  0.61133  0.67243  1.0000
  C   C723      1.0  0.8015300000000001  0.5708  0.66157  1.0000
  C   C724      1.0  0.78083  0.55075  0.67764  1.0000
  C   C725      1.0  0.43771  0.57557  0.71462  1.0000
  C   C726      1.0  0.4313699999999999  0.56094  0.7453599999999998  1.0000
  C   C727      1.0  0.43253999999999987  0.5938299999999999  0.7851899999999998  1.0000
  C   C728      1.0  0.43501  0.63591  0.7919599999999998  1.0000
  C   C729      1.0  0.43302  0.65096  0.75924  1.0000
  C   C730      1.0  0.7716699999999996  0.61891  0.7222399999999998  1.0000
  C   C731      1.0  0.73409  0.62176  0.6514399999999999  1.0000
  C   C732      1.0  0.40128000000000014  0.63095  0.61677  1.0000
  C   C733      1.0  0.70077  0.63694  0.58726  1.0000
  C   C734      1.0  0.6631900000000002  0.62596  0.5863999999999998  1.0000
  C   C735      1.0  0.66097  0.6116199999999999  0.6182099999999998  1.0000
  O   O405      1.0  0.6244000000000001  0.60081  0.61841  1.0000
  C   C736      1.0  0.61627  0.6350799999999998  0.6469699999999998  1.0000
  C   C737      1.0  0.6964899999999999  0.60977  0.6510899999999997  1.0000
  H   H481      1.0  0.81639  0.62532  0.65688  1.0000
  H   H482      1.0  0.8138900000000002  0.5546  0.63777  1.0000
  H   H483      1.0  0.43559999999999993  0.58726  0.8141899999999997  1.0000
  H   H484      1.0  0.44312000000000007  0.6589  0.82545  1.0000
  H   H485      1.0  0.43024999999999997  0.64316  0.6205199999999997  1.0000
  H   H486      1.0  0.63677  0.63264  0.56505  1.0000
  H   H487      1.0  0.58705  0.6261199999999999  0.6475199999999998  1.0000
  H   H488      1.0  0.63961  0.64727  0.6829599999999998  1.0000
  H   H489      1.0  0.61315  0.65859  0.63338  1.0000
  H   H490      1.0  0.69431  0.60037  0.67666  1.0000
  C   C738      1.0  0.5621799999999999  0.4153899999999998  0.6961799999999998  1.0000
  C   C739      1.0  0.5781099999999999  0.38673999999999986  0.7116699999999998  1.0000
  C   C740      1.0  0.6186399999999999  0.3878999999999999  0.7225299999999998  1.0000
  C   C741      1.0  0.63869  0.40860999999999986  0.7064699999999998  1.0000
  C   C742      1.0  0.6138599999999997  0.4183899999999999  0.6694899999999998  1.0000
  C   C743      1.0  0.62849  0.4247299999999999  0.6387399999999999  1.0000
  C   C744      1.0  0.5956  0.7569  0.59891  1.0000
  C   C745      1.0  0.5535300000000001  0.75442  0.5921399999999999  1.0000
  C   C746      1.0  0.53847  0.42308  0.62486  1.0000
  C   C747      1.0  0.57053  0.41776  0.66186  1.0000
  C   C748      1.0  0.56767  0.45533  0.7326599999999998  1.0000
  C   C749      1.0  0.55846  0.4548099999999998  0.7673199999999998  1.0000
  C   C750      1.0  0.55248  0.48866  0.7968299999999998  1.0000
  C   C751      1.0  0.5634600000000001  0.52624  0.7977  1.0000
  C   C752      1.0  0.5778100000000002  0.52847  0.76589  1.0000
  O   O406      1.0  0.58862  0.56504  0.7657  1.0000
  C   C753      1.0  0.55435  0.57317  0.73714  1.0000
  C   C754      1.0  0.57966  0.49294  0.73301  1.0000
  H   H491      1.0  0.5641199999999998  0.37304  0.7272299999999998  1.0000
  H   H492      1.0  0.63484  0.3755499999999999  0.7463399999999998  1.0000
  H   H493      1.0  0.60217  0.75383  0.56991  1.0000
  H   H494      1.0  0.5305300000000001  0.74631  0.55865  1.0000
  H   H495      1.0  0.54625  0.7591599999999998  0.76356  1.0000
  H   H496      1.0  0.5568  0.5526599999999999  0.8190499999999997  1.0000
  H   H497      1.0  0.56331  0.6023899999999999  0.7365899999999999  1.0000
  H   H498      1.0  0.54217  0.54982  0.70114  1.0000
  H   H499      1.0  0.5308399999999999  0.5762899999999999  0.7507299999999998  1.0000
  H   H500      1.0  0.58906  0.49513  0.70745  1.0000
  C   C755      1.0  0.4316499999999999  0.5065299999999999  0.8983299999999997  1.0000
  Ni  Ni58      1.0  0.41277999999999987  0.44332  0.8170499999999998  1.0000
  Ni  Ni59      1.0  0.42265  0.4238  0.88917  1.0000
  Ni  Ni60      1.0  0.43228000000000005  0.4334499999999999  0.9949299999999999  1.0000
  H   H501      1.0  0.48253000000000007  0.41134  0.93956  1.0000
  C   C756      1.0  0.6828899999999999  0.7577899999999999  0.9857799999999998  1.0000
  H   H502      1.0  0.77805  0.70688  0.94451  1.0000
  C   C757      1.0  0.51868  0.47984  0.0562  1.0000
  H   H503      1.0  0.4110400000000001  0.48252999999999996  0.03378  1.0000
  C   C758      1.0  0.37626  0.67073  0.8278799999999997  1.0000
  H   H504      1.0  0.70691  0.77839  0.85032  1.0000
  C   C759      1.0  0.76261  0.6988  0.01761  1.0000
  H   H505      1.0  0.73361  0.7018399999999998  0.9332499999999998  1.0000
  H   H506      1.0  0.48760000000000003  0.45577999999999985  0.9508199999999998  1.0000
  C   C760      1.0  0.49063000000000007  0.42681999999999987  0.8664799999999998  1.0000
  O   O407      1.0  0.6578000000000002  0.37899999999999995  0.8465299999999998  1.0000
  O   O408      1.0  0.70897  0.43272  0.90699  1.0000
  O   O409      1.0  0.47709000000000007  0.53163  0.03755  1.0000
  O   O410      1.0  0.42336  0.48045999999999994  0.9771  1.0000
  H   H507      1.0  0.70026  0.73518  0.8205999999999998  1.0000
  O   O411      1.0  0.41549  0.4945799999999999  0.8540299999999997  1.0000
  O   O412      1.0  0.44158000000000003  0.47947  0.9143099999999997  1.0000
  O   O413      1.0  0.6948500000000002  0.44061999999999996  0.030079999999999992  1.0000
  O   O414      1.0  0.70995  0.7478599999999999  0.9697999999999998  1.0000
  O   O415      1.0  0.51931  0.50097  0.09665999999999997  1.0000
  H   H508      1.0  0.45425000000000004  0.48917000000000005  0.06349  1.0000
  O   O416      1.0  0.48717  0.45255999999999996  0.01910999999999999  1.0000
  O   O417      1.0  0.35513  0.67011  0.78743  1.0000
  O   O418      1.0  0.40353999999999995  0.70224  0.8649799999999999  1.0000
  O   O419      1.0  0.40555  0.71895  0.03312999999999999  1.0000
  O   O420      1.0  0.7841  0.72512  0.013379999999999996  1.0000
  O   O421      1.0  0.47049  0.45055  0.8509699999999998  1.0000
  O   O422      1.0  0.46432  0.40532  0.87071  1.0000
  O   O423      1.0  0.46629999999999994  0.43236999999999987  0.9415799999999998  1.0000
  O   O424      1.0  0.75703  0.72313  0.9424999999999998  1.0000
  C   C761      1.0  0.66798  0.41249  0.88295  1.0000
  O   O425      1.0  0.43137  0.4668800000000001  0.04232  1.0000
  O   O426      1.0  0.7225600000000001  0.75806  0.84178  1.0000
  C   C762      1.0  0.44359000000000004  0.52145  0.00114  1.0000
  C   C763      1.0  0.7740399999999998  0.62725  0.9379199999999998  1.0000
  C   C764      1.0  0.8026899999999998  0.6113299999999999  0.9224299999999998  1.0000
  C   C765      1.0  0.8015300000000001  0.57079  0.9115799999999998  1.0000
  C   C766      1.0  0.7808300000000001  0.5507499999999999  0.9276399999999999  1.0000
  C   C767      1.0  0.43771  0.57557  0.9646099999999997  1.0000
  C   C768      1.0  0.43135999999999997  0.56094  0.9953599999999998  1.0000
  C   C769      1.0  0.43252  0.59383  0.03519  1.0000
  C   C770      1.0  0.435  0.63591  0.04195  1.0000
  C   C771      1.0  0.43301  0.65096  0.009239999999999998  1.0000
  C   C772      1.0  0.7716699999999999  0.61891  0.97224  1.0000
  C   C773      1.0  0.73409  0.62176  0.9014399999999998  1.0000
  C   C774      1.0  0.4012800000000001  0.63095  0.8667699999999998  1.0000
  C   C775      1.0  0.7007699999999999  0.63694  0.8372599999999998  1.0000
  C   C776      1.0  0.6631900000000001  0.62596  0.8363999999999998  1.0000
  C   C777      1.0  0.66097  0.61162  0.86821  1.0000
  O   O427      1.0  0.6244000000000001  0.60081  0.8684  1.0000
  C   C778      1.0  0.61627  0.6350799999999999  0.8969599999999998  1.0000
  C   C779      1.0  0.6964899999999999  0.60977  0.9010899999999997  1.0000
  H   H509      1.0  0.8163900000000002  0.62532  0.9068799999999998  1.0000
  H   H510      1.0  0.8138899999999999  0.5546  0.8877799999999999  1.0000
  H   H511      1.0  0.43559  0.58726  0.06418  1.0000
  H   H512      1.0  0.44311000000000006  0.6589  0.07545  1.0000
  H   H513      1.0  0.4302500000000001  0.64316  0.87052  1.0000
  H   H514      1.0  0.6367699999999998  0.63263  0.8150499999999999  1.0000
  H   H515      1.0  0.58705  0.6261299999999999  0.8975099999999998  1.0000
  H   H516      1.0  0.63961  0.64727  0.9329599999999998  1.0000
  H   H517      1.0  0.61315  0.6585899999999999  0.8833699999999999  1.0000
  H   H518      1.0  0.69431  0.60038  0.92665  1.0000
  C   C780      1.0  0.5621799999999999  0.4153799999999999  0.9461799999999998  1.0000
  C   C781      1.0  0.5781099999999999  0.38673999999999986  0.9616699999999998  1.0000
  C   C782      1.0  0.6186399999999999  0.38789999999999997  0.9725399999999997  1.0000
  C   C783      1.0  0.63868  0.4086  0.95647  1.0000
  C   C784      1.0  0.6138599999999997  0.4183899999999999  0.9194799999999997  1.0000
  C   C785      1.0  0.62849  0.4247199999999999  0.8887299999999998  1.0000
  C   C786      1.0  0.5955999999999999  0.7568899999999998  0.8489099999999998  1.0000
  C   C787      1.0  0.5535300000000001  0.75442  0.8421399999999998  1.0000
  C   C788      1.0  0.53847  0.42308  0.87486  1.0000
  C   C789      1.0  0.57053  0.41776  0.91186  1.0000
  C   C790      1.0  0.56767  0.45533  0.9826599999999998  1.0000
  C   C791      1.0  0.55846  0.45480999999999994  0.01732  1.0000
  C   C792      1.0  0.5524700000000001  0.48866  0.04682  1.0000
  C   C793      1.0  0.5634600000000001  0.52624  0.04769  1.0000
  C   C794      1.0  0.5778100000000002  0.52847  0.015889999999999998  1.0000
  O   O428      1.0  0.58862  0.56504  0.0157  1.0000
  C   C795      1.0  0.55436  0.57317  0.9871399999999998  1.0000
  C   C796      1.0  0.57967  0.49294  0.9830099999999998  1.0000
  H   H519      1.0  0.5641199999999998  0.37303999999999987  0.9772199999999998  1.0000
  H   H520      1.0  0.63484  0.3755499999999999  0.9963399999999998  1.0000
  H   H521      1.0  0.60217  0.7538299999999999  0.8199099999999998  1.0000
  H   H522      1.0  0.5305300000000001  0.7463100000000001  0.80865  1.0000
  H   H523      1.0  0.54624  0.7591599999999998  0.013549999999999996  1.0000
  H   H524      1.0  0.55679  0.5526599999999999  0.06905  1.0000
  H   H525      1.0  0.5633199999999999  0.6023899999999999  0.9865899999999997  1.0000
  H   H526      1.0  0.5421699999999999  0.54982  0.9511399999999998  1.0000
  H   H527      1.0  0.53085  0.57629  0.00073  1.0000
  H   H528      1.0  0.58906  0.49511999999999995  0.95745  1.0000
  C   C797      1.0  0.43165  0.83987  0.14833  1.0000
  Ni  Ni61      1.0  0.41278  0.7766499999999998  0.06704999999999997  1.0000
  Ni  Ni62      1.0  0.42265  0.7571399999999999  0.13916999999999996  1.0000
  Ni  Ni63      1.0  0.43229  0.7667800000000001  0.24493  1.0000
  H   H529      1.0  0.48254  0.74469  0.18956999999999993  1.0000
  C   C798      1.0  0.5186900000000001  0.8131699999999998  0.30621  1.0000
  H   H530      1.0  0.4110400000000001  0.81586  0.28378  1.0000
  C   C799      1.0  0.37625  0.00406  0.07788  1.0000
  C   C800      1.0  0.76261  0.03214  0.26761  1.0000
  H   H531      1.0  0.7336000000000003  0.035169999999999986  0.18325  1.0000
  H   H532      1.0  0.48760000000000003  0.78913  0.20082999999999995  1.0000
  C   C801      1.0  0.49063000000000007  0.76015  0.11648999999999997  1.0000
  O   O429      1.0  0.6578000000000002  0.71234  0.09653999999999999  1.0000
  O   O430      1.0  0.70897  0.76606  0.15699  1.0000
  O   O431      1.0  0.4771  0.86496  0.28755  1.0000
  O   O432      1.0  0.42337  0.8137899999999999  0.22709999999999994  1.0000
  H   H533      1.0  0.70027  0.06851  0.07060999999999998  1.0000
  O   O433      1.0  0.4154900000000001  0.82792  0.10402  1.0000
  O   O434      1.0  0.4415700000000001  0.81281  0.1643  1.0000
  O   O435      1.0  0.6948500000000002  0.77395  0.28008  1.0000
  O   O436      1.0  0.51932  0.8343  0.3466599999999999  1.0000
  H   H534      1.0  0.45425000000000004  0.82251  0.31349  1.0000
  O   O437      1.0  0.48717999999999995  0.78589  0.2691099999999999  1.0000
  O   O438      1.0  0.35512  0.0034399999999999977  0.03742999999999999  1.0000
  O   O439      1.0  0.40354  0.035569999999999984  0.11497999999999997  1.0000
  O   O440      1.0  0.40554999999999997  0.052279999999999986  0.28312999999999994  1.0000
  O   O441      1.0  0.7841  0.05845  0.26339  1.0000
  O   O442      1.0  0.47049  0.78388  0.10096999999999998  1.0000
  O   O443      1.0  0.46432  0.73866  0.12070999999999998  1.0000
  O   O444      1.0  0.46630000000000005  0.76572  0.19158999999999998  1.0000
  C   C802      1.0  0.66798  0.74584  0.13295  1.0000
  O   O445      1.0  0.4313699999999999  0.80021  0.29231999999999997  1.0000
  C   C803      1.0  0.4436  0.85478  0.25114  1.0000
  C   C804      1.0  0.77404  0.96059  0.18792  1.0000
  C   C805      1.0  0.80269  0.9446699999999999  0.17244  1.0000
  C   C806      1.0  0.8015300000000001  0.90413  0.16157  1.0000
  C   C807      1.0  0.7808300000000002  0.8840799999999999  0.17764  1.0000
  C   C808      1.0  0.43771  0.9089  0.21460999999999994  1.0000
  C   C809      1.0  0.43137  0.89428  0.24535999999999994  1.0000
  C   C810      1.0  0.4325399999999999  0.92716  0.2851899999999999  1.0000
  C   C811      1.0  0.43501  0.96924  0.29196  1.0000
  C   C812      1.0  0.43302000000000007  0.9843000000000001  0.25924  1.0000
  C   C813      1.0  0.77167  0.95224  0.22223999999999994  1.0000
  C   C814      1.0  0.73409  0.95509  0.15143999999999994  1.0000
  C   C815      1.0  0.40127  0.96428  0.11675999999999997  1.0000
  C   C816      1.0  0.70076  0.97027  0.08726  1.0000
  C   C817      1.0  0.66318  0.9593  0.08639999999999998  1.0000
  C   C818      1.0  0.66096  0.94495  0.11820999999999997  1.0000
  O   O446      1.0  0.62439  0.9341400000000001  0.11840999999999997  1.0000
  C   C819      1.0  0.61626  0.9684199999999998  0.14697  1.0000
  C   C820      1.0  0.69649  0.9431  0.1511  1.0000
  H   H535      1.0  0.8163900000000001  0.95866  0.15688999999999995  1.0000
  H   H536      1.0  0.81389  0.8879399999999998  0.13777  1.0000
  H   H537      1.0  0.43561000000000005  0.92059  0.3141899999999999  1.0000
  H   H538      1.0  0.44313  0.99224  0.3254499999999999  1.0000
  H   H539      1.0  0.43025  0.97648  0.12050999999999998  1.0000
  H   H540      1.0  0.63677  0.96597  0.06505  1.0000
  H   H541      1.0  0.58705  0.95946  0.14751999999999998  1.0000
  H   H542      1.0  0.6131500000000001  0.9919299999999999  0.13338  1.0000
  H   H543      1.0  0.69431  0.9337199999999999  0.17666  1.0000
  C   C821      1.0  0.56218  0.7487199999999999  0.19617999999999994  1.0000
  C   C822      1.0  0.57811  0.72008  0.21167  1.0000
  C   C823      1.0  0.61864  0.72124  0.22253  1.0000
  C   C824      1.0  0.63869  0.7419399999999999  0.20645999999999995  1.0000
  C   C825      1.0  0.61386  0.75173  0.16948  1.0000
  C   C826      1.0  0.62849  0.75806  0.13874  1.0000
  C   C827      1.0  0.53847  0.75642  0.12486  1.0000
  C   C828      1.0  0.57053  0.7511  0.16185999999999995  1.0000
  C   C829      1.0  0.56767  0.78867  0.23265999999999995  1.0000
  C   C830      1.0  0.55846  0.78814  0.26732  1.0000
  C   C831      1.0  0.55248  0.8219899999999998  0.29682999999999987  1.0000
  C   C832      1.0  0.5634600000000001  0.85958  0.2977  1.0000
  C   C833      1.0  0.5778100000000002  0.8617999999999999  0.26588999999999996  1.0000
  O   O447      1.0  0.58862  0.8983699999999999  0.2657  1.0000
  C   C834      1.0  0.55435  0.90651  0.23713999999999993  1.0000
  C   C835      1.0  0.57966  0.82628  0.23300999999999997  1.0000
  H   H544      1.0  0.5641199999999998  0.7063699999999999  0.22721999999999995  1.0000
  H   H545      1.0  0.6348400000000001  0.70889  0.24633999999999998  1.0000
  H   H546      1.0  0.5568000000000001  0.88599  0.31905  1.0000
  H   H547      1.0  0.5633  0.93573  0.23659  1.0000
  H   H548      1.0  0.5421600000000001  0.88316  0.20113999999999996  1.0000
  H   H549      1.0  0.53084  0.9096199999999999  0.25073  1.0000
  H   H550      1.0  0.58906  0.8284599999999999  0.20745  1.0000
  C   C836      1.0  0.4316499999999999  0.83987  0.39832999999999996  1.0000
  Ni  Ni64      1.0  0.4127800000000001  0.7766499999999998  0.31705  1.0000
  Ni  Ni65      1.0  0.42265  0.7571399999999999  0.38917  1.0000
  Ni  Ni66      1.0  0.43229  0.7667799999999999  0.49492999999999987  1.0000
  H   H551      1.0  0.48254  0.74468  0.4395699999999999  1.0000
  C   C837      1.0  0.5186900000000001  0.81317  0.55621  1.0000
  H   H552      1.0  0.4110400000000001  0.81586  0.53378  1.0000
  C   C838      1.0  0.3762499999999999  0.0040599999999999786  0.3278799999999999  1.0000
  C   C839      1.0  0.7626099999999999  0.03214  0.51761  1.0000
  H   H553      1.0  0.7336  0.03516999999999996  0.4332499999999999  1.0000
  H   H554      1.0  0.48760000000000003  0.78912  0.4508299999999999  1.0000
  C   C840      1.0  0.49063000000000007  0.76015  0.3664799999999999  1.0000
  O   O448      1.0  0.6578000000000002  0.7123299999999999  0.3465299999999999  1.0000
  O   O449      1.0  0.70897  0.7660499999999999  0.4069899999999999  1.0000
  O   O450      1.0  0.4771  0.86496  0.53755  1.0000
  O   O451      1.0  0.42337  0.8137899999999999  0.4770999999999999  1.0000
  H   H555      1.0  0.70027  0.06851  0.32061  1.0000
  O   O452      1.0  0.4154900000000001  0.82792  0.3540199999999999  1.0000
  O   O453      1.0  0.4415700000000001  0.81281  0.4143  1.0000
  O   O454      1.0  0.6948500000000001  0.77395  0.5300799999999999  1.0000
  O   O455      1.0  0.51931  0.8343  0.59666  1.0000
  H   H556      1.0  0.45425000000000004  0.82251  0.56349  1.0000
  O   O456      1.0  0.48717  0.78589  0.51911  1.0000
  O   O457      1.0  0.35513  0.0034400000000000025  0.28743  1.0000
  O   O458      1.0  0.40354  0.035570000000000004  0.36497  1.0000
  O   O459      1.0  0.40555  0.052279999999999986  0.53313  1.0000
  O   O460      1.0  0.7840999999999999  0.05844999999999995  0.5133799999999998  1.0000
  O   O461      1.0  0.47049  0.78388  0.35097  1.0000
  O   O462      1.0  0.46432  0.73865  0.3707099999999999  1.0000
  O   O463      1.0  0.46630000000000027  0.76571  0.44158  1.0000
  C   C841      1.0  0.66798  0.7458299999999998  0.38295  1.0000
  O   O464      1.0  0.43137  0.80021  0.54232  1.0000
  C   C842      1.0  0.4436  0.85478  0.50114  1.0000
  C   C843      1.0  0.77404  0.96059  0.43791999999999986  1.0000
  C   C844      1.0  0.8026900000000003  0.9446699999999999  0.42244  1.0000
  C   C845      1.0  0.8015300000000001  0.90413  0.41157  1.0000
  C   C846      1.0  0.7808300000000002  0.8840799999999999  0.4276399999999999  1.0000
  C   C847      1.0  0.43771  0.9089  0.46461  1.0000
  C   C848      1.0  0.4313699999999999  0.89428  0.4953599999999999  1.0000
  C   C849      1.0  0.43254  0.92716  0.53519  1.0000
  C   C850      1.0  0.43501  0.96924  0.54196  1.0000
  C   C851      1.0  0.43300999999999995  0.9843000000000001  0.5092399999999999  1.0000
  C   C852      1.0  0.77167  0.95224  0.47224  1.0000
  C   C853      1.0  0.73409  0.95509  0.40143999999999996  1.0000
  C   C854      1.0  0.40127  0.96428  0.36676  1.0000
  C   C855      1.0  0.70076  0.97027  0.33725  1.0000
  C   C856      1.0  0.66318  0.95929  0.33639999999999987  1.0000
  C   C857      1.0  0.66096  0.94495  0.36821  1.0000
  O   O465      1.0  0.6243899999999999  0.93415  0.3684099999999999  1.0000
  C   C858      1.0  0.61626  0.9684199999999998  0.3969699999999999  1.0000
  C   C859      1.0  0.69649  0.9431  0.4011  1.0000
  H   H557      1.0  0.8163900000000002  0.95866  0.40689  1.0000
  H   H558      1.0  0.81389  0.8879399999999998  0.38777  1.0000
  H   H559      1.0  0.43559999999999993  0.92059  0.5641899999999999  1.0000
  H   H560      1.0  0.44312000000000007  0.99224  0.57545  1.0000
  H   H561      1.0  0.43025  0.97648  0.37051  1.0000
  H   H562      1.0  0.63677  0.96596  0.31504  1.0000
  H   H563      1.0  0.58705  0.9594699999999999  0.3975199999999999  1.0000
  H   H564      1.0  0.6131500000000001  0.9919299999999999  0.38337  1.0000
  H   H565      1.0  0.69431  0.9337199999999999  0.4266599999999999  1.0000
  C   C860      1.0  0.56218  0.74872  0.4461799999999999  1.0000
  C   C861      1.0  0.57811  0.72008  0.46167  1.0000
  C   C862      1.0  0.61864  0.72124  0.47253  1.0000
  C   C863      1.0  0.63869  0.74194  0.45646  1.0000
  C   C864      1.0  0.61386  0.75172  0.41948  1.0000
  C   C865      1.0  0.6284899999999999  0.75806  0.3887299999999999  1.0000
  C   C866      1.0  0.5384699999999999  0.75642  0.3748599999999999  1.0000
  C   C867      1.0  0.57053  0.7510899999999999  0.4118599999999999  1.0000
  C   C868      1.0  0.56767  0.78867  0.48265999999999987  1.0000
  C   C869      1.0  0.55846  0.7881399999999998  0.51732  1.0000
  C   C870      1.0  0.55248  0.82199  0.54683  1.0000
  C   C871      1.0  0.5634600000000001  0.85958  0.5477  1.0000
  C   C872      1.0  0.5778100000000002  0.8617999999999999  0.51589  1.0000
  O   O466      1.0  0.58862  0.8983699999999999  0.5157  1.0000
  C   C873      1.0  0.55435  0.90651  0.48714  1.0000
  C   C874      1.0  0.57966  0.82628  0.48301  1.0000
  H   H566      1.0  0.5641199999999998  0.7063699999999999  0.47721999999999987  1.0000
  H   H567      1.0  0.6348400000000001  0.70889  0.49634  1.0000
  H   H568      1.0  0.55679  0.88599  0.5690499999999997  1.0000
  H   H569      1.0  0.56331  0.93573  0.4865899999999999  1.0000
  H   H570      1.0  0.5421600000000001  0.88316  0.45114  1.0000
  H   H571      1.0  0.53084  0.9096199999999999  0.50073  1.0000
  H   H572      1.0  0.58906  0.8284599999999999  0.4574499999999999  1.0000
  C   C875      1.0  0.43165000000000003  0.83987  0.64833  1.0000
  Ni  Ni67      1.0  0.4127799999999999  0.7766499999999998  0.5670499999999999  1.0000
  Ni  Ni68      1.0  0.42264999999999997  0.7571399999999998  0.6391699999999998  1.0000
  Ni  Ni69      1.0  0.43229  0.76678  0.74493  1.0000
  H   H573      1.0  0.48254  0.74468  0.68957  1.0000
  C   C876      1.0  0.5186900000000001  0.8131699999999997  0.8062099999999998  1.0000
  H   H574      1.0  0.41104000000000007  0.81586  0.78378  1.0000
  C   C877      1.0  0.3762499999999999  0.004059999999999906  0.5778799999999997  1.0000
  C   C878      1.0  0.7626099999999999  0.032139999999999926  0.7676099999999998  1.0000
  H   H575      1.0  0.7335999999999998  0.03516999999999991  0.6832499999999998  1.0000
  H   H576      1.0  0.4875999999999999  0.7891299999999999  0.7008299999999997  1.0000
  C   C879      1.0  0.49062999999999996  0.76015  0.6164799999999999  1.0000
  O   O467      1.0  0.6578000000000002  0.71234  0.5965399999999998  1.0000
  O   O468      1.0  0.70897  0.7660599999999999  0.65699  1.0000
  O   O469      1.0  0.47709999999999986  0.86496  0.7875499999999998  1.0000
  O   O470      1.0  0.42337  0.81379  0.7271  1.0000
  H   H577      1.0  0.70027  0.06850999999999993  0.5706099999999997  1.0000
  O   O471      1.0  0.41549  0.8279199999999998  0.6040199999999998  1.0000
  O   O472      1.0  0.4415700000000001  0.81281  0.6642999999999998  1.0000
  O   O473      1.0  0.6948500000000001  0.77395  0.7800799999999999  1.0000
  O   O474      1.0  0.51932  0.8343  0.84666  1.0000
  H   H578      1.0  0.45424999999999993  0.82251  0.8134899999999999  1.0000
  O   O475      1.0  0.48717  0.7858899999999999  0.7691099999999997  1.0000
  O   O476      1.0  0.35512999999999995  0.003439999999999905  0.5374299999999997  1.0000
  O   O477      1.0  0.40354  0.03557000000000003  0.61498  1.0000
  O   O478      1.0  0.4055499999999999  0.05227999999999991  0.7831299999999998  1.0000
  O   O479      1.0  0.7840999999999999  0.05844999999999993  0.7633799999999997  1.0000
  O   O480      1.0  0.47049000000000024  0.78388  0.60097  1.0000
  O   O481      1.0  0.46432  0.73865  0.62071  1.0000
  O   O482      1.0  0.46630000000000005  0.76571  0.69159  1.0000
  C   C880      1.0  0.66798  0.7458299999999999  0.6329499999999998  1.0000
  O   O483      1.0  0.43137  0.80021  0.79232  1.0000
  C   C881      1.0  0.4436  0.85478  0.75114  1.0000
  C   C882      1.0  0.77404  0.96059  0.6879199999999999  1.0000
  C   C883      1.0  0.8026900000000003  0.9446699999999999  0.67244  1.0000
  C   C884      1.0  0.8015300000000001  0.90413  0.66157  1.0000
  C   C885      1.0  0.7808300000000002  0.8840799999999999  0.67764  1.0000
  C   C886      1.0  0.43771  0.9089  0.71461  1.0000
  C   C887      1.0  0.4313699999999999  0.89428  0.7453599999999998  1.0000
  C   C888      1.0  0.43253999999999987  0.9271599999999999  0.7851899999999998  1.0000
  C   C889      1.0  0.4350199999999999  0.96924  0.7919599999999998  1.0000
  C   C890      1.0  0.43302  0.9843000000000001  0.75924  1.0000
  C   C891      1.0  0.77167  0.9522399999999998  0.7222399999999998  1.0000
  C   C892      1.0  0.73409  0.95509  0.6514399999999999  1.0000
  C   C893      1.0  0.40127  0.96428  0.61676  1.0000
  C   C894      1.0  0.70076  0.97027  0.58726  1.0000
  C   C895      1.0  0.66318  0.95929  0.5863999999999998  1.0000
  C   C896      1.0  0.66096  0.94495  0.6182099999999998  1.0000
  O   O484      1.0  0.62439  0.93415  0.61841  1.0000
  C   C897      1.0  0.61626  0.9684199999999998  0.6469699999999998  1.0000
  C   C898      1.0  0.69649  0.9431  0.6510999999999998  1.0000
  H   H579      1.0  0.8163900000000002  0.95866  0.65689  1.0000
  H   H580      1.0  0.81389  0.8879399999999998  0.63777  1.0000
  H   H581      1.0  0.43561000000000005  0.92059  0.8141899999999997  1.0000
  H   H582      1.0  0.44313  0.99224  0.82546  1.0000
  H   H583      1.0  0.43025  0.97648  0.62051  1.0000
  H   H584      1.0  0.63677  0.96597  0.56505  1.0000
  H   H585      1.0  0.58705  0.9594699999999998  0.6475199999999998  1.0000
  H   H586      1.0  0.6131500000000001  0.9919299999999999  0.63337  1.0000
  H   H587      1.0  0.69431  0.9337199999999999  0.67666  1.0000
  C   C899      1.0  0.56218  0.74872  0.6961799999999998  1.0000
  C   C900      1.0  0.57811  0.7200799999999998  0.7116699999999998  1.0000
  C   C901      1.0  0.61864  0.7212399999999998  0.7225299999999998  1.0000
  C   C902      1.0  0.6386899999999999  0.7419399999999998  0.7064599999999998  1.0000
  C   C903      1.0  0.6138599999999999  0.75172  0.6694799999999997  1.0000
  C   C904      1.0  0.6284899999999998  0.7580599999999997  0.6387299999999998  1.0000
  C   C905      1.0  0.53847  0.7564199999999999  0.62486  1.0000
  C   C906      1.0  0.57053  0.75109  0.66186  1.0000
  C   C907      1.0  0.5676699999999999  0.78867  0.7326599999999998  1.0000
  C   C908      1.0  0.5584599999999998  0.7881399999999998  0.7673199999999998  1.0000
  C   C909      1.0  0.55248  0.82199  0.7968299999999998  1.0000
  C   C910      1.0  0.5634600000000001  0.85958  0.7977  1.0000
  C   C911      1.0  0.5778100000000002  0.8617999999999999  0.76589  1.0000
  O   O485      1.0  0.58862  0.8983699999999999  0.7657  1.0000
  C   C912      1.0  0.55435  0.9064999999999999  0.73714  1.0000
  C   C913      1.0  0.57966  0.8262800000000001  0.73301  1.0000
  H   H588      1.0  0.5641199999999998  0.7063699999999999  0.7272199999999998  1.0000
  H   H589      1.0  0.6348400000000001  0.70889  0.7463399999999998  1.0000
  H   H590      1.0  0.5568  0.88599  0.8190499999999997  1.0000
  H   H591      1.0  0.5633  0.93572  0.7365899999999999  1.0000
  H   H592      1.0  0.5421600000000001  0.88315  0.70114  1.0000
  H   H593      1.0  0.53084  0.9096199999999999  0.7507299999999998  1.0000
  H   H594      1.0  0.58906  0.8284599999999999  0.70745  1.0000
  C   C914      1.0  0.4316499999999999  0.8398699999999999  0.8983299999999997  1.0000
  Ni  Ni70      1.0  0.41277999999999987  0.7766499999999998  0.8170499999999998  1.0000
  Ni  Ni71      1.0  0.42265  0.75713  0.88917  1.0000
  Ni  Ni72      1.0  0.43228  0.7667799999999999  0.9949199999999998  1.0000
  H   H595      1.0  0.48254  0.74467  0.93956  1.0000
  C   C915      1.0  0.51868  0.81317  0.0562  1.0000
  H   H596      1.0  0.4110400000000001  0.81586  0.03378  1.0000
  C   C916      1.0  0.37624999999999986  0.004059999999999906  0.8278699999999998  1.0000
  C   C917      1.0  0.76261  0.03214  0.01761  1.0000
  H   H597      1.0  0.7335900000000001  0.035179999999999934  0.9332399999999997  1.0000
  H   H598      1.0  0.48760000000000003  0.7891199999999999  0.9508199999999998  1.0000
  C   C918      1.0  0.49063000000000007  0.76015  0.8664799999999998  1.0000
  O   O486      1.0  0.6578000000000002  0.7123299999999999  0.8465299999999998  1.0000
  O   O487      1.0  0.70897  0.76605  0.90699  1.0000
  O   O488      1.0  0.47709000000000007  0.86496  0.03755  1.0000
  O   O489      1.0  0.42336  0.8137899999999999  0.9771  1.0000
  H   H599      1.0  0.70027  0.06850999999999988  0.8206099999999997  1.0000
  O   O490      1.0  0.4154900000000001  0.82792  0.8540199999999998  1.0000
  O   O491      1.0  0.44158000000000003  0.81281  0.9143099999999997  1.0000
  O   O492      1.0  0.6948500000000002  0.77395  0.030079999999999992  1.0000
  O   O493      1.0  0.51931  0.8343  0.09665999999999997  1.0000
  H   H600      1.0  0.45425000000000004  0.82251  0.06349  1.0000
  O   O494      1.0  0.48717  0.7859  0.019099999999999992  1.0000
  O   O495      1.0  0.35512  0.0034399999999999782  0.78742  1.0000
  O   O496      1.0  0.40353999999999995  0.03556999999999991  0.8649699999999998  1.0000
  O   O497      1.0  0.40555  0.05228  0.03312999999999999  1.0000
  O   O498      1.0  0.7841  0.05845  0.013379999999999996  1.0000
  O   O499      1.0  0.47049  0.78388  0.8509699999999998  1.0000
  O   O500      1.0  0.46432  0.73865  0.87071  1.0000
  O   O501      1.0  0.46629999999999994  0.7657099999999998  0.9415799999999998  1.0000
  C   C919      1.0  0.66798  0.7458299999999999  0.88295  1.0000
  O   O502      1.0  0.43137  0.80021  0.04232  1.0000
  C   C920      1.0  0.44359000000000004  0.85478  0.00114  1.0000
  C   C921      1.0  0.77404  0.96059  0.9379199999999998  1.0000
  C   C922      1.0  0.8026899999999996  0.9446599999999998  0.9224299999999998  1.0000
  C   C923      1.0  0.80153  0.9041299999999998  0.9115699999999998  1.0000
  C   C924      1.0  0.7808300000000002  0.8840799999999999  0.9276399999999999  1.0000
  C   C925      1.0  0.4377099999999999  0.9089  0.9646099999999997  1.0000
  C   C926      1.0  0.43136999999999986  0.89428  0.9953599999999998  1.0000
  C   C927      1.0  0.43253  0.92716  0.03519  1.0000
  C   C928      1.0  0.43501  0.96924  0.04195  1.0000
  C   C929      1.0  0.43301  0.9843000000000001  0.009239999999999998  1.0000
  C   C930      1.0  0.77167  0.95224  0.97224  1.0000
  C   C931      1.0  0.73409  0.95509  0.9014299999999997  1.0000
  C   C932      1.0  0.40126999999999996  0.9642699999999998  0.8667599999999998  1.0000
  C   C933      1.0  0.70076  0.97026  0.8372499999999998  1.0000
  C   C934      1.0  0.66318  0.95929  0.8363899999999997  1.0000
  C   C935      1.0  0.66096  0.94495  0.86821  1.0000
  O   O503      1.0  0.62439  0.93415  0.8684  1.0000
  C   C936      1.0  0.61626  0.9684199999999998  0.8969599999999998  1.0000
  C   C937      1.0  0.69648  0.9431  0.9010899999999997  1.0000
  H   H601      1.0  0.8163900000000001  0.95866  0.9068799999999998  1.0000
  H   H602      1.0  0.81389  0.8879399999999998  0.8877799999999999  1.0000
  H   H603      1.0  0.43559999999999993  0.92059  0.06418  1.0000
  H   H604      1.0  0.44312000000000007  0.99224  0.07545  1.0000
  H   H605      1.0  0.43025  0.97648  0.8705  1.0000
  H   H606      1.0  0.63677  0.96596  0.81504  1.0000
  H   H607      1.0  0.58705  0.9594699999999999  0.8975099999999998  1.0000
  H   H608      1.0  0.6131500000000001  0.9919299999999999  0.8833699999999999  1.0000
  H   H609      1.0  0.6943000000000001  0.9337199999999999  0.92666  1.0000
  C   C938      1.0  0.56218  0.74872  0.9461799999999998  1.0000
  C   C939      1.0  0.5781099999999999  0.72007  0.9616699999999998  1.0000
  C   C940      1.0  0.61864  0.72124  0.9725299999999998  1.0000
  C   C941      1.0  0.63868  0.74194  0.95646  1.0000
  C   C942      1.0  0.6138599999999999  0.75172  0.9194799999999997  1.0000
  C   C943      1.0  0.6284899999999999  0.75806  0.8887299999999998  1.0000
  C   C944      1.0  0.53847  0.75641  0.87486  1.0000
  C   C945      1.0  0.57053  0.75109  0.91186  1.0000
  C   C946      1.0  0.5676699999999999  0.78867  0.9826499999999998  1.0000
  C   C947      1.0  0.55846  0.78814  0.01731  1.0000
  C   C948      1.0  0.55248  0.82199  0.04682  1.0000
  C   C949      1.0  0.5634600000000001  0.85958  0.04769  1.0000
  C   C950      1.0  0.5778100000000002  0.8617999999999999  0.015889999999999998  1.0000
  O   O504      1.0  0.58862  0.8983699999999999  0.0157  1.0000
  C   C951      1.0  0.5543599999999999  0.90651  0.9871399999999998  1.0000
  C   C952      1.0  0.57967  0.82627  0.9830099999999998  1.0000
  H   H610      1.0  0.5641199999999998  0.7063699999999999  0.9772199999999998  1.0000
  H   H611      1.0  0.6348400000000001  0.70889  0.9963399999999998  1.0000
  H   H612      1.0  0.55679  0.88599  0.06905  1.0000
  H   H613      1.0  0.56331  0.9357299999999998  0.9865899999999997  1.0000
  H   H614      1.0  0.54217  0.88316  0.9511399999999998  1.0000
  H   H615      1.0  0.53085  0.9096199999999999  0.0007199999999999998  1.0000
  H   H616      1.0  0.58906  0.82846  0.95745  1.0000
  C   C953      1.0  0.7649900000000001  0.17319999999999997  0.14833999999999994  1.0000
  Ni  Ni73      1.0  0.74612  0.10998  0.06706  1.0000
  Ni  Ni74      1.0  0.75599  0.09045999999999998  0.13916999999999996  1.0000
  Ni  Ni75      1.0  0.76561  0.10012  0.24493  1.0000
  H   H617      1.0  0.81587  0.07798999999999998  0.18955999999999995  1.0000
  C   C954      1.0  0.016229999999999977  0.42446  0.23577999999999993  1.0000
  H   H618      1.0  0.11140000000000001  0.37355  0.19453  1.0000
  C   C955      1.0  0.85202  0.1465  0.3062  1.0000
  H   H619      1.0  0.74438  0.1492  0.28379  1.0000
  C   C956      1.0  0.70959  0.33741  0.07788999999999997  1.0000
  H   H620      1.0  0.04024000000000001  0.44506  0.10033  1.0000
  C   C957      1.0  0.09594  0.36546999999999996  0.26761  1.0000
  H   H621      1.0  0.06696  0.3685  0.18326  1.0000
  H   H622      1.0  0.82094  0.12243999999999994  0.20081999999999994  1.0000
  C   C958      1.0  0.82397  0.09347999999999998  0.11648999999999997  1.0000
  O   O505      1.0  0.99114  0.04565999999999999  0.09653999999999999  1.0000
  O   O506      1.0  0.04231  0.09938000000000001  0.157  1.0000
  O   O507      1.0  0.81043  0.19829  0.28755  1.0000
  O   O508      1.0  0.7567  0.14712999999999998  0.22710999999999995  1.0000
  H   H623      1.0  0.033599999999999984  0.40185  0.07060999999999998  1.0000
  O   O509      1.0  0.7488300000000001  0.16125  0.10403999999999997  1.0000
  O   O510      1.0  0.77492  0.14612999999999998  0.16431999999999994  1.0000
  O   O511      1.0  0.02818999999999998  0.10729  0.28009  1.0000
  O   O512      1.0  0.04329000000000001  0.41453  0.21979999999999994  1.0000
  O   O513      1.0  0.8526499999999999  0.16762999999999995  0.3466599999999999  1.0000
  H   H624      1.0  0.78759  0.15583999999999995  0.3134999999999999  1.0000
  O   O514      1.0  0.8205  0.11922999999999995  0.2691099999999999  1.0000
  O   O515      1.0  0.68846  0.33678  0.03743999999999999  1.0000
  O   O516      1.0  0.73687  0.36892  0.11499  1.0000
  O   O517      1.0  0.73888  0.3856099999999999  0.28312999999999994  1.0000
  O   O518      1.0  0.11744  0.39178  0.26339  1.0000
  O   O519      1.0  0.80382  0.11720999999999997  0.10096999999999998  1.0000
  O   O520      1.0  0.79765  0.07197999999999999  0.12070999999999998  1.0000
  O   O521      1.0  0.79964  0.09902999999999998  0.19157999999999994  1.0000
  O   O522      1.0  0.09037  0.38979  0.19251  1.0000
  O   O523      1.0  0.7647000000000002  0.13355  0.29233  1.0000
  O   O524      1.0  0.055889999999999995  0.42473  0.09177999999999997  1.0000
  C   C959      1.0  0.77692  0.18812  0.25115  1.0000
  C   C960      1.0  0.10737  0.29392  0.18792  1.0000
  C   C961      1.0  0.13602  0.27799  0.17244  1.0000
  C   C962      1.0  0.13487  0.23746  0.16158  1.0000
  C   C963      1.0  0.11416999999999998  0.21740999999999996  0.17764999999999995  1.0000
  C   C964      1.0  0.77104  0.24223999999999998  0.21461999999999995  1.0000
  C   C965      1.0  0.7647000000000002  0.22761  0.24536999999999998  1.0000
  C   C966      1.0  0.7658599999999999  0.26049999999999995  0.2851899999999999  1.0000
  C   C967      1.0  0.76834  0.30257  0.29196  1.0000
  C   C968      1.0  0.7663500000000001  0.31763  0.25924  1.0000
  C   C969      1.0  0.10499999999999998  0.28557  0.22223999999999994  1.0000
  C   C970      1.0  0.06743  0.28841999999999995  0.15143999999999994  1.0000
  C   C971      1.0  0.7346100000000001  0.29762  0.11677999999999997  1.0000
  C   C972      1.0  0.0341  0.30361  0.08727  1.0000
  C   C973      1.0  0.9965199999999999  0.29263  0.08640999999999997  1.0000
  C   C974      1.0  0.9943  0.27828  0.11820999999999997  1.0000
  O   O525      1.0  0.95773  0.26747  0.11840999999999997  1.0000
  C   C975      1.0  0.9496000000000001  0.30174  0.14697  1.0000
  C   C976      1.0  0.02982  0.27643  0.1511  1.0000
  H   H625      1.0  0.14971999999999996  0.29197999999999996  0.15687999999999994  1.0000
  H   H626      1.0  0.14723  0.22126  0.13778  1.0000
  H   H627      1.0  0.76893  0.2539199999999999  0.3141899999999999  1.0000
  H   H628      1.0  0.7764500000000001  0.32556999999999997  0.3254499999999999  1.0000
  H   H629      1.0  0.76359  0.30983999999999995  0.12052999999999997  1.0000
  H   H630      1.0  0.9701  0.2993  0.06506  1.0000
  H   H631      1.0  0.92038  0.29278  0.14751999999999998  1.0000
  H   H632      1.0  0.9729500000000001  0.31393  0.18296999999999994  1.0000
  H   H633      1.0  0.9464800000000001  0.32525  0.13338  1.0000
  H   H634      1.0  0.027640000000000005  0.26703  0.17666  1.0000
  C   C977      1.0  0.89551  0.08204999999999998  0.19617999999999994  1.0000
  C   C978      1.0  0.9472  0.08506  0.16949  1.0000
  C   C979      1.0  0.9618300000000001  0.09139  0.13874  1.0000
  C   C980      1.0  0.9289400000000001  0.42356999999999995  0.09891  1.0000
  C   C981      1.0  0.88686  0.4211  0.09215  1.0000
  C   C982      1.0  0.87181  0.08975  0.12486  1.0000
  C   C983      1.0  0.90386  0.08441999999999997  0.16185999999999995  1.0000
  C   C984      1.0  0.901  0.122  0.23265999999999995  1.0000
  C   C985      1.0  0.89179  0.12146999999999998  0.26732  1.0000
  C   C986      1.0  0.88581  0.15531999999999996  0.29682999999999987  1.0000
  C   C987      1.0  0.89679  0.19291  0.2977  1.0000
  C   C988      1.0  0.91115  0.19512999999999997  0.26588999999999996  1.0000
  O   O526      1.0  0.92196  0.2317  0.2657  1.0000
  C   C989      1.0  0.8877000000000002  0.23984  0.23713999999999993  1.0000
  C   C990      1.0  0.913  0.15961  0.23300999999999997  1.0000
  H   H635      1.0  0.96817  0.042220000000000014  0.24635  1.0000
  H   H636      1.0  0.9355  0.42051  0.06992  1.0000
  H   H637      1.0  0.86386  0.41298  0.05864999999999999  1.0000
  H   H638      1.0  0.8795800000000001  0.42583  0.26355999999999996  1.0000
  H   H639      1.0  0.89013  0.21932999999999997  0.31905  1.0000
  H   H640      1.0  0.8966600000000001  0.26906  0.23659  1.0000
  H   H641      1.0  0.8755099999999999  0.21648999999999996  0.20114999999999994  1.0000
  H   H642      1.0  0.86419  0.24296  0.25073  1.0000
  H   H643      1.0  0.9224000000000001  0.16179  0.20746  1.0000
  C   C991      1.0  0.7649900000000001  0.1732  0.39834  1.0000
  Ni  Ni76      1.0  0.74612  0.10998  0.31706  1.0000
  Ni  Ni77      1.0  0.75599  0.09045999999999998  0.38917  1.0000
  Ni  Ni78      1.0  0.76561  0.10011999999999997  0.49492999999999987  1.0000
  H   H644      1.0  0.81587  0.07797999999999995  0.4395599999999999  1.0000
  C   C992      1.0  0.01622999999999995  0.42445999999999995  0.4857799999999999  1.0000
  H   H645      1.0  0.11138999999999998  0.37355  0.4445199999999999  1.0000
  C   C993      1.0  0.85201  0.14650000000000002  0.5562  1.0000
  H   H646      1.0  0.74438  0.1492  0.53379  1.0000
  C   C994      1.0  0.7095899999999999  0.3374  0.3278899999999999  1.0000
  H   H647      1.0  0.04025  0.44506  0.35032  1.0000
  C   C995      1.0  0.09593999999999996  0.36546999999999996  0.51761  1.0000
  H   H648      1.0  0.06694999999999994  0.3685  0.43325999999999987  1.0000
  H   H649      1.0  0.8209399999999998  0.12242999999999994  0.4508199999999999  1.0000
  C   C996      1.0  0.82397  0.09347999999999998  0.3664799999999999  1.0000
  O   O527      1.0  0.99114  0.04565999999999995  0.3465399999999999  1.0000
  O   O528      1.0  0.04231000000000003  0.09938  0.407  1.0000
  O   O529      1.0  0.81042  0.19829  0.53755  1.0000
  O   O530      1.0  0.75669  0.14712999999999998  0.47710999999999987  1.0000
  H   H650      1.0  0.033599999999999984  0.40183999999999986  0.32061  1.0000
  O   O531      1.0  0.7488300000000001  0.16124999999999995  0.3540399999999999  1.0000
  O   O532      1.0  0.77492  0.14612999999999995  0.4143199999999999  1.0000
  O   O533      1.0  0.02818999999999999  0.10729  0.53009  1.0000
  O   O534      1.0  0.043289999999999995  0.41453  0.4698  1.0000
  O   O535      1.0  0.85265  0.16763  0.59666  1.0000
  H   H651      1.0  0.78759  0.15584  0.5635  1.0000
  O   O536      1.0  0.8205  0.11923  0.5191  1.0000
  O   O537      1.0  0.68846  0.33678  0.28743  1.0000
  O   O538      1.0  0.73687  0.36890999999999996  0.36498  1.0000
  O   O539      1.0  0.73888  0.38561  0.53313  1.0000
  O   O540      1.0  0.11743999999999997  0.39177999999999996  0.5133899999999999  1.0000
  O   O541      1.0  0.8038200000000001  0.11721000000000002  0.35097  1.0000
  O   O542      1.0  0.7976599999999999  0.07197999999999996  0.3707099999999999  1.0000
  O   O543      1.0  0.79964  0.09902  0.44158  1.0000
  O   O544      1.0  0.09037000000000003  0.38979  0.44251  1.0000
  O   O545      1.0  0.7647000000000002  0.13355  0.54233  1.0000
  O   O546      1.0  0.05589000000000004  0.42473  0.34178  1.0000
  C   C997      1.0  0.77692  0.18811  0.50115  1.0000
  C   C998      1.0  0.10737999999999996  0.29392  0.43791999999999986  1.0000
  C   C999      1.0  0.13602  0.27799  0.42244  1.0000
  C   C1000     1.0  0.13487  0.23746  0.41158  1.0000
  C   C1001     1.0  0.11416999999999995  0.21740999999999994  0.42764999999999986  1.0000
  C   C1002     1.0  0.77104  0.24224000000000004  0.46462  1.0000
  C   C1003     1.0  0.7647000000000002  0.22761  0.49536999999999987  1.0000
  C   C1004     1.0  0.76586  0.2605  0.53519  1.0000
  C   C1005     1.0  0.76834  0.30257  0.54196  1.0000
  C   C1006     1.0  0.7663500000000001  0.31762999999999997  0.5092399999999999  1.0000
  C   C1007     1.0  0.105  0.28557  0.47224  1.0000
  C   C1008     1.0  0.06742999999999999  0.28841999999999995  0.40143999999999996  1.0000
  C   C1009     1.0  0.7346100000000001  0.29762  0.36677  1.0000
  C   C1010     1.0  0.03409999999999997  0.30361  0.33727  1.0000
  C   C1011     1.0  0.9965199999999999  0.29262999999999995  0.33639999999999987  1.0000
  C   C1012     1.0  0.9943  0.27828  0.36821  1.0000
  O   O547      1.0  0.95773  0.26747  0.3684099999999999  1.0000
  C   C1013     1.0  0.9496000000000001  0.30173999999999995  0.3969699999999999  1.0000
  C   C1014     1.0  0.029819999999999992  0.27643  0.4011  1.0000
  H   H652      1.0  0.14972  0.29198  0.40688  1.0000
  H   H653      1.0  0.14723  0.22126  0.3877899999999999  1.0000
  H   H654      1.0  0.7689199999999999  0.2539199999999999  0.5641899999999999  1.0000
  H   H655      1.0  0.7764500000000001  0.32556999999999997  0.57545  1.0000
  H   H656      1.0  0.76359  0.30982999999999994  0.37053  1.0000
  H   H657      1.0  0.9701  0.2993  0.3150599999999999  1.0000
  H   H658      1.0  0.92038  0.29278999999999994  0.3975199999999999  1.0000
  H   H659      1.0  0.9729500000000001  0.31393  0.4329699999999999  1.0000
  H   H660      1.0  0.9464800000000001  0.32525  0.3833799999999999  1.0000
  H   H661      1.0  0.02763999999999997  0.26704  0.4266599999999999  1.0000
  C   C1015     1.0  0.89551  0.08204999999999997  0.4461799999999999  1.0000
  C   C1016     1.0  0.9472  0.08504999999999997  0.41948999999999986  1.0000
  C   C1017     1.0  0.9618300000000001  0.09138999999999997  0.3887399999999999  1.0000
  C   C1018     1.0  0.9289400000000001  0.42355999999999994  0.34891  1.0000
  C   C1019     1.0  0.88686  0.42108999999999996  0.3421399999999999  1.0000
  C   C1020     1.0  0.87181  0.08974999999999995  0.3748599999999999  1.0000
  C   C1021     1.0  0.90386  0.08441999999999994  0.4118599999999999  1.0000
  C   C1022     1.0  0.901  0.12199999999999996  0.48265999999999987  1.0000
  C   C1023     1.0  0.89179  0.12146999999999998  0.51732  1.0000
  C   C1024     1.0  0.88581  0.15532  0.54682  1.0000
  C   C1025     1.0  0.89679  0.19290999999999997  0.5476899999999999  1.0000
  C   C1026     1.0  0.91115  0.19512999999999997  0.51589  1.0000
  O   O548      1.0  0.92196  0.2317  0.5157  1.0000
  C   C1027     1.0  0.8877000000000002  0.23984  0.48714  1.0000
  C   C1028     1.0  0.913  0.15961  0.48301  1.0000
  H   H662      1.0  0.96817  0.04221999999999999  0.49635  1.0000
  H   H663      1.0  0.9355  0.4205  0.31991  1.0000
  H   H664      1.0  0.86386  0.41298  0.30865  1.0000
  H   H665      1.0  0.8795800000000001  0.42583  0.51356  1.0000
  H   H666      1.0  0.89013  0.2193299999999999  0.5690499999999997  1.0000
  H   H667      1.0  0.8966600000000001  0.26905999999999997  0.4865899999999999  1.0000
  H   H668      1.0  0.8755100000000001  0.21649  0.45114  1.0000
  H   H669      1.0  0.86419  0.24296  0.50073  1.0000
  H   H670      1.0  0.9224000000000001  0.16178999999999993  0.45745999999999987  1.0000
  C   C1029     1.0  0.7649900000000001  0.1732  0.64834  1.0000
  Ni  Ni79      1.0  0.74612  0.10998000000000002  0.56706  1.0000
  Ni  Ni80      1.0  0.75599  0.09045999999999986  0.6391699999999998  1.0000
  Ni  Ni81      1.0  0.76561  0.10012000000000003  0.74493  1.0000
  H   H671      1.0  0.81587  0.07798000000000004  0.68956  1.0000
  C   C1030     1.0  0.0162299999999999  0.42445999999999995  0.7357799999999998  1.0000
  H   H672      1.0  0.11140000000000001  0.37355  0.69452  1.0000
  C   C1031     1.0  0.8520199999999999  0.14649999999999988  0.8061999999999998  1.0000
  H   H673      1.0  0.74438  0.1492  0.78379  1.0000
  C   C1032     1.0  0.7095899999999998  0.33739999999999987  0.5778899999999998  1.0000
  H   H674      1.0  0.04025  0.44506  0.60032  1.0000
  C   C1033     1.0  0.09593999999999991  0.3654699999999999  0.7676099999999998  1.0000
  H   H675      1.0  0.06695999999999999  0.36849999999999994  0.6832599999999999  1.0000
  H   H676      1.0  0.8209399999999999  0.12242999999999989  0.7008199999999998  1.0000
  C   C1034     1.0  0.8239699999999999  0.0934799999999999  0.6164799999999999  1.0000
  O   O549      1.0  0.99114  0.045659999999999965  0.5965399999999998  1.0000
  O   O550      1.0  0.042310000000000035  0.09938000000000001  0.657  1.0000
  O   O551      1.0  0.8104299999999999  0.19828999999999994  0.7875499999999998  1.0000
  O   O552      1.0  0.7567  0.14713000000000004  0.72711  1.0000
  H   H677      1.0  0.03359999999999992  0.40184999999999993  0.5706099999999997  1.0000
  O   O553      1.0  0.7488300000000001  0.16124999999999995  0.6040399999999998  1.0000
  O   O554      1.0  0.77492  0.14612999999999993  0.6643199999999998  1.0000
  O   O555      1.0  0.02819000000000002  0.10729000000000004  0.78009  1.0000
  O   O556      1.0  0.04328999999999999  0.4145299999999999  0.7198  1.0000
  O   O557      1.0  0.85265  0.16763  0.84666  1.0000
  H   H678      1.0  0.7875899999999999  0.15584  0.8135  1.0000
  O   O558      1.0  0.8205  0.1192299999999999  0.7690999999999998  1.0000
  O   O559      1.0  0.6884599999999998  0.33677999999999997  0.5374299999999997  1.0000
  O   O560      1.0  0.73687  0.36891000000000007  0.61498  1.0000
  O   O561      1.0  0.7388799999999999  0.3856099999999999  0.7831299999999998  1.0000
  O   O562      1.0  0.1174399999999999  0.3917799999999999  0.7633899999999998  1.0000
  O   O563      1.0  0.80382  0.11720999999999997  0.60097  1.0000
  O   O564      1.0  0.79766  0.07198000000000002  0.62071  1.0000
  O   O565      1.0  0.7996400000000001  0.09903000000000003  0.69158  1.0000
  O   O566      1.0  0.09036999999999991  0.3897899999999999  0.6925099999999997  1.0000
  O   O567      1.0  0.7647  0.13354999999999995  0.79233  1.0000
  O   O568      1.0  0.05589000000000001  0.42473  0.59178  1.0000
  C   C1035     1.0  0.7769299999999999  0.18811  0.75115  1.0000
  C   C1036     1.0  0.10738000000000002  0.29392  0.6879199999999999  1.0000
  C   C1037     1.0  0.13602  0.27799  0.67244  1.0000
  C   C1038     1.0  0.13487  0.23746  0.66158  1.0000
  C   C1039     1.0  0.11417000000000001  0.21740999999999994  0.67765  1.0000
  C   C1040     1.0  0.77104  0.24224000000000004  0.71462  1.0000
  C   C1041     1.0  0.7647000000000002  0.2276099999999999  0.7453699999999998  1.0000
  C   C1042     1.0  0.7658599999999998  0.2604999999999999  0.7851899999999998  1.0000
  C   C1043     1.0  0.76834  0.3025699999999999  0.7919599999999998  1.0000
  C   C1044     1.0  0.7663500000000001  0.31763  0.75924  1.0000
  C   C1045     1.0  0.10499999999999994  0.2855699999999999  0.7222399999999998  1.0000
  C   C1046     1.0  0.06742999999999993  0.28841999999999995  0.6514399999999999  1.0000
  C   C1047     1.0  0.7346100000000001  0.29762  0.61677  1.0000
  C   C1048     1.0  0.0341  0.30361  0.58727  1.0000
  C   C1049     1.0  0.9965199999999999  0.2926299999999999  0.5864099999999998  1.0000
  C   C1050     1.0  0.9943  0.27827999999999997  0.6182099999999998  1.0000
  O   O569      1.0  0.95773  0.26747  0.61841  1.0000
  C   C1051     1.0  0.9495999999999999  0.3017399999999999  0.6469699999999998  1.0000
  C   C1052     1.0  0.02981999999999992  0.27642999999999995  0.6510999999999998  1.0000
  H   H679      1.0  0.14971999999999994  0.29198  0.65688  1.0000
  H   H680      1.0  0.14723000000000003  0.22126  0.63778  1.0000
  H   H681      1.0  0.76893  0.2539199999999999  0.8141899999999997  1.0000
  H   H682      1.0  0.7764500000000001  0.32556999999999997  0.82545  1.0000
  H   H683      1.0  0.76359  0.3098299999999999  0.6205299999999998  1.0000
  H   H684      1.0  0.9701  0.2993  0.56506  1.0000
  H   H685      1.0  0.92038  0.2927799999999999  0.6475199999999998  1.0000
  H   H686      1.0  0.9729499999999999  0.3139299999999999  0.6829699999999997  1.0000
  H   H687      1.0  0.9464800000000001  0.32525  0.63338  1.0000
  H   H688      1.0  0.02764000000000002  0.26703  0.67666  1.0000
  C   C1053     1.0  0.89551  0.08204999999999991  0.6961799999999998  1.0000
  C   C1054     1.0  0.9472  0.08504999999999986  0.6694899999999998  1.0000
  C   C1055     1.0  0.9618300000000001  0.09138999999999996  0.6387399999999999  1.0000
  C   C1056     1.0  0.9289400000000001  0.42356999999999995  0.59891  1.0000
  C   C1057     1.0  0.8868600000000004  0.42109  0.59215  1.0000
  C   C1058     1.0  0.87181  0.08975  0.62486  1.0000
  C   C1059     1.0  0.90386  0.08442000000000001  0.66186  1.0000
  C   C1060     1.0  0.9009999999999998  0.1219999999999999  0.7326599999999998  1.0000
  C   C1061     1.0  0.89179  0.12146999999999991  0.7673199999999998  1.0000
  C   C1062     1.0  0.88581  0.1553199999999999  0.7968199999999998  1.0000
  C   C1063     1.0  0.8968  0.19291000000000003  0.7977  1.0000
  C   C1064     1.0  0.91115  0.19512999999999997  0.76589  1.0000
  O   O570      1.0  0.92196  0.2317  0.7657  1.0000
  C   C1065     1.0  0.8877000000000002  0.23984  0.73714  1.0000
  C   C1066     1.0  0.913  0.15961  0.73301  1.0000
  H   H689      1.0  0.96817  0.04221999999999992  0.7463499999999997  1.0000
  H   H690      1.0  0.93551  0.4205  0.56991  1.0000
  H   H691      1.0  0.86387  0.41298  0.55865  1.0000
  H   H692      1.0  0.8795800000000001  0.42583  0.76356  1.0000
  H   H693      1.0  0.89013  0.21931999999999993  0.8190499999999997  1.0000
  H   H694      1.0  0.8966500000000001  0.26905999999999997  0.7365899999999999  1.0000
  H   H695      1.0  0.8755100000000001  0.21649  0.70114  1.0000
  H   H696      1.0  0.8641899999999999  0.24295999999999993  0.7507299999999998  1.0000
  H   H697      1.0  0.9224000000000001  0.16179  0.70746  1.0000
  C   C1067     1.0  0.7649900000000001  0.17319999999999988  0.8983399999999998  1.0000
  Ni  Ni82      1.0  0.7461199999999999  0.1099799999999999  0.8170599999999998  1.0000
  Ni  Ni83      1.0  0.75599  0.09046000000000001  0.88917  1.0000
  Ni  Ni84      1.0  0.76561  0.10011999999999989  0.9949299999999999  1.0000
  H   H698      1.0  0.81587  0.07796999999999998  0.9395499999999999  1.0000
  C   C1068     1.0  0.01622999999999995  0.4244599999999999  0.9857799999999998  1.0000
  H   H699      1.0  0.11138000000000003  0.37355  0.94452  1.0000
  C   C1069     1.0  0.85201  0.1465  0.0562  1.0000
  H   H700      1.0  0.7443700000000001  0.1492  0.03379  1.0000
  C   C1070     1.0  0.7095899999999996  0.33739999999999987  0.8278799999999997  1.0000
  H   H701      1.0  0.04024999999999997  0.44506  0.85032  1.0000
  C   C1071     1.0  0.09594  0.36546999999999996  0.01761  1.0000
  H   H702      1.0  0.0669499999999999  0.3684999999999999  0.9332499999999998  1.0000
  H   H703      1.0  0.8209399999999998  0.12241999999999992  0.9508099999999998  1.0000
  C   C1072     1.0  0.8239699999999999  0.09347999999999988  0.8664799999999998  1.0000
  O   O571      1.0  0.99114  0.045659999999999944  0.8465299999999998  1.0000
  O   O572      1.0  0.042309999999999987  0.09937000000000001  0.90699  1.0000
  O   O573      1.0  0.81042  0.19829  0.03755  1.0000
  O   O574      1.0  0.75669  0.14712999999999996  0.9771  1.0000
  H   H704      1.0  0.033599999999999915  0.40183999999999986  0.8205999999999998  1.0000
  O   O575      1.0  0.7488300000000001  0.1612499999999999  0.8540399999999998  1.0000
  O   O576      1.0  0.77492  0.1461299999999999  0.9143199999999998  1.0000
  O   O577      1.0  0.028190000000000003  0.10728999999999997  0.03009  1.0000
  O   O578      1.0  0.04327999999999991  0.4145299999999999  0.9697999999999998  1.0000
  O   O579      1.0  0.85265  0.16762999999999997  0.09665999999999997  1.0000
  H   H705      1.0  0.78758  0.15584  0.0635  1.0000
  O   O580      1.0  0.8205  0.11923  0.019099999999999992  1.0000
  O   O581      1.0  0.68846  0.33677  0.78743  1.0000
  O   O582      1.0  0.73687  0.36890999999999996  0.8649799999999999  1.0000
  O   O583      1.0  0.73888  0.38561  0.03312999999999999  1.0000
  O   O584      1.0  0.11744  0.39178  0.013379999999999996  1.0000
  O   O585      1.0  0.80382  0.1172099999999999  0.8509699999999998  1.0000
  O   O586      1.0  0.79766  0.07197999999999999  0.8706999999999999  1.0000
  O   O587      1.0  0.7996499999999999  0.09901999999999993  0.9415699999999998  1.0000
  O   O588      1.0  0.09035999999999987  0.3897999999999999  0.9424999999999998  1.0000
  O   O589      1.0  0.7647000000000002  0.13355  0.042329999999999986  1.0000
  O   O590      1.0  0.05589000000000001  0.42473  0.84178  1.0000
  C   C1073     1.0  0.77692  0.18812  0.00115  1.0000
  C   C1074     1.0  0.10736999999999991  0.2939099999999999  0.9379199999999998  1.0000
  C   C1075     1.0  0.1360199999999999  0.2779899999999999  0.9224299999999998  1.0000
  C   C1076     1.0  0.13487000000000002  0.23745999999999995  0.9115799999999998  1.0000
  C   C1077     1.0  0.11416999999999998  0.21741  0.92765  1.0000
  C   C1078     1.0  0.7710399999999998  0.2422299999999999  0.9646199999999998  1.0000
  C   C1079     1.0  0.76469  0.22761  0.9953599999999998  1.0000
  C   C1080     1.0  0.7658500000000003  0.2605  0.03519  1.0000
  C   C1081     1.0  0.76833  0.30257  0.04195  1.0000
  C   C1082     1.0  0.76634  0.31763  0.009239999999999998  1.0000
  C   C1083     1.0  0.10500000000000001  0.28556999999999994  0.97224  1.0000
  C   C1084     1.0  0.06742999999999993  0.28841999999999995  0.9014399999999998  1.0000
  C   C1085     1.0  0.7346100000000001  0.2976199999999999  0.8667699999999998  1.0000
  C   C1086     1.0  0.03409999999999992  0.30359999999999987  0.8372599999999998  1.0000
  C   C1087     1.0  0.9965199999999999  0.2926299999999999  0.8363999999999998  1.0000
  C   C1088     1.0  0.9943  0.27828  0.86821  1.0000
  O   O591      1.0  0.95773  0.26747  0.86841  1.0000
  C   C1089     1.0  0.9496000000000001  0.3017399999999999  0.8969699999999998  1.0000
  C   C1090     1.0  0.02981999999999992  0.27642999999999995  0.9010899999999997  1.0000
  H   H706      1.0  0.1497199999999999  0.2919799999999999  0.9068799999999998  1.0000
  H   H707      1.0  0.14723  0.22126  0.88779  1.0000
  H   H708      1.0  0.76892  0.25392  0.06418  1.0000
  H   H709      1.0  0.77644  0.32556999999999997  0.07545  1.0000
  H   H710      1.0  0.76359  0.30982999999999994  0.87052  1.0000
  H   H711      1.0  0.9701  0.2992999999999999  0.8150499999999999  1.0000
  H   H712      1.0  0.92038  0.29278999999999994  0.8975199999999998  1.0000
  H   H713      1.0  0.9729499999999999  0.31392999999999993  0.9329599999999998  1.0000
  H   H714      1.0  0.9464800000000001  0.32524999999999993  0.8833699999999999  1.0000
  H   H715      1.0  0.02764000000000002  0.26704  0.92665  1.0000
  C   C1091     1.0  0.89551  0.08204999999999989  0.9461799999999998  1.0000
  C   C1092     1.0  0.9472  0.0850499999999999  0.9194899999999998  1.0000
  C   C1093     1.0  0.9618300000000001  0.09137999999999996  0.8887399999999998  1.0000
  C   C1094     1.0  0.9289400000000001  0.4235599999999999  0.8489099999999998  1.0000
  C   C1095     1.0  0.88686  0.42108999999999996  0.8421399999999998  1.0000
  C   C1096     1.0  0.8718100000000001  0.08974000000000003  0.87486  1.0000
  C   C1097     1.0  0.90386  0.08441999999999998  0.91186  1.0000
  C   C1098     1.0  0.901  0.12199999999999996  0.9826599999999998  1.0000
  C   C1099     1.0  0.89179  0.12146999999999998  0.01731  1.0000
  C   C1100     1.0  0.8858  0.15532  0.04682  1.0000
  C   C1101     1.0  0.89679  0.19291  0.04769  1.0000
  C   C1102     1.0  0.91115  0.19512999999999997  0.015889999999999998  1.0000
  O   O592      1.0  0.92197  0.2317  0.0157  1.0000
  C   C1103     1.0  0.8877000000000002  0.23983999999999994  0.9871399999999998  1.0000
  C   C1104     1.0  0.913  0.15959999999999994  0.9830099999999998  1.0000
  H   H716      1.0  0.96817  0.04221999999999992  0.9963499999999997  1.0000
  H   H717      1.0  0.9354999999999999  0.42048999999999986  0.8199099999999998  1.0000
  H   H718      1.0  0.86386  0.41297000000000006  0.80865  1.0000
  H   H719      1.0  0.87957  0.42583  0.01356  1.0000
  H   H720      1.0  0.8901200000000001  0.21932999999999997  0.06904  1.0000
  H   H721      1.0  0.8966600000000001  0.2690599999999999  0.9865899999999997  1.0000
  H   H722      1.0  0.8755199999999997  0.21648999999999993  0.9511399999999998  1.0000
  H   H723      1.0  0.86419  0.24296  0.0007199999999999998  1.0000
  H   H724      1.0  0.9224000000000001  0.16179000000000004  0.95745  1.0000
  C   C1105     1.0  0.76498  0.50654  0.14833  1.0000
  Ni  Ni85      1.0  0.74612  0.44332  0.06704999999999997  1.0000
  Ni  Ni86      1.0  0.75598  0.42381  0.13916999999999996  1.0000
  Ni  Ni87      1.0  0.76562  0.43345  0.24493  1.0000
  H   H725      1.0  0.81587  0.41135  0.18956999999999993  1.0000
  C   C1106     1.0  0.016229999999999974  0.7577899999999999  0.23577999999999993  1.0000
  H   H726      1.0  0.11140000000000001  0.70689  0.19452  1.0000
  C   C1107     1.0  0.85202  0.47984  0.30621  1.0000
  H   H727      1.0  0.74438  0.48252999999999996  0.28378  1.0000
  C   C1108     1.0  0.70959  0.67074  0.07788999999999997  1.0000
  H   H728      1.0  0.04025  0.77839  0.10031999999999998  1.0000
  C   C1109     1.0  0.09594  0.6988  0.26761  1.0000
  H   H729      1.0  0.06696  0.70183  0.18326  1.0000
  H   H730      1.0  0.8209300000000002  0.4558  0.20082999999999995  1.0000
  C   C1110     1.0  0.82396  0.42682  0.11648999999999997  1.0000
  O   O593      1.0  0.99113  0.37901  0.09653999999999999  1.0000
  O   O594      1.0  0.042300000000000004  0.43272  0.15699  1.0000
  O   O595      1.0  0.81043  0.53163  0.28755  1.0000
  O   O596      1.0  0.7567  0.48045999999999994  0.22710999999999995  1.0000
  H   H731      1.0  0.033599999999999984  0.7351799999999998  0.07060999999999998  1.0000
  O   O597      1.0  0.74882  0.49457999999999996  0.10402  1.0000
  O   O598      1.0  0.77491  0.47947999999999996  0.16431  1.0000
  O   O599      1.0  0.028189999999999996  0.44061999999999996  0.28008  1.0000
  O   O600      1.0  0.04329  0.74786  0.21979999999999994  1.0000
  O   O601      1.0  0.85265  0.50097  0.34666999999999987  1.0000
  H   H732      1.0  0.78759  0.48917000000000005  0.3134999999999999  1.0000
  O   O602      1.0  0.82051  0.45255999999999996  0.2691099999999999  1.0000
  O   O603      1.0  0.68846  0.67011  0.03742999999999999  1.0000
  O   O604      1.0  0.73687  0.70225  0.11497999999999997  1.0000
  O   O605      1.0  0.73888  0.71895  0.28312999999999994  1.0000
  O   O606      1.0  0.11744000000000003  0.7251200000000001  0.26339  1.0000
  O   O607      1.0  0.80382  0.45055  0.10096999999999998  1.0000
  O   O608      1.0  0.79765  0.40532  0.12070999999999998  1.0000
  O   O609      1.0  0.7996299999999998  0.43238  0.19158999999999998  1.0000
  O   O610      1.0  0.09037  0.72313  0.19251  1.0000
  C   C1111     1.0  0.0013200000000000056  0.4125  0.13295  1.0000
  O   O611      1.0  0.7647000000000002  0.4668800000000001  0.29231999999999997  1.0000
  O   O612      1.0  0.05588999999999999  0.75806  0.09177999999999997  1.0000
  C   C1112     1.0  0.77693  0.52145  0.25115  1.0000
  C   C1113     1.0  0.10737  0.62725  0.18792  1.0000
  C   C1114     1.0  0.13601999999999995  0.61133  0.17242999999999994  1.0000
  C   C1115     1.0  0.13487  0.5708  0.16157  1.0000
  C   C1116     1.0  0.11417000000000001  0.55075  0.17764  1.0000
  C   C1117     1.0  0.77104  0.5755699999999999  0.21461999999999995  1.0000
  C   C1118     1.0  0.7647000000000002  0.56094  0.24535999999999994  1.0000
  C   C1119     1.0  0.7658699999999999  0.5938299999999999  0.2851899999999999  1.0000
  C   C1120     1.0  0.76834  0.63591  0.29196  1.0000
  C   C1121     1.0  0.7663500000000001  0.65096  0.25924  1.0000
  C   C1122     1.0  0.10499999999999998  0.61891  0.22223999999999994  1.0000
  C   C1123     1.0  0.06743  0.62176  0.15143999999999994  1.0000
  C   C1124     1.0  0.7346100000000001  0.63096  0.11677  1.0000
  C   C1125     1.0  0.0341  0.63694  0.08727  1.0000
  C   C1126     1.0  0.9965199999999999  0.62597  0.08639999999999998  1.0000
  C   C1127     1.0  0.9943  0.61162  0.11820999999999997  1.0000
  O   O613      1.0  0.95773  0.60081  0.11840999999999997  1.0000
  C   C1128     1.0  0.9496000000000001  0.63508  0.14697  1.0000
  C   C1129     1.0  0.029820000000000006  0.60977  0.1511  1.0000
  H   H733      1.0  0.14971999999999996  0.62532  0.15687999999999994  1.0000
  H   H734      1.0  0.14722000000000002  0.5546  0.13777  1.0000
  H   H735      1.0  0.76893  0.58726  0.3141899999999999  1.0000
  H   H736      1.0  0.7764500000000001  0.6589  0.3254499999999999  1.0000
  H   H737      1.0  0.76359  0.64317  0.12052  1.0000
  H   H738      1.0  0.9701  0.63264  0.06505  1.0000
  H   H739      1.0  0.92038  0.6261199999999999  0.14751999999999998  1.0000
  H   H740      1.0  0.9729500000000001  0.64726  0.18295999999999996  1.0000
  H   H741      1.0  0.9464800000000001  0.65859  0.13338  1.0000
  H   H742      1.0  0.027639999999999998  0.60037  0.17666  1.0000
  C   C1130     1.0  0.8955199999999999  0.41539  0.19617999999999994  1.0000
  C   C1131     1.0  0.91144  0.38674  0.21167  1.0000
  C   C1132     1.0  0.9519800000000002  0.3879  0.22253  1.0000
  C   C1133     1.0  0.97202  0.4086099999999999  0.20645999999999995  1.0000
  C   C1134     1.0  0.9472  0.41839  0.16949  1.0000
  C   C1135     1.0  0.96182  0.42473  0.13874  1.0000
  C   C1136     1.0  0.9289400000000001  0.7569  0.09891  1.0000
  C   C1137     1.0  0.88686  0.75443  0.09215  1.0000
  C   C1138     1.0  0.8718  0.42308  0.12486  1.0000
  C   C1139     1.0  0.90386  0.41776  0.16185999999999995  1.0000
  C   C1140     1.0  0.901  0.45533  0.23265999999999995  1.0000
  C   C1141     1.0  0.8918  0.45480999999999994  0.26732  1.0000
  C   C1142     1.0  0.88581  0.48866  0.29682999999999987  1.0000
  C   C1143     1.0  0.8968  0.52624  0.2977  1.0000
  C   C1144     1.0  0.91114  0.52847  0.26588999999999996  1.0000
  O   O614      1.0  0.9219500000000002  0.56504  0.2657  1.0000
  C   C1145     1.0  0.8876899999999996  0.57317  0.23713999999999993  1.0000
  C   C1146     1.0  0.913  0.49294  0.23300999999999997  1.0000
  H   H743      1.0  0.8974500000000001  0.37304  0.22722999999999993  1.0000
  H   H744      1.0  0.96817  0.37554999999999994  0.24633999999999998  1.0000
  H   H745      1.0  0.9355  0.75384  0.06990999999999999  1.0000
  H   H746      1.0  0.86386  0.74632  0.05864999999999999  1.0000
  H   H747      1.0  0.8795800000000001  0.7591599999999998  0.26355999999999996  1.0000
  H   H748      1.0  0.89013  0.5526599999999999  0.31905  1.0000
  H   H749      1.0  0.89664  0.6023899999999999  0.23659  1.0000
  H   H750      1.0  0.8755000000000001  0.54982  0.20114999999999994  1.0000
  H   H751      1.0  0.86418  0.57629  0.25073  1.0000
  H   H752      1.0  0.92239  0.49513  0.20745  1.0000
  C   C1147     1.0  0.76498  0.50654  0.39832999999999996  1.0000
  Ni  Ni88      1.0  0.74612  0.44332  0.31705  1.0000
  Ni  Ni89      1.0  0.75599  0.4238  0.38917  1.0000
  Ni  Ni90      1.0  0.76562  0.43345  0.49492999999999987  1.0000
  H   H753      1.0  0.81587  0.41133999999999993  0.4395699999999999  1.0000
  C   C1148     1.0  0.01622999999999995  0.7577899999999999  0.4857799999999999  1.0000
  H   H754      1.0  0.11138999999999995  0.70689  0.4445199999999999  1.0000
  C   C1149     1.0  0.8520199999999999  0.47984  0.55621  1.0000
  H   H755      1.0  0.7443700000000001  0.48252999999999996  0.53378  1.0000
  C   C1150     1.0  0.70959  0.67074  0.3278799999999999  1.0000
  H   H756      1.0  0.04025  0.77839  0.35032  1.0000
  C   C1151     1.0  0.09594  0.6988  0.51761  1.0000
  H   H757      1.0  0.06694999999999993  0.7018299999999998  0.43325999999999987  1.0000
  H   H758      1.0  0.8209300000000002  0.45579000000000003  0.4508299999999999  1.0000
  C   C1152     1.0  0.8239600000000001  0.42682  0.36649  1.0000
  O   O615      1.0  0.99114  0.37899999999999995  0.3465399999999999  1.0000
  O   O616      1.0  0.042309999999999966  0.43272  0.4069899999999999  1.0000
  O   O617      1.0  0.81043  0.53163  0.53755  1.0000
  O   O618      1.0  0.7566999999999999  0.48045999999999994  0.4770999999999999  1.0000
  H   H759      1.0  0.03360000000000002  0.73518  0.3206  1.0000
  O   O619      1.0  0.74882  0.49457999999999996  0.3540299999999999  1.0000
  O   O620      1.0  0.77491  0.47947  0.4143099999999999  1.0000
  O   O621      1.0  0.028189999999999948  0.44061999999999996  0.5300799999999999  1.0000
  O   O622      1.0  0.04329000000000001  0.7478600000000001  0.4698  1.0000
  O   O623      1.0  0.85265  0.50097  0.59666  1.0000
  H   H760      1.0  0.78758  0.48917000000000005  0.5635  1.0000
  O   O624      1.0  0.82051  0.45255999999999996  0.51911  1.0000
  O   O625      1.0  0.6884599999999998  0.67011  0.28743  1.0000
  O   O626      1.0  0.73687  0.70225  0.36498  1.0000
  O   O627      1.0  0.73888  0.71895  0.53313  1.0000
  O   O628      1.0  0.11743999999999997  0.7251099999999999  0.5133799999999998  1.0000
  O   O629      1.0  0.80382  0.45055  0.35097  1.0000
  O   O630      1.0  0.79765  0.40532  0.3707099999999999  1.0000
  O   O631      1.0  0.79964  0.43238  0.44159  1.0000
  O   O632      1.0  0.09037  0.72313  0.4425  1.0000
  C   C1153     1.0  0.0013199999999999874  0.4125  0.38295  1.0000
  O   O633      1.0  0.7647000000000002  0.4668800000000001  0.54232  1.0000
  O   O634      1.0  0.05589000000000004  0.75806  0.34178  1.0000
  C   C1154     1.0  0.77693  0.52145  0.50114  1.0000
  C   C1155     1.0  0.10736999999999994  0.6272499999999999  0.43791999999999986  1.0000
  C   C1156     1.0  0.13602  0.61133  0.42243  1.0000
  C   C1157     1.0  0.13487  0.5708  0.41157  1.0000
  C   C1158     1.0  0.11416999999999995  0.55075  0.4276399999999999  1.0000
  C   C1159     1.0  0.77104  0.57557  0.46462  1.0000
  C   C1160     1.0  0.7647000000000002  0.56094  0.4953599999999999  1.0000
  C   C1161     1.0  0.76586  0.59383  0.53519  1.0000
  C   C1162     1.0  0.76834  0.63591  0.54196  1.0000
  C   C1163     1.0  0.7663500000000001  0.65096  0.5092399999999999  1.0000
  C   C1164     1.0  0.105  0.61891  0.47224  1.0000
  C   C1165     1.0  0.06743  0.62176  0.40143999999999996  1.0000
  C   C1166     1.0  0.7346100000000001  0.63095  0.36677  1.0000
  C   C1167     1.0  0.034100000000000026  0.63694  0.33726  1.0000
  C   C1168     1.0  0.9965200000000001  0.62596  0.33639999999999987  1.0000
  C   C1169     1.0  0.9943  0.61162  0.36821  1.0000
  O   O635      1.0  0.9577299999999999  0.6008099999999998  0.3684099999999999  1.0000
  C   C1170     1.0  0.9496000000000001  0.63508  0.3969699999999999  1.0000
  C   C1171     1.0  0.02982  0.60977  0.40109  1.0000
  H   H761      1.0  0.14972  0.62532  0.40688  1.0000
  H   H762      1.0  0.14722000000000002  0.5546  0.38777  1.0000
  H   H763      1.0  0.76893  0.58726  0.5641799999999999  1.0000
  H   H764      1.0  0.7764500000000001  0.6589  0.57545  1.0000
  H   H765      1.0  0.76359  0.64316  0.37052  1.0000
  H   H766      1.0  0.9701  0.6326299999999999  0.3150499999999999  1.0000
  H   H767      1.0  0.92038  0.6261199999999999  0.3975199999999999  1.0000
  H   H768      1.0  0.9729500000000001  0.6472699999999999  0.4329599999999999  1.0000
  H   H769      1.0  0.9464800000000001  0.65859  0.38337  1.0000
  H   H770      1.0  0.027639999999999974  0.60038  0.4266599999999999  1.0000
  C   C1172     1.0  0.8955199999999999  0.41539  0.4461799999999999  1.0000
  C   C1173     1.0  0.91144  0.38674  0.46167  1.0000
  C   C1174     1.0  0.9519800000000002  0.3879  0.47253  1.0000
  C   C1175     1.0  0.97202  0.4086099999999999  0.45647  1.0000
  C   C1176     1.0  0.9472  0.41839  0.41948999999999986  1.0000
  C   C1177     1.0  0.96182  0.42473  0.3887399999999999  1.0000
  C   C1178     1.0  0.9289400000000001  0.7569  0.34891  1.0000
  C   C1179     1.0  0.88686  0.7544199999999999  0.3421399999999999  1.0000
  C   C1180     1.0  0.8717999999999999  0.4230799999999999  0.3748599999999999  1.0000
  C   C1181     1.0  0.90386  0.41776  0.4118599999999999  1.0000
  C   C1182     1.0  0.901  0.45533  0.48265999999999987  1.0000
  C   C1183     1.0  0.8918  0.45480999999999994  0.51732  1.0000
  C   C1184     1.0  0.88581  0.48866  0.54683  1.0000
  C   C1185     1.0  0.89679  0.52624  0.5477  1.0000
  C   C1186     1.0  0.91115  0.52847  0.51589  1.0000
  O   O636      1.0  0.92196  0.56504  0.5157  1.0000
  C   C1187     1.0  0.8876900000000001  0.57317  0.48714  1.0000
  C   C1188     1.0  0.913  0.49294  0.48301  1.0000
  H   H771      1.0  0.8974500000000001  0.37304  0.4772299999999999  1.0000
  H   H772      1.0  0.96817  0.37555  0.49634  1.0000
  H   H773      1.0  0.9355  0.75383  0.31991  1.0000
  H   H774      1.0  0.86386  0.74631  0.30865  1.0000
  H   H775      1.0  0.8795800000000001  0.7591599999999998  0.51356  1.0000
  H   H776      1.0  0.8901299999999999  0.5526599999999999  0.5690499999999997  1.0000
  H   H777      1.0  0.8966500000000001  0.6023899999999999  0.4865899999999999  1.0000
  H   H778      1.0  0.8755000000000001  0.54982  0.45114  1.0000
  H   H779      1.0  0.86418  0.57629  0.50073  1.0000
  H   H780      1.0  0.92239  0.49513  0.4574499999999999  1.0000
  C   C1189     1.0  0.76498  0.50654  0.64833  1.0000
  Ni  Ni91      1.0  0.7461199999999999  0.44332  0.5670499999999999  1.0000
  Ni  Ni92      1.0  0.75599  0.42380999999999985  0.6391699999999998  1.0000
  Ni  Ni93      1.0  0.76562  0.43345  0.74493  1.0000
  H   H781      1.0  0.81587  0.41135  0.68957  1.0000
  C   C1190     1.0  0.0162299999999999  0.7577899999999999  0.7357799999999998  1.0000
  H   H782      1.0  0.11139999999999996  0.70689  0.69452  1.0000
  C   C1191     1.0  0.8520199999999999  0.47984  0.8062099999999998  1.0000
  H   H783      1.0  0.74438  0.48252999999999996  0.78378  1.0000
  C   C1192     1.0  0.70959  0.67074  0.5778899999999998  1.0000
  H   H784      1.0  0.04025  0.77839  0.60032  1.0000
  C   C1193     1.0  0.09593999999999993  0.6987999999999999  0.7676099999999998  1.0000
  H   H785      1.0  0.06695999999999995  0.7018299999999998  0.6832599999999999  1.0000
  H   H786      1.0  0.82093  0.45579000000000003  0.7008299999999997  1.0000
  C   C1194     1.0  0.82396  0.42682  0.61649  1.0000
  O   O637      1.0  0.99114  0.37899999999999995  0.5965399999999998  1.0000
  O   O638      1.0  0.04230999999999994  0.43272  0.65699  1.0000
  O   O639      1.0  0.8104299999999999  0.5316299999999999  0.7875499999999998  1.0000
  O   O640      1.0  0.7567  0.48045999999999994  0.7271  1.0000
  H   H787      1.0  0.03359999999999992  0.73518  0.5705999999999998  1.0000
  O   O641      1.0  0.7488199999999999  0.49457999999999996  0.6040299999999997  1.0000
  O   O642      1.0  0.77491  0.47947  0.6643099999999997  1.0000
  O   O643      1.0  0.028189999999999965  0.4406199999999999  0.7800799999999999  1.0000
  O   O644      1.0  0.043289999999999995  0.7478599999999999  0.7198  1.0000
  O   O645      1.0  0.85265  0.50097  0.84667  1.0000
  H   H788      1.0  0.78759  0.48917000000000005  0.8135  1.0000
  O   O646      1.0  0.82051  0.4525599999999999  0.7691099999999997  1.0000
  O   O647      1.0  0.6884599999999998  0.6701099999999999  0.5374299999999997  1.0000
  O   O648      1.0  0.73687  0.70225  0.61498  1.0000
  O   O649      1.0  0.73888  0.7189499999999999  0.7831299999999998  1.0000
  O   O650      1.0  0.11743999999999986  0.7251099999999998  0.7633899999999998  1.0000
  O   O651      1.0  0.80382  0.45055  0.60097  1.0000
  O   O652      1.0  0.79765  0.40532  0.62071  1.0000
  O   O653      1.0  0.79964  0.43238  0.69159  1.0000
  O   O654      1.0  0.09036999999999991  0.72313  0.6925099999999997  1.0000
  C   C1195     1.0  0.0013199999999999085  0.41249999999999987  0.6329499999999998  1.0000
  O   O655      1.0  0.7647000000000003  0.4668800000000001  0.79232  1.0000
  O   O656      1.0  0.05589000000000001  0.75806  0.59178  1.0000
  C   C1196     1.0  0.77693  0.52145  0.75115  1.0000
  C   C1197     1.0  0.10737  0.62725  0.6879199999999999  1.0000
  C   C1198     1.0  0.13602  0.61133  0.67243  1.0000
  C   C1199     1.0  0.13487  0.5708  0.66157  1.0000
  C   C1200     1.0  0.11416999999999995  0.55075  0.67764  1.0000
  C   C1201     1.0  0.77104  0.57557  0.71462  1.0000
  C   C1202     1.0  0.7647000000000002  0.56094  0.7453599999999998  1.0000
  C   C1203     1.0  0.7658699999999999  0.5938299999999999  0.7851899999999998  1.0000
  C   C1204     1.0  0.7683399999999999  0.63591  0.7919599999999998  1.0000
  C   C1205     1.0  0.7663500000000001  0.65096  0.75924  1.0000
  C   C1206     1.0  0.10499999999999994  0.61891  0.7222399999999998  1.0000
  C   C1207     1.0  0.06742999999999998  0.62176  0.6514399999999999  1.0000
  C   C1208     1.0  0.7346100000000001  0.63095  0.61677  1.0000
  C   C1209     1.0  0.034100000000000026  0.63694  0.58726  1.0000
  C   C1210     1.0  0.9965200000000001  0.62596  0.5863999999999998  1.0000
  C   C1211     1.0  0.9943  0.6116199999999999  0.6182099999999998  1.0000
  O   O657      1.0  0.95773  0.60081  0.61841  1.0000
  C   C1212     1.0  0.9496000000000001  0.6350799999999998  0.6469699999999998  1.0000
  C   C1213     1.0  0.029819999999999926  0.60977  0.6510899999999997  1.0000
  H   H789      1.0  0.14971999999999994  0.62532  0.65688  1.0000
  H   H790      1.0  0.14722000000000005  0.5546  0.63777  1.0000
  H   H791      1.0  0.7689400000000001  0.58726  0.8141899999999997  1.0000
  H   H792      1.0  0.77646  0.6589  0.82545  1.0000
  H   H793      1.0  0.76359  0.64316  0.6205199999999997  1.0000
  H   H794      1.0  0.9701  0.63264  0.56505  1.0000
  H   H795      1.0  0.92038  0.6261199999999999  0.6475199999999998  1.0000
  H   H796      1.0  0.9729500000000001  0.64727  0.6829599999999998  1.0000
  H   H797      1.0  0.9464800000000001  0.65859  0.63338  1.0000
  H   H798      1.0  0.027640000000000022  0.60037  0.67666  1.0000
  C   C1214     1.0  0.8955199999999999  0.4153899999999998  0.6961799999999998  1.0000
  C   C1215     1.0  0.91144  0.38673999999999986  0.7116699999999998  1.0000
  C   C1216     1.0  0.9519800000000002  0.3878999999999999  0.7225299999999998  1.0000
  C   C1217     1.0  0.97202  0.40860999999999986  0.7064699999999998  1.0000
  C   C1218     1.0  0.9472  0.4183899999999999  0.6694899999999998  1.0000
  C   C1219     1.0  0.96182  0.4247299999999999  0.6387399999999999  1.0000
  C   C1220     1.0  0.9289400000000001  0.7569  0.59891  1.0000
  C   C1221     1.0  0.88686  0.75442  0.5921399999999999  1.0000
  C   C1222     1.0  0.8718100000000001  0.42308  0.62486  1.0000
  C   C1223     1.0  0.90386  0.41776  0.66186  1.0000
  C   C1224     1.0  0.9009999999999998  0.45533  0.7326599999999998  1.0000
  C   C1225     1.0  0.8918  0.4548099999999998  0.7673199999999998  1.0000
  C   C1226     1.0  0.88581  0.48866  0.7968299999999998  1.0000
  C   C1227     1.0  0.8967999999999997  0.52624  0.7977  1.0000
  C   C1228     1.0  0.91114  0.52847  0.76589  1.0000
  O   O658      1.0  0.9219500000000002  0.56504  0.7657  1.0000
  C   C1229     1.0  0.8876900000000001  0.57317  0.73714  1.0000
  C   C1230     1.0  0.913  0.49294  0.73301  1.0000
  H   H799      1.0  0.8974500000000001  0.37304  0.7272299999999998  1.0000
  H   H800      1.0  0.96817  0.3755499999999999  0.7463399999999998  1.0000
  H   H801      1.0  0.93551  0.75383  0.56991  1.0000
  H   H802      1.0  0.86387  0.74631  0.55865  1.0000
  H   H803      1.0  0.8795799999999997  0.7591599999999998  0.76356  1.0000
  H   H804      1.0  0.8901299999999999  0.5526599999999999  0.8190499999999997  1.0000
  H   H805      1.0  0.8966399999999998  0.6023899999999999  0.7365899999999999  1.0000
  H   H806      1.0  0.8755000000000001  0.54982  0.70114  1.0000
  H   H807      1.0  0.8641799999999998  0.5762899999999999  0.7507299999999998  1.0000
  H   H808      1.0  0.92239  0.49513  0.70745  1.0000
  C   C1231     1.0  0.76498  0.5065299999999999  0.8983299999999997  1.0000
  Ni  Ni94      1.0  0.7461199999999999  0.44332  0.8170499999999998  1.0000
  Ni  Ni95      1.0  0.75599  0.4238  0.88917  1.0000
  Ni  Ni96      1.0  0.76562  0.4334499999999999  0.9949299999999999  1.0000
  H   H809      1.0  0.81587  0.41134  0.93956  1.0000
  C   C1232     1.0  0.01622999999999995  0.7577899999999999  0.9857799999999998  1.0000
  H   H810      1.0  0.11137999999999999  0.70688  0.94451  1.0000
  C   C1233     1.0  0.85202  0.47984  0.0562  1.0000
  H   H811      1.0  0.7443700000000001  0.48252999999999996  0.03378  1.0000
  C   C1234     1.0  0.7095899999999999  0.67073  0.8278799999999997  1.0000
  H   H812      1.0  0.04024999999999998  0.77839  0.85032  1.0000
  C   C1235     1.0  0.09594  0.6988  0.01761  1.0000
  H   H813      1.0  0.0669499999999999  0.7018399999999998  0.9332499999999998  1.0000
  H   H814      1.0  0.8209300000000002  0.45577999999999985  0.9508199999999998  1.0000
  C   C1236     1.0  0.8239599999999999  0.42681999999999987  0.8664799999999998  1.0000
  O   O659      1.0  0.99114  0.37899999999999995  0.8465299999999998  1.0000
  O   O660      1.0  0.042309999999999987  0.43272  0.90699  1.0000
  O   O661      1.0  0.81042  0.53163  0.03755  1.0000
  O   O662      1.0  0.7567  0.48045999999999994  0.9771  1.0000
  H   H815      1.0  0.03359999999999987  0.73518  0.8205999999999998  1.0000
  O   O663      1.0  0.74882  0.4945799999999999  0.8540299999999997  1.0000
  O   O664      1.0  0.77491  0.47947  0.9143099999999997  1.0000
  O   O665      1.0  0.028179999999999997  0.44061999999999996  0.030079999999999992  1.0000
  O   O666      1.0  0.043279999999999916  0.7478599999999999  0.9697999999999998  1.0000
  O   O667      1.0  0.85265  0.50097  0.09665999999999997  1.0000
  H   H816      1.0  0.78758  0.48917000000000005  0.06349  1.0000
  O   O668      1.0  0.8205  0.45255999999999996  0.01910999999999999  1.0000
  O   O669      1.0  0.68846  0.67011  0.78743  1.0000
  O   O670      1.0  0.7368699999999999  0.70224  0.8649799999999999  1.0000
  O   O671      1.0  0.73888  0.71895  0.03312999999999999  1.0000
  O   O672      1.0  0.11744  0.72512  0.013379999999999996  1.0000
  O   O673      1.0  0.80382  0.45055  0.8509699999999998  1.0000
  O   O674      1.0  0.79765  0.40532  0.87071  1.0000
  O   O675      1.0  0.79964  0.43236999999999987  0.9415799999999998  1.0000
  O   O676      1.0  0.0903599999999999  0.72313  0.9424999999999998  1.0000
  C   C1237     1.0  0.0013200000000000147  0.41249  0.88295  1.0000
  O   O677      1.0  0.7647000000000002  0.4668800000000001  0.04232  1.0000
  O   O678      1.0  0.05589000000000001  0.75806  0.84178  1.0000
  C   C1238     1.0  0.77692  0.52145  0.00114  1.0000
  C   C1239     1.0  0.10736999999999992  0.62725  0.9379199999999998  1.0000
  C   C1240     1.0  0.13601999999999986  0.6113299999999999  0.9224299999999998  1.0000
  C   C1241     1.0  0.13487  0.57079  0.9115799999999998  1.0000
  C   C1242     1.0  0.11416999999999998  0.5507499999999999  0.9276399999999999  1.0000
  C   C1243     1.0  0.77104  0.57557  0.9646099999999997  1.0000
  C   C1244     1.0  0.7647000000000002  0.56094  0.9953599999999998  1.0000
  C   C1245     1.0  0.76586  0.59383  0.03519  1.0000
  C   C1246     1.0  0.76833  0.63591  0.04195  1.0000
  C   C1247     1.0  0.76634  0.65096  0.009239999999999998  1.0000
  C   C1248     1.0  0.10500000000000001  0.61891  0.97224  1.0000
  C   C1249     1.0  0.06743  0.62176  0.9014399999999998  1.0000
  C   C1250     1.0  0.7346100000000001  0.63095  0.8667699999999998  1.0000
  C   C1251     1.0  0.03409999999999993  0.63694  0.8372599999999998  1.0000
  C   C1252     1.0  0.9965200000000001  0.62596  0.8363999999999998  1.0000
  C   C1253     1.0  0.9943  0.61162  0.86821  1.0000
  O   O679      1.0  0.95773  0.60081  0.8684  1.0000
  C   C1254     1.0  0.9496000000000001  0.6350799999999999  0.8969599999999998  1.0000
  C   C1255     1.0  0.029819999999999926  0.60977  0.9010899999999997  1.0000
  H   H817      1.0  0.1497199999999999  0.62532  0.9068799999999998  1.0000
  H   H818      1.0  0.14722000000000002  0.5546  0.8877799999999999  1.0000
  H   H819      1.0  0.76892  0.58726  0.06418  1.0000
  H   H820      1.0  0.7764500000000001  0.6589  0.07545  1.0000
  H   H821      1.0  0.76359  0.64316  0.87052  1.0000
  H   H822      1.0  0.9701  0.63263  0.8150499999999999  1.0000
  H   H823      1.0  0.92038  0.6261299999999999  0.8975099999999998  1.0000
  H   H824      1.0  0.9729499999999999  0.64727  0.9329599999999998  1.0000
  H   H825      1.0  0.9464800000000001  0.6585899999999999  0.8833699999999999  1.0000
  H   H826      1.0  0.027640000000000022  0.60038  0.92665  1.0000
  C   C1256     1.0  0.8955099999999998  0.4153799999999999  0.9461799999999998  1.0000
  C   C1257     1.0  0.9114399999999998  0.38673999999999986  0.9616699999999998  1.0000
  C   C1258     1.0  0.9519700000000001  0.38789999999999997  0.9725399999999997  1.0000
  C   C1259     1.0  0.97202  0.4086  0.95647  1.0000
  C   C1260     1.0  0.9472  0.4183899999999999  0.9194799999999997  1.0000
  C   C1261     1.0  0.96182  0.4247199999999999  0.8887299999999998  1.0000
  C   C1262     1.0  0.9289400000000001  0.7568899999999998  0.8489099999999998  1.0000
  C   C1263     1.0  0.8868599999999999  0.75442  0.8421399999999998  1.0000
  C   C1264     1.0  0.8718  0.42308  0.87486  1.0000
  C   C1265     1.0  0.90386  0.41776  0.91186  1.0000
  C   C1266     1.0  0.901  0.45533  0.9826599999999998  1.0000
  C   C1267     1.0  0.89179  0.45480999999999994  0.01732  1.0000
  C   C1268     1.0  0.88581  0.48866  0.04682  1.0000
  C   C1269     1.0  0.89679  0.52624  0.04769  1.0000
  C   C1270     1.0  0.91115  0.52847  0.015889999999999998  1.0000
  O   O680      1.0  0.92196  0.56504  0.0157  1.0000
  C   C1271     1.0  0.8876899999999996  0.57317  0.9871399999999998  1.0000
  C   C1272     1.0  0.913  0.49294  0.9830099999999998  1.0000
  H   H827      1.0  0.8974500000000001  0.37303999999999987  0.9772199999999998  1.0000
  H   H828      1.0  0.96817  0.3755499999999999  0.9963399999999998  1.0000
  H   H829      1.0  0.9354999999999999  0.7538299999999999  0.8199099999999998  1.0000
  H   H830      1.0  0.86386  0.7463100000000001  0.80865  1.0000
  H   H831      1.0  0.8795800000000001  0.7591599999999998  0.013549999999999996  1.0000
  H   H832      1.0  0.8901200000000001  0.5526599999999999  0.06905  1.0000
  H   H833      1.0  0.8966499999999998  0.6023899999999999  0.9865899999999997  1.0000
  H   H834      1.0  0.8755100000000001  0.54982  0.9511399999999998  1.0000
  H   H835      1.0  0.86418  0.57629  0.00073  1.0000
  H   H836      1.0  0.9224000000000001  0.49511999999999995  0.95745  1.0000
  C   C1273     1.0  0.76498  0.83987  0.14833  1.0000
  Ni  Ni97      1.0  0.74612  0.7766499999999998  0.06704999999999997  1.0000
  Ni  Ni98      1.0  0.75598  0.7571399999999999  0.13916999999999996  1.0000
  Ni  Ni99      1.0  0.76562  0.7667800000000001  0.24493  1.0000
  H   H837      1.0  0.81587  0.74469  0.18956999999999993  1.0000
  C   C1274     1.0  0.85202  0.8131699999999998  0.30621  1.0000
  H   H838      1.0  0.74438  0.81586  0.28378  1.0000
  C   C1275     1.0  0.70959  0.00406  0.07788  1.0000
  C   C1276     1.0  0.09594  0.03214  0.26761  1.0000
  H   H839      1.0  0.06694  0.035169999999999986  0.18325  1.0000
  H   H840      1.0  0.82093  0.78913  0.20082999999999995  1.0000
  C   C1277     1.0  0.82396  0.76015  0.11648999999999997  1.0000
  O   O681      1.0  0.99113  0.71234  0.09653999999999999  1.0000
  O   O682      1.0  0.0423  0.76606  0.15699  1.0000
  O   O683      1.0  0.81043  0.86496  0.28755  1.0000
  O   O684      1.0  0.75671  0.8137899999999999  0.22709999999999994  1.0000
  H   H841      1.0  0.033599999999999984  0.06851  0.07060999999999998  1.0000
  O   O685      1.0  0.74882  0.82792  0.10402  1.0000
  O   O686      1.0  0.7749099999999999  0.81281  0.1643  1.0000
  O   O687      1.0  0.028190000000000003  0.77395  0.28008  1.0000
  O   O688      1.0  0.85265  0.8343  0.3466599999999999  1.0000
  H   H842      1.0  0.78759  0.82251  0.31349  1.0000
  O   O689      1.0  0.82051  0.78589  0.2691099999999999  1.0000
  O   O690      1.0  0.68846  0.0034399999999999977  0.03742999999999999  1.0000
  O   O691      1.0  0.73687  0.035569999999999984  0.11497999999999997  1.0000
  O   O692      1.0  0.73888  0.052279999999999986  0.28312999999999994  1.0000
  O   O693      1.0  0.11744  0.05845  0.26339  1.0000
  O   O694      1.0  0.80382  0.78388  0.10096999999999998  1.0000
  O   O695      1.0  0.79765  0.73866  0.12070999999999998  1.0000
  O   O696      1.0  0.7996299999999998  0.76572  0.19158999999999998  1.0000
  C   C1278     1.0  0.0013199999999999935  0.74584  0.13295  1.0000
  O   O697      1.0  0.7647000000000002  0.80021  0.29231999999999997  1.0000
  C   C1279     1.0  0.77693  0.85478  0.25114  1.0000
  C   C1280     1.0  0.10737000000000003  0.96059  0.18792  1.0000
  C   C1281     1.0  0.13601999999999997  0.9446699999999999  0.17244  1.0000
  C   C1282     1.0  0.13486  0.90413  0.16157  1.0000
  C   C1283     1.0  0.11416  0.8840799999999999  0.17764  1.0000
  C   C1284     1.0  0.77104  0.9089  0.21460999999999994  1.0000
  C   C1285     1.0  0.76471  0.89428  0.24535999999999994  1.0000
  C   C1286     1.0  0.76587  0.92716  0.2851899999999999  1.0000
  C   C1287     1.0  0.7683500000000001  0.96924  0.29196  1.0000
  C   C1288     1.0  0.7663500000000001  0.9843000000000001  0.25924  1.0000
  C   C1289     1.0  0.10499999999999998  0.95224  0.22223999999999994  1.0000
  C   C1290     1.0  0.06741999999999997  0.95509  0.15143999999999994  1.0000
  C   C1291     1.0  0.7346100000000001  0.96428  0.11675999999999997  1.0000
  C   C1292     1.0  0.03409  0.97027  0.08726  1.0000
  C   C1293     1.0  0.9965199999999999  0.9593  0.08639999999999998  1.0000
  C   C1294     1.0  0.9943  0.94495  0.11820999999999997  1.0000
  O   O698      1.0  0.95773  0.9341400000000001  0.11840999999999997  1.0000
  C   C1295     1.0  0.9496000000000001  0.9684199999999998  0.14697  1.0000
  C   C1296     1.0  0.029819999999999992  0.9431  0.1511  1.0000
  H   H843      1.0  0.14971999999999994  0.95866  0.15688999999999995  1.0000
  H   H844      1.0  0.14722000000000002  0.8879399999999998  0.13777  1.0000
  H   H845      1.0  0.7689400000000001  0.92059  0.3141899999999999  1.0000
  H   H846      1.0  0.7764600000000003  0.99224  0.3254499999999999  1.0000
  H   H847      1.0  0.76358  0.97648  0.12050999999999998  1.0000
  H   H848      1.0  0.9701  0.96597  0.06505  1.0000
  H   H849      1.0  0.92038  0.95946  0.14751999999999998  1.0000
  H   H850      1.0  0.9464800000000001  0.9919299999999999  0.13338  1.0000
  H   H851      1.0  0.027639999999999998  0.9337199999999999  0.17666  1.0000
  C   C1297     1.0  0.8955199999999999  0.7487199999999999  0.19617999999999994  1.0000
  C   C1298     1.0  0.91144  0.72008  0.21167  1.0000
  C   C1299     1.0  0.9519800000000002  0.72124  0.22253  1.0000
  C   C1300     1.0  0.97202  0.7419399999999999  0.20645999999999995  1.0000
  C   C1301     1.0  0.9472  0.75173  0.16948  1.0000
  C   C1302     1.0  0.96182  0.75806  0.13874  1.0000
  C   C1303     1.0  0.8718  0.75642  0.12486  1.0000
  C   C1304     1.0  0.90386  0.7511  0.16185999999999995  1.0000
  C   C1305     1.0  0.901  0.78867  0.23265999999999995  1.0000
  C   C1306     1.0  0.8918  0.78814  0.26732  1.0000
  C   C1307     1.0  0.88581  0.8219899999999998  0.29682999999999987  1.0000
  C   C1308     1.0  0.8968  0.85958  0.2977  1.0000
  C   C1309     1.0  0.91114  0.8617999999999999  0.26588999999999996  1.0000
  O   O699      1.0  0.9219500000000002  0.8983699999999999  0.2657  1.0000
  C   C1310     1.0  0.8876799999999998  0.90651  0.23713999999999993  1.0000
  C   C1311     1.0  0.913  0.82628  0.23300999999999997  1.0000
  H   H852      1.0  0.8974500000000001  0.7063699999999999  0.22721999999999995  1.0000
  H   H853      1.0  0.96817  0.70889  0.24633999999999998  1.0000
  H   H854      1.0  0.89013  0.88599  0.31905  1.0000
  H   H855      1.0  0.89664  0.93573  0.23659  1.0000
  H   H856      1.0  0.8755000000000001  0.88316  0.20113999999999996  1.0000
  H   H857      1.0  0.8641700000000001  0.9096199999999999  0.25073  1.0000
  H   H858      1.0  0.92239  0.8284599999999999  0.20745  1.0000
  C   C1312     1.0  0.7649799999999999  0.83987  0.39832999999999996  1.0000
  Ni  Ni100     1.0  0.74612  0.7766499999999998  0.31705  1.0000
  Ni  Ni101     1.0  0.75599  0.7571399999999999  0.38917  1.0000
  Ni  Ni102     1.0  0.76562  0.7667799999999999  0.49492999999999987  1.0000
  H   H859      1.0  0.81587  0.74468  0.4395699999999999  1.0000
  C   C1313     1.0  0.85202  0.81317  0.55621  1.0000
  H   H860      1.0  0.74438  0.81586  0.53378  1.0000
  C   C1314     1.0  0.70959  0.0040599999999999786  0.3278799999999999  1.0000
  C   C1315     1.0  0.09593999999999997  0.03214  0.51761  1.0000
  H   H861      1.0  0.06692999999999996  0.03516999999999996  0.4332499999999999  1.0000
  H   H862      1.0  0.8209300000000002  0.78912  0.4508299999999999  1.0000
  C   C1316     1.0  0.82397  0.76015  0.3664799999999999  1.0000
  O   O700      1.0  0.99114  0.7123299999999999  0.3465299999999999  1.0000
  O   O701      1.0  0.04230999999999994  0.7660499999999999  0.4069899999999999  1.0000
  O   O702      1.0  0.81043  0.86496  0.53755  1.0000
  O   O703      1.0  0.7566999999999999  0.8137899999999999  0.4770999999999999  1.0000
  H   H863      1.0  0.033599999999999984  0.06851  0.32061  1.0000
  O   O704      1.0  0.7488199999999999  0.82792  0.3540199999999999  1.0000
  O   O705      1.0  0.77491  0.81281  0.4143  1.0000
  O   O706      1.0  0.028189999999999955  0.77395  0.5300799999999999  1.0000
  O   O707      1.0  0.85265  0.8343  0.59666  1.0000
  H   H864      1.0  0.78759  0.82251  0.56349  1.0000
  O   O708      1.0  0.82051  0.78589  0.51911  1.0000
  O   O709      1.0  0.6884599999999998  0.0034400000000000025  0.28743  1.0000
  O   O710      1.0  0.73688  0.035570000000000004  0.36497  1.0000
  O   O711      1.0  0.73888  0.052279999999999986  0.53313  1.0000
  O   O712      1.0  0.11744  0.05844999999999995  0.5133799999999998  1.0000
  O   O713      1.0  0.8038200000000001  0.78388  0.35097  1.0000
  O   O714      1.0  0.7976499999999999  0.73865  0.3707099999999999  1.0000
  O   O715      1.0  0.79964  0.76571  0.44158  1.0000
  C   C1317     1.0  0.0013199999999999813  0.7458299999999998  0.38295  1.0000
  O   O716      1.0  0.7647000000000002  0.80021  0.54232  1.0000
  C   C1318     1.0  0.77693  0.85478  0.50114  1.0000
  C   C1319     1.0  0.10736999999999995  0.96059  0.43791999999999986  1.0000
  C   C1320     1.0  0.13602  0.9446699999999999  0.42244  1.0000
  C   C1321     1.0  0.13487  0.90413  0.41157  1.0000
  C   C1322     1.0  0.11415999999999994  0.8840799999999999  0.4276399999999999  1.0000
  C   C1323     1.0  0.77104  0.9089  0.46461  1.0000
  C   C1324     1.0  0.7647000000000002  0.89428  0.4953599999999999  1.0000
  C   C1325     1.0  0.76587  0.92716  0.53519  1.0000
  C   C1326     1.0  0.7683399999999999  0.96924  0.54196  1.0000
  C   C1327     1.0  0.7663500000000001  0.9843000000000001  0.5092399999999999  1.0000
  C   C1328     1.0  0.10499999999999998  0.95224  0.47224  1.0000
  C   C1329     1.0  0.06741999999999997  0.95509  0.40143999999999996  1.0000
  C   C1330     1.0  0.7346100000000001  0.96428  0.36676  1.0000
  C   C1331     1.0  0.034099999999999984  0.97027  0.33725  1.0000
  C   C1332     1.0  0.9965199999999999  0.95929  0.33639999999999987  1.0000
  C   C1333     1.0  0.9943  0.94495  0.36821  1.0000
  O   O717      1.0  0.95773  0.93415  0.3684099999999999  1.0000
  C   C1334     1.0  0.9496000000000001  0.9684199999999998  0.3969699999999999  1.0000
  C   C1335     1.0  0.02982  0.9431  0.4011  1.0000
  H   H865      1.0  0.14972  0.95866  0.40689  1.0000
  H   H866      1.0  0.14722000000000002  0.8879399999999998  0.38777  1.0000
  H   H867      1.0  0.7689400000000001  0.92059  0.5641899999999999  1.0000
  H   H868      1.0  0.7764600000000003  0.99224  0.57545  1.0000
  H   H869      1.0  0.76358  0.97648  0.37051  1.0000
  H   H870      1.0  0.9701  0.96596  0.31504  1.0000
  H   H871      1.0  0.92038  0.9594699999999999  0.3975199999999999  1.0000
  H   H872      1.0  0.9464800000000001  0.9919299999999999  0.38337  1.0000
  H   H873      1.0  0.02763999999999995  0.9337199999999999  0.4266599999999999  1.0000
  C   C1336     1.0  0.8955199999999999  0.74872  0.4461799999999999  1.0000
  C   C1337     1.0  0.91144  0.72008  0.46167  1.0000
  C   C1338     1.0  0.9519800000000002  0.72124  0.47253  1.0000
  C   C1339     1.0  0.97202  0.74194  0.45646  1.0000
  C   C1340     1.0  0.9472  0.75172  0.41948  1.0000
  C   C1341     1.0  0.96182  0.75806  0.3887299999999999  1.0000
  C   C1342     1.0  0.87181  0.75642  0.3748599999999999  1.0000
  C   C1343     1.0  0.90386  0.7510899999999999  0.4118599999999999  1.0000
  C   C1344     1.0  0.9009999999999998  0.78867  0.48265999999999987  1.0000
  C   C1345     1.0  0.8918  0.7881399999999998  0.51732  1.0000
  C   C1346     1.0  0.88581  0.82199  0.54683  1.0000
  C   C1347     1.0  0.8968  0.85958  0.5477  1.0000
  C   C1348     1.0  0.91114  0.8617999999999999  0.51589  1.0000
  O   O718      1.0  0.9219500000000002  0.8983699999999999  0.5157  1.0000
  C   C1349     1.0  0.8876900000000001  0.90651  0.48714  1.0000
  C   C1350     1.0  0.9130000000000005  0.82628  0.48301  1.0000
  H   H874      1.0  0.8974500000000001  0.7063699999999999  0.47721999999999987  1.0000
  H   H875      1.0  0.96817  0.70889  0.49634  1.0000
  H   H876      1.0  0.89013  0.88599  0.5690499999999997  1.0000
  H   H877      1.0  0.89664  0.93573  0.4865899999999999  1.0000
  H   H878      1.0  0.8755000000000001  0.88316  0.45114  1.0000
  H   H879      1.0  0.86418  0.9096199999999999  0.50073  1.0000
  H   H880      1.0  0.92239  0.8284599999999999  0.4574499999999999  1.0000
  C   C1351     1.0  0.7649800000000001  0.83987  0.64833  1.0000
  Ni  Ni103     1.0  0.7461199999999999  0.7766499999999998  0.5670499999999999  1.0000
  Ni  Ni104     1.0  0.75599  0.7571399999999998  0.6391699999999998  1.0000
  Ni  Ni105     1.0  0.76562  0.76678  0.74493  1.0000
  H   H881      1.0  0.81587  0.74468  0.68957  1.0000
  C   C1352     1.0  0.85202  0.8131699999999997  0.8062099999999998  1.0000
  H   H882      1.0  0.74438  0.81586  0.78378  1.0000
  C   C1353     1.0  0.7095899999999998  0.004059999999999906  0.5778799999999997  1.0000
  C   C1354     1.0  0.09593999999999994  0.032139999999999926  0.7676099999999998  1.0000
  H   H883      1.0  0.06692999999999986  0.03516999999999991  0.6832499999999998  1.0000
  H   H884      1.0  0.82093  0.7891299999999999  0.7008299999999997  1.0000
  C   C1355     1.0  0.82397  0.76015  0.6164799999999999  1.0000
  O   O719      1.0  0.99114  0.71234  0.5965399999999998  1.0000
  O   O720      1.0  0.042309999999999987  0.7660599999999999  0.65699  1.0000
  O   O721      1.0  0.8104299999999999  0.86496  0.7875499999999998  1.0000
  O   O722      1.0  0.7567  0.81379  0.7271  1.0000
  H   H885      1.0  0.033599999999999915  0.06850999999999993  0.5706099999999997  1.0000
  O   O723      1.0  0.7488199999999999  0.8279199999999998  0.6040199999999998  1.0000
  O   O724      1.0  0.7749099999999998  0.81281  0.6642999999999998  1.0000
  O   O725      1.0  0.02818999999999998  0.77395  0.7800799999999999  1.0000
  O   O726      1.0  0.85265  0.8343  0.84666  1.0000
  H   H886      1.0  0.78759  0.82251  0.8134899999999999  1.0000
  O   O727      1.0  0.82051  0.7858899999999999  0.7691099999999997  1.0000
  O   O728      1.0  0.6884599999999998  0.003439999999999905  0.5374299999999997  1.0000
  O   O729      1.0  0.73688  0.03557000000000003  0.61498  1.0000
  O   O730      1.0  0.73888  0.05227999999999991  0.7831299999999998  1.0000
  O   O731      1.0  0.11743999999999993  0.05844999999999993  0.7633799999999997  1.0000
  O   O732      1.0  0.80382  0.78388  0.60097  1.0000
  O   O733      1.0  0.79765  0.73865  0.62071  1.0000
  O   O734      1.0  0.79964  0.76571  0.69159  1.0000
  C   C1356     1.0  0.0013199999999999146  0.7458299999999999  0.6329499999999998  1.0000
  O   O735      1.0  0.7647000000000003  0.80021  0.79232  1.0000
  C   C1357     1.0  0.7769299999999999  0.85478  0.75114  1.0000
  C   C1358     1.0  0.10737000000000001  0.96059  0.6879199999999999  1.0000
  C   C1359     1.0  0.13602  0.9446699999999999  0.67244  1.0000
  C   C1360     1.0  0.13487  0.90413  0.66157  1.0000
  C   C1361     1.0  0.11416999999999995  0.8840799999999999  0.67764  1.0000
  C   C1362     1.0  0.77104  0.9089  0.71461  1.0000
  C   C1363     1.0  0.7647099999999999  0.89428  0.7453599999999998  1.0000
  C   C1364     1.0  0.76587  0.9271599999999999  0.7851899999999998  1.0000
  C   C1365     1.0  0.7683500000000001  0.96924  0.7919599999999998  1.0000
  C   C1366     1.0  0.7663500000000001  0.9843000000000001  0.75924  1.0000
  C   C1367     1.0  0.10499999999999994  0.9522399999999998  0.7222399999999998  1.0000
  C   C1368     1.0  0.06741999999999992  0.95509  0.6514399999999999  1.0000
  C   C1369     1.0  0.7346100000000001  0.96428  0.61676  1.0000
  C   C1370     1.0  0.03410000000000001  0.97027  0.58726  1.0000
  C   C1371     1.0  0.9965199999999999  0.95929  0.5863999999999998  1.0000
  C   C1372     1.0  0.9943  0.94495  0.6182099999999998  1.0000
  O   O736      1.0  0.95773  0.93415  0.61841  1.0000
  C   C1373     1.0  0.9496000000000001  0.9684199999999998  0.6469699999999998  1.0000
  C   C1374     1.0  0.029819999999999926  0.9431  0.6510999999999998  1.0000
  H   H887      1.0  0.14972  0.95866  0.65689  1.0000
  H   H888      1.0  0.14722000000000005  0.8879399999999998  0.63777  1.0000
  H   H889      1.0  0.76895  0.92059  0.8141899999999997  1.0000
  H   H890      1.0  0.7764600000000003  0.99224  0.82546  1.0000
  H   H891      1.0  0.76358  0.97648  0.62051  1.0000
  H   H892      1.0  0.9701  0.96597  0.56505  1.0000
  H   H893      1.0  0.92038  0.9594699999999998  0.6475199999999998  1.0000
  H   H894      1.0  0.9464800000000001  0.9919299999999999  0.63337  1.0000
  H   H895      1.0  0.027640000000000022  0.9337199999999999  0.67666  1.0000
  C   C1375     1.0  0.8955199999999999  0.74872  0.6961799999999998  1.0000
  C   C1376     1.0  0.91144  0.7200799999999998  0.7116699999999998  1.0000
  C   C1377     1.0  0.9519800000000002  0.7212399999999998  0.7225299999999998  1.0000
  C   C1378     1.0  0.97202  0.7419399999999998  0.7064599999999998  1.0000
  C   C1379     1.0  0.9471999999999998  0.75172  0.6694799999999997  1.0000
  C   C1380     1.0  0.96182  0.7580599999999997  0.6387299999999998  1.0000
  C   C1381     1.0  0.8718100000000001  0.7564199999999999  0.62486  1.0000
  C   C1382     1.0  0.90386  0.75109  0.66186  1.0000
  C   C1383     1.0  0.9009999999999998  0.78867  0.7326599999999998  1.0000
  C   C1384     1.0  0.8917999999999996  0.7881399999999998  0.7673199999999998  1.0000
  C   C1385     1.0  0.88581  0.82199  0.7968299999999998  1.0000
  C   C1386     1.0  0.8968  0.85958  0.7977  1.0000
  C   C1387     1.0  0.9111399999999995  0.8617999999999999  0.76589  1.0000
  O   O737      1.0  0.9219500000000002  0.8983699999999999  0.7657  1.0000
  C   C1388     1.0  0.88768  0.9064999999999999  0.73714  1.0000
  C   C1389     1.0  0.9130000000000005  0.8262800000000001  0.73301  1.0000
  H   H896      1.0  0.8974499999999999  0.7063699999999999  0.7272199999999998  1.0000
  H   H897      1.0  0.96817  0.70889  0.7463399999999998  1.0000
  H   H898      1.0  0.89013  0.88599  0.8190499999999997  1.0000
  H   H899      1.0  0.8966400000000002  0.93572  0.7365899999999999  1.0000
  H   H900      1.0  0.8755000000000001  0.88315  0.70114  1.0000
  H   H901      1.0  0.8641700000000001  0.9096199999999999  0.7507299999999998  1.0000
  H   H902      1.0  0.92239  0.8284599999999999  0.70745  1.0000
  C   C1390     1.0  0.7649799999999999  0.8398699999999999  0.8983299999999997  1.0000
  Ni  Ni106     1.0  0.7461199999999999  0.7766499999999998  0.8170499999999998  1.0000
  Ni  Ni107     1.0  0.75599  0.75713  0.88917  1.0000
  Ni  Ni108     1.0  0.76562  0.7667799999999999  0.9949199999999998  1.0000
  H   H903      1.0  0.81587  0.74467  0.93956  1.0000
  C   C1391     1.0  0.85202  0.81317  0.0562  1.0000
  H   H904      1.0  0.7443700000000001  0.81586  0.03378  1.0000
  C   C1392     1.0  0.7095899999999999  0.004059999999999906  0.8278699999999998  1.0000
  C   C1393     1.0  0.09594  0.03214  0.01761  1.0000
  H   H905      1.0  0.0669199999999999  0.035179999999999934  0.9332399999999997  1.0000
  H   H906      1.0  0.8209300000000002  0.7891199999999999  0.9508199999999998  1.0000
  C   C1394     1.0  0.82397  0.76015  0.8664799999999998  1.0000
  O   O738      1.0  0.9911399999999999  0.7123299999999999  0.8465299999999998  1.0000
  O   O739      1.0  0.04230999999999999  0.76605  0.90699  1.0000
  O   O740      1.0  0.81043  0.86496  0.03755  1.0000
  O   O741      1.0  0.7567  0.8137899999999999  0.9771  1.0000
  H   H907      1.0  0.03359999999999991  0.06850999999999988  0.8206099999999997  1.0000
  O   O742      1.0  0.7488199999999999  0.82792  0.8540199999999998  1.0000
  O   O743      1.0  0.7749099999999999  0.81281  0.9143099999999997  1.0000
  O   O744      1.0  0.028190000000000003  0.77395  0.030079999999999992  1.0000
  O   O745      1.0  0.85265  0.8343  0.09665999999999997  1.0000
  H   H908      1.0  0.78758  0.82251  0.06349  1.0000
  O   O746      1.0  0.8205  0.7859  0.019099999999999992  1.0000
  O   O747      1.0  0.68846  0.0034399999999999782  0.78742  1.0000
  O   O748      1.0  0.73688  0.03556999999999991  0.8649699999999998  1.0000
  O   O749      1.0  0.73888  0.05228  0.03312999999999999  1.0000
  O   O750      1.0  0.11743000000000002  0.05845  0.013379999999999996  1.0000
  O   O751      1.0  0.80382  0.78388  0.8509699999999998  1.0000
  O   O752      1.0  0.7976500000000001  0.73865  0.87071  1.0000
  O   O753      1.0  0.7996399999999998  0.7657099999999998  0.9415799999999998  1.0000
  C   C1395     1.0  0.0013199999999999631  0.7458299999999999  0.88295  1.0000
  O   O754      1.0  0.7647000000000002  0.80021  0.04232  1.0000
  C   C1396     1.0  0.77693  0.85478  0.00114  1.0000
  C   C1397     1.0  0.10736999999999988  0.96059  0.9379199999999998  1.0000
  C   C1398     1.0  0.1360199999999999  0.9446599999999998  0.9224299999999998  1.0000
  C   C1399     1.0  0.13486999999999988  0.9041299999999998  0.9115699999999998  1.0000
  C   C1400     1.0  0.11415999999999994  0.8840799999999999  0.9276399999999999  1.0000
  C   C1401     1.0  0.77104  0.9089  0.9646099999999997  1.0000
  C   C1402     1.0  0.7647  0.89428  0.9953599999999998  1.0000
  C   C1403     1.0  0.76586  0.92716  0.03519  1.0000
  C   C1404     1.0  0.7683399999999999  0.96924  0.04195  1.0000
  C   C1405     1.0  0.7663500000000001  0.9843000000000001  0.009239999999999998  1.0000
  C   C1406     1.0  0.10500000000000001  0.95224  0.97224  1.0000
  C   C1407     1.0  0.06741999999999992  0.95509  0.9014299999999997  1.0000
  C   C1408     1.0  0.7346100000000001  0.9642699999999998  0.8667599999999998  1.0000
  C   C1409     1.0  0.034099999999999936  0.97026  0.8372499999999998  1.0000
  C   C1410     1.0  0.9965199999999999  0.95929  0.8363899999999997  1.0000
  C   C1411     1.0  0.9943  0.94495  0.86821  1.0000
  O   O755      1.0  0.95773  0.93415  0.8684  1.0000
  C   C1412     1.0  0.9496000000000001  0.9684199999999998  0.8969599999999998  1.0000
  C   C1413     1.0  0.029819999999999926  0.9431  0.9010899999999997  1.0000
  H   H909      1.0  0.14971999999999988  0.95866  0.9068799999999998  1.0000
  H   H910      1.0  0.14722000000000002  0.8879399999999998  0.8877799999999999  1.0000
  H   H911      1.0  0.76893  0.92059  0.06418  1.0000
  H   H912      1.0  0.7764500000000001  0.99224  0.07545  1.0000
  H   H913      1.0  0.76358  0.97648  0.8705  1.0000
  H   H914      1.0  0.9701  0.96596  0.81504  1.0000
  H   H915      1.0  0.92038  0.9594699999999999  0.8975099999999998  1.0000
  H   H916      1.0  0.9464800000000001  0.9919299999999999  0.8833699999999999  1.0000
  H   H917      1.0  0.027639999999999974  0.9337199999999999  0.92666  1.0000
  C   C1414     1.0  0.8955099999999998  0.74872  0.9461799999999998  1.0000
  C   C1415     1.0  0.9114399999999998  0.72007  0.9616699999999998  1.0000
  C   C1416     1.0  0.9519700000000001  0.72124  0.9725299999999998  1.0000
  C   C1417     1.0  0.97202  0.74194  0.95646  1.0000
  C   C1418     1.0  0.9472  0.75172  0.9194799999999997  1.0000
  C   C1419     1.0  0.96182  0.75806  0.8887299999999998  1.0000
  C   C1420     1.0  0.8718100000000001  0.75641  0.87486  1.0000
  C   C1421     1.0  0.90386  0.75109  0.91186  1.0000
  C   C1422     1.0  0.9009999999999996  0.78867  0.9826499999999998  1.0000
  C   C1423     1.0  0.89179  0.78814  0.01731  1.0000
  C   C1424     1.0  0.88581  0.82199  0.04682  1.0000
  C   C1425     1.0  0.89679  0.85958  0.04769  1.0000
  C   C1426     1.0  0.91114  0.8617999999999999  0.015889999999999998  1.0000
  O   O756      1.0  0.92196  0.8983699999999999  0.0157  1.0000
  C   C1427     1.0  0.8876899999999999  0.90651  0.9871399999999998  1.0000
  C   C1428     1.0  0.9129999999999997  0.82627  0.9830099999999998  1.0000
  H   H918      1.0  0.8974499999999999  0.7063699999999999  0.9772199999999998  1.0000
  H   H919      1.0  0.96817  0.70889  0.9963399999999998  1.0000
  H   H920      1.0  0.89013  0.88599  0.06905  1.0000
  H   H921      1.0  0.8966500000000001  0.9357299999999998  0.9865899999999997  1.0000
  H   H922      1.0  0.8755000000000001  0.88316  0.9511399999999998  1.0000
  H   H923      1.0  0.86418  0.9096199999999999  0.0007199999999999998  1.0000
  H   H924      1.0  0.9224000000000001  0.82846  0.95745  1.0000
  C   C1429     1.0  0.3495599999999999  0.09112999999999999  0.23578999999999997  1.0000
  H   H925      1.0  0.4447000000000001  0.04022000000000001  0.19451  1.0000
  H   H926      1.0  0.37358  0.11172  0.10034  1.0000
  O   O757      1.0  0.37662000000000007  0.08119999999999998  0.21980999999999998  1.0000
  O   O758      1.0  0.42369  0.05646999999999998  0.19249999999999998  1.0000
  O   O759      1.0  0.38923  0.0914  0.09179  1.0000
  H   H927      1.0  0.30628000000000005  0.9806099999999999  0.18295999999999996  1.0000
  C   C1430     1.0  0.26227  0.09022999999999999  0.09891999999999997  1.0000
  C   C1431     1.0  0.2202  0.08776  0.09215  1.0000
  H   H928      1.0  0.26884  0.08717  0.06992  1.0000
  H   H929      1.0  0.19720000000000001  0.07966  0.05866  1.0000
  C   C1432     1.0  0.3495599999999999  0.09112999999999995  0.4857899999999999  1.0000
  H   H930      1.0  0.4447  0.040209999999999954  0.4445099999999999  1.0000
  H   H931      1.0  0.37358  0.11172  0.35033  1.0000
  O   O760      1.0  0.37662000000000007  0.0812  0.46981  1.0000
  O   O761      1.0  0.42368  0.05646999999999999  0.4425  1.0000
  O   O762      1.0  0.38923  0.09139000000000003  0.34178  1.0000
  H   H932      1.0  0.30628000000000005  0.9806099999999999  0.4329599999999999  1.0000
  C   C1433     1.0  0.26227  0.09022999999999999  0.34891  1.0000
  C   C1434     1.0  0.22019999999999995  0.08775999999999998  0.34214999999999995  1.0000
  H   H933      1.0  0.26884  0.08716  0.31992  1.0000
  H   H934      1.0  0.19720000000000001  0.07964999999999997  0.30865  1.0000
  C   C1435     1.0  0.3495599999999999  0.09112999999999992  0.7357899999999998  1.0000
  H   H935      1.0  0.4447  0.040209999999999954  0.69451  1.0000
  H   H936      1.0  0.37358  0.11172  0.60033  1.0000
  O   O763      1.0  0.37662000000000007  0.08119999999999998  0.71981  1.0000
  O   O764      1.0  0.42368  0.05646999999999988  0.6924999999999998  1.0000
  O   O765      1.0  0.38923  0.09139  0.59179  1.0000
  H   H937      1.0  0.30628000000000005  0.9806099999999999  0.6829599999999998  1.0000
  C   C1436     1.0  0.26228  0.09023000000000003  0.59891  1.0000
  C   C1437     1.0  0.2202  0.08776  0.59215  1.0000
  H   H938      1.0  0.26884  0.08717  0.56992  1.0000
  H   H939      1.0  0.19720000000000001  0.07965  0.55866  1.0000
  C   C1438     1.0  0.3495599999999999  0.09112999999999992  0.9857899999999998  1.0000
  H   H940      1.0  0.44469000000000003  0.04021  0.94451  1.0000
  H   H941      1.0  0.3735899999999999  0.11172000000000006  0.85033  1.0000
  O   O766      1.0  0.37660999999999994  0.08119999999999997  0.9698099999999998  1.0000
  O   O767      1.0  0.42367000000000005  0.056470000000000006  0.94249  1.0000
  O   O768      1.0  0.38923  0.09139  0.84178  1.0000
  H   H942      1.0  0.30628  0.9806099999999999  0.9329599999999998  1.0000
  C   C1439     1.0  0.26227  0.09021999999999987  0.8489099999999998  1.0000
  C   C1440     1.0  0.2201999999999999  0.08774999999999991  0.8421399999999998  1.0000
  H   H943      1.0  0.2688399999999999  0.0871599999999999  0.8199099999999998  1.0000
  H   H944      1.0  0.19720000000000004  0.07964000000000004  0.80865  1.0000
  C   C1441     1.0  0.6829  0.09112999999999999  0.23578999999999997  1.0000
  H   H945      1.0  0.77804  0.04022000000000001  0.19451  1.0000
  H   H946      1.0  0.70692  0.11172  0.10034  1.0000
  O   O769      1.0  0.70995  0.08119999999999998  0.21980999999999998  1.0000
  O   O770      1.0  0.7570200000000001  0.05646999999999998  0.19249999999999998  1.0000
  O   O771      1.0  0.7225600000000001  0.0914  0.09179  1.0000
  H   H947      1.0  0.63961  0.9806099999999999  0.18295999999999996  1.0000
  C   C1442     1.0  0.59561  0.09022999999999999  0.09891999999999997  1.0000
  C   C1443     1.0  0.5535300000000001  0.08776  0.09215  1.0000
  H   H948      1.0  0.60218  0.08717  0.06992  1.0000
  H   H949      1.0  0.53054  0.07966  0.05866  1.0000
  C   C1444     1.0  0.6829  0.09112999999999995  0.4857899999999999  1.0000
  H   H950      1.0  0.7780300000000002  0.040209999999999954  0.4445099999999999  1.0000
  H   H951      1.0  0.70692  0.11172  0.35033  1.0000
  O   O772      1.0  0.70995  0.0812  0.46981  1.0000
  O   O773      1.0  0.7570200000000001  0.05646999999999999  0.4425  1.0000
  O   O774      1.0  0.7225600000000002  0.09139000000000003  0.34178  1.0000
  H   H952      1.0  0.6396099999999999  0.9806099999999999  0.4329599999999999  1.0000
  C   C1445     1.0  0.59561  0.09022999999999999  0.34891  1.0000
  C   C1446     1.0  0.5535300000000001  0.08775999999999998  0.34214999999999995  1.0000
  H   H953      1.0  0.60218  0.08716  0.31992  1.0000
  H   H954      1.0  0.53054  0.07964999999999997  0.30865  1.0000
  C   C1447     1.0  0.6828999999999998  0.09112999999999992  0.7357899999999998  1.0000
  H   H955      1.0  0.77804  0.040209999999999954  0.69451  1.0000
  H   H956      1.0  0.70692  0.11172  0.60033  1.0000
  O   O775      1.0  0.70995  0.08119999999999998  0.71981  1.0000
  O   O776      1.0  0.7570200000000001  0.05646999999999988  0.6924999999999998  1.0000
  O   O777      1.0  0.7225600000000001  0.09139  0.59179  1.0000
  H   H957      1.0  0.6396099999999999  0.9806099999999999  0.6829599999999998  1.0000
  C   C1448     1.0  0.59561  0.09023000000000003  0.59891  1.0000
  C   C1449     1.0  0.5535300000000001  0.08776  0.59215  1.0000
  H   H958      1.0  0.60218  0.08717  0.56992  1.0000
  H   H959      1.0  0.53054  0.07965  0.55866  1.0000
  C   C1450     1.0  0.68289  0.09112999999999992  0.9857899999999998  1.0000
  H   H960      1.0  0.77802  0.04021  0.94451  1.0000
  H   H961      1.0  0.70692  0.11172000000000006  0.85033  1.0000
  O   O778      1.0  0.70995  0.08119999999999997  0.9698099999999998  1.0000
  O   O779      1.0  0.75701  0.056470000000000006  0.94249  1.0000
  O   O780      1.0  0.7225600000000001  0.09139  0.84178  1.0000
  H   H962      1.0  0.6396099999999999  0.9806099999999999  0.9329599999999998  1.0000
  C   C1451     1.0  0.5956099999999999  0.09021999999999987  0.8489099999999998  1.0000
  C   C1452     1.0  0.5535300000000001  0.08774999999999991  0.8421399999999998  1.0000
  H   H963      1.0  0.60218  0.0871599999999999  0.8199099999999998  1.0000
  H   H964      1.0  0.53054  0.07964000000000004  0.80865  1.0000
  C   C1453     1.0  0.016229999999999984  0.09112999999999999  0.23578999999999997  1.0000
  H   H965      1.0  0.11137000000000001  0.04022000000000001  0.19451  1.0000
  H   H966      1.0  0.04025  0.11172  0.10034  1.0000
  O   O781      1.0  0.043279999999999985  0.08119999999999998  0.21980999999999998  1.0000
  O   O782      1.0  0.09034999999999999  0.05646999999999998  0.19249999999999998  1.0000
  O   O783      1.0  0.055900000000000026  0.0914  0.09179  1.0000
  H   H967      1.0  0.97294  0.9806099999999999  0.18295999999999996  1.0000
  C   C1454     1.0  0.9289400000000001  0.09022999999999999  0.09891999999999997  1.0000
  C   C1455     1.0  0.88687  0.08776  0.09215  1.0000
  H   H968      1.0  0.93551  0.08717  0.06992  1.0000
  H   H969      1.0  0.86387  0.07966  0.05866  1.0000
  C   C1456     1.0  0.01622999999999997  0.09112999999999995  0.4857899999999999  1.0000
  H   H970      1.0  0.11136999999999996  0.040209999999999954  0.4445099999999999  1.0000
  H   H971      1.0  0.040249999999999994  0.11172  0.35033  1.0000
  O   O784      1.0  0.043280000000000006  0.0812  0.46981  1.0000
  O   O785      1.0  0.09035  0.05646999999999999  0.4425  1.0000
  O   O786      1.0  0.055900000000000026  0.09139000000000003  0.34178  1.0000
  H   H972      1.0  0.9729500000000001  0.9806099999999999  0.4329599999999999  1.0000
  C   C1457     1.0  0.9289400000000001  0.09022999999999999  0.34891  1.0000
  C   C1458     1.0  0.88687  0.08775999999999998  0.34214999999999995  1.0000
  H   H973      1.0  0.93551  0.08716  0.31992  1.0000
  H   H974      1.0  0.86387  0.07964999999999997  0.30865  1.0000
  C   C1459     1.0  0.016229999999999946  0.09112999999999992  0.7357899999999998  1.0000
  H   H975      1.0  0.11137000000000001  0.040209999999999954  0.69451  1.0000
  H   H976      1.0  0.040249999999999994  0.11172  0.60033  1.0000
  O   O787      1.0  0.043280000000000055  0.08119999999999998  0.71981  1.0000
  O   O788      1.0  0.09034999999999997  0.05646999999999988  0.6924999999999998  1.0000
  O   O789      1.0  0.05589999999999999  0.09139  0.59179  1.0000
  H   H977      1.0  0.9729500000000001  0.9806099999999999  0.6829599999999998  1.0000
  C   C1460     1.0  0.9289400000000001  0.09023000000000003  0.59891  1.0000
  C   C1461     1.0  0.88687  0.08776  0.59215  1.0000
  H   H978      1.0  0.93551  0.08717  0.56992  1.0000
  H   H979      1.0  0.86387  0.07965  0.55866  1.0000
  C   C1462     1.0  0.016229999999999897  0.09112999999999992  0.9857899999999998  1.0000
  H   H980      1.0  0.11135999999999996  0.04021  0.94451  1.0000
  H   H981      1.0  0.04024999999999997  0.11172000000000006  0.85033  1.0000
  O   O790      1.0  0.04327999999999996  0.08119999999999997  0.9698099999999998  1.0000
  O   O791      1.0  0.09034  0.056470000000000006  0.94249  1.0000
  O   O792      1.0  0.05589999999999999  0.09139  0.84178  1.0000
  H   H982      1.0  0.9729500000000001  0.9806099999999999  0.9329599999999998  1.0000
  C   C1463     1.0  0.9289400000000001  0.09021999999999987  0.8489099999999998  1.0000
  C   C1464     1.0  0.8868699999999999  0.08774999999999991  0.8421399999999998  1.0000
  H   H983      1.0  0.93551  0.0871599999999999  0.8199099999999998  1.0000
  H   H984      1.0  0.86387  0.07964000000000004  0.80865  1.0000
  C   C1465     1.0  0.33465000000000006  0.07916  0.13295  1.0000
  C   C1466     1.0  0.24477  0.05341  0.21167  1.0000
  C   C1467     1.0  0.28531  0.05457000000000001  0.22254  1.0000
  C   C1468     1.0  0.30535  0.07527999999999999  0.20646999999999996  1.0000
  H   H985      1.0  0.23078  0.03969999999999998  0.22721999999999995  1.0000
  C   C1469     1.0  0.33465000000000006  0.07916  0.38295  1.0000
  C   C1470     1.0  0.24477  0.053409999999999985  0.46167  1.0000
  C   C1471     1.0  0.28531  0.05456999999999997  0.47254  1.0000
  C   C1472     1.0  0.30535  0.07528  0.45647  1.0000
  H   H986      1.0  0.23078  0.03969999999999996  0.47721999999999987  1.0000
  C   C1473     1.0  0.3346599999999999  0.07915999999999991  0.6329499999999998  1.0000
  C   C1474     1.0  0.24477999999999991  0.05339999999999989  0.7116699999999998  1.0000
  C   C1475     1.0  0.28530999999999995  0.054569999999999924  0.7225399999999997  1.0000
  C   C1476     1.0  0.3053499999999999  0.0752799999999999  0.7064699999999998  1.0000
  H   H987      1.0  0.2307799999999999  0.03969999999999993  0.7272199999999998  1.0000
  C   C1477     1.0  0.33465000000000006  0.07914999999999997  0.88295  1.0000
  C   C1478     1.0  0.24476999999999988  0.05339999999999992  0.9616699999999998  1.0000
  C   C1479     1.0  0.2853099999999999  0.054569999999999896  0.9725399999999997  1.0000
  C   C1480     1.0  0.3053499999999999  0.07526999999999989  0.9564799999999998  1.0000
  H   H988      1.0  0.2307799999999999  0.03969999999999993  0.9772199999999998  1.0000
  C   C1481     1.0  0.66799  0.07916  0.13295  1.0000
  C   C1482     1.0  0.57811  0.05341  0.21167  1.0000
  C   C1483     1.0  0.61864  0.05457000000000001  0.22254  1.0000
  C   C1484     1.0  0.63869  0.07527999999999999  0.20646999999999996  1.0000
  H   H989      1.0  0.56412  0.03969999999999998  0.22721999999999995  1.0000
  C   C1485     1.0  0.66799  0.07916  0.38295  1.0000
  C   C1486     1.0  0.57811  0.053409999999999985  0.46167  1.0000
  C   C1487     1.0  0.61864  0.05456999999999997  0.47254  1.0000
  C   C1488     1.0  0.6386900000000001  0.07528  0.45647  1.0000
  H   H990      1.0  0.56412  0.03969999999999996  0.47721999999999987  1.0000
  C   C1489     1.0  0.66799  0.07915999999999991  0.6329499999999998  1.0000
  C   C1490     1.0  0.57811  0.05339999999999989  0.7116699999999998  1.0000
  C   C1491     1.0  0.6186399999999999  0.054569999999999924  0.7225399999999997  1.0000
  C   C1492     1.0  0.6386899999999999  0.0752799999999999  0.7064699999999998  1.0000
  H   H991      1.0  0.56412  0.03969999999999993  0.7272199999999998  1.0000
  C   C1493     1.0  0.66799  0.07914999999999997  0.88295  1.0000
  C   C1494     1.0  0.57811  0.05339999999999992  0.9616699999999998  1.0000
  C   C1495     1.0  0.6186399999999999  0.054569999999999896  0.9725399999999997  1.0000
  C   C1496     1.0  0.63868  0.07526999999999989  0.9564799999999998  1.0000
  H   H992      1.0  0.5641099999999999  0.03969999999999993  0.9772199999999998  1.0000
  C   C1497     1.0  0.0013199999999999959  0.07916  0.13295  1.0000
  C   C1498     1.0  0.91144  0.05341  0.21167  1.0000
  C   C1499     1.0  0.9519800000000002  0.05457000000000001  0.22254  1.0000
  C   C1500     1.0  0.97202  0.07527999999999999  0.20646999999999996  1.0000
  H   H993      1.0  0.8974500000000001  0.03969999999999998  0.22721999999999995  1.0000
  C   C1501     1.0  0.0013199999999999837  0.07916  0.38295  1.0000
  C   C1502     1.0  0.91144  0.053409999999999985  0.46167  1.0000
  C   C1503     1.0  0.9519800000000002  0.05456999999999997  0.47254  1.0000
  C   C1504     1.0  0.97202  0.07528  0.45647  1.0000
  H   H994      1.0  0.8974500000000001  0.03969999999999996  0.47721999999999987  1.0000
  C   C1505     1.0  0.0013199999999999063  0.07915999999999991  0.6329499999999998  1.0000
  C   C1506     1.0  0.91144  0.05339999999999989  0.7116699999999998  1.0000
  C   C1507     1.0  0.9519800000000002  0.054569999999999924  0.7225399999999997  1.0000
  C   C1508     1.0  0.97202  0.0752799999999999  0.7064699999999998  1.0000
  H   H995      1.0  0.8974500000000001  0.03969999999999993  0.7272199999999998  1.0000
  C   C1509     1.0  0.001320000000000008  0.07914999999999997  0.88295  1.0000
  C   C1510     1.0  0.91144  0.05339999999999992  0.9616699999999998  1.0000
  C   C1511     1.0  0.9519700000000001  0.054569999999999896  0.9725399999999997  1.0000
  C   C1512     1.0  0.97202  0.07526999999999989  0.9564799999999998  1.0000
  H   H996      1.0  0.8974499999999999  0.03969999999999993  0.9772199999999998  1.0000
  H   H997      1.0  0.21290999999999996  0.09248999999999998  0.26355999999999996  1.0000
  H   H998      1.0  0.21291  0.09248999999999998  0.51356  1.0000
  H   H999      1.0  0.21291  0.09248999999999999  0.76356  1.0000
  H   H1000     1.0  0.2129  0.09249  0.013549999999999996  1.0000
  H   H1001     1.0  0.54624  0.09248999999999998  0.26355999999999996  1.0000
  H   H1002     1.0  0.54624  0.09248999999999998  0.51356  1.0000
  H   H1003     1.0  0.54624  0.09248999999999999  0.76356  1.0000
  H   H1004     1.0  0.54624  0.09249  0.013549999999999996  1.0000
  H   H1005     1.0  0.8795800000000001  0.09248999999999998  0.26355999999999996  1.0000
  H   H1006     1.0  0.87957  0.09248999999999998  0.51356  1.0000
  H   H1007     1.0  0.8795800000000001  0.09248999999999999  0.76356  1.0000
  H   H1008     1.0  0.87957  0.09249  0.013549999999999996  1.0000
