data_image0
_chemical_formula_structural       CMnO3MnOMnO3CHO2HOHOH3C4HCHCHCH3C2N5C3N5OC7NC5NC5NC5NCOC5NC2H21C5NC5NC5NC5NCOC5NC2H21CMnO3MnOMnO3CHO2HOHOH3C4HCHCHCH3C2N5C3N5OC7NC5NC5NC5NCOC5NC2H21C5NC5NC5NC5NCOC5NC2H21CMnO3MnOMnO3CHO2HOHOH3C4HCHCHCH3C2N5C3N5OC7NC5NC5NC5NCOC5NC2H21C5NC5NC5NC5NCOC5NC2H21CMnO3MnOMnO3CHO2HOHOH3C4HCHCHCH3C2N5C3N5OC7NC5NC5NC5NCOC5NC2H21C5NC5NC5NC5NCOC5NC2H21CMnO3MnOMnO3CHO2HOHOH3C4HCHCHCH3C2N5C3N5OC7NC5NC5NC5NCOC5NC2H21C5NC5NC5NC5NCOC5NC2H21CMnO3MnOMnO3CHO2HOHOH3C4HCHCHCH3C2N5C3N5OC7NC5NC5NC5NCOC5NC2H21C5NC5NC5NC5NCOC5NC2H21CMnO3MnOMnO3CHO2HOHOH3C4HCHCHCH3C2N5C3N5OC7NC5NC5NC5NCOC5NC2H21C5NC5NC5NC5NCOC5NC2H21CMnO3MnOMnO3CHO2HOHOH3C4HCHCHCH3C2N5C3N5OC7NC5NC5NC5NCOC5NC2H21C5NC5NC5NC5NCOC5NC2H21
_chemical_formula_sum              "C576 Mn24 O112 H432 N160"
_cell_length_a       28.851
_cell_length_b       28.526899999999998
_cell_length_c       27.3647
_cell_angle_alpha    113.476
_cell_angle_beta     67.313
_cell_angle_gamma    93.454

_space_group_name_H-M_alt    "P 1"
_space_group_IT_number       1

loop_
  _space_group_symop_operation_xyz
  'x, y, z'

loop_
  _atom_site_type_symbol
  _atom_site_label
  _atom_site_symmetry_multiplicity
  _atom_site_fract_x
  _atom_site_fract_y
  _atom_site_fract_z
  _atom_site_occupancy
  C   C1        1.0  0.08048  0.25148  0.52901  1.0000
  Mn  Mn1       1.0  0.03787000000000002  0.14684  0.4938  1.0000
  O   O1        1.0  0.06002  0.18934  0.16497  1.0000
  O   O2        1.0  0.12501  0.13790999999999998  0.54819  1.0000
  O   O3        1.0  0.52853  0.16868  0.57532  1.0000
  Mn  Mn2       1.0  0.057759999999999964  0.12671999999999997  0.09941000000000001  1.0000
  O   O4        1.0  0.48040000000000005  0.23480999999999994  0.63819  1.0000
  Mn  Mn3       1.0  0.08022999999999995  0.08505999999999998  0.18890999999999997  1.0000
  O   O5        1.0  0.09187000000000001  0.1576  0.21435999999999997  1.0000
  O   O6        1.0  0.50939  0.10760999999999998  0.22372  1.0000
  O   O7        1.0  0.48904  0.11943  0.15437  1.0000
  C   C2        1.0  0.14279999999999998  0.12910999999999995  0.4927  1.0000
  H   H1        1.0  0.33935000000000004  0.66267  0.56515  1.0000
  O   O8        1.0  0.05745000000000002  0.56044  0.53781  1.0000
  O   O9        1.0  0.02219999999999998  0.5760799999999998  0.4831  1.0000
  H   H2        1.0  0.41630999999999996  0.64992  0.58813  1.0000
  O   O10       1.0  0.09008999999999999  0.58151  0.11449  1.0000
  H   H3        1.0  0.47315999999999986  0.16357999999999998  0.43139999999999995  1.0000
  O   O11       1.0  0.15444999999999995  0.53715  0.04345  1.0000
  H   H4        1.0  0.5382300000000001  0.22296999999999997  0.43052  1.0000
  H   H5        1.0  0.11532000000000003  0.3220499999999999  0.5262  1.0000
  H   H6        1.0  0.09128999999999995  0.24465999999999996  0.55951  1.0000
  C   C3        1.0  0.07433999999999999  0.196  0.20802000000000004  1.0000
  C   C4        1.0  0.23863999999999996  0.05859999999999999  0.12237  1.0000
  C   C5        1.0  0.19415  0.09050999999999997  0.15326  1.0000
  C   C6        1.0  0.17791999999999994  0.013059999999999992  0.12299  1.0000
  H   H7        1.0  0.27547  0.07189  0.11607000000000002  1.0000
  C   C7        1.0  0.08081  0.4602799999999999  0.16855  1.0000
  H   H8        1.0  0.15933000000000003  0.47991  0.11123  1.0000
  C   C8        1.0  0.53276  0.49492999999999987  0.11964999999999999  1.0000
  H   H9        1.0  0.19071  0.13178  0.16981  1.0000
  C   C9        1.0  0.53431  0.4282  0.09166  1.0000
  H   H10       1.0  0.10077999999999997  0.4610499999999999  0.19502  1.0000
  H   H11       1.0  0.51484  0.40484  0.06527  1.0000
  H   H12       1.0  0.51873  0.5206099999999999  0.10749  1.0000
  C   C10       1.0  0.47642  0.11818999999999998  0.20651  1.0000
  C   C11       1.0  0.03787  0.54418  0.49892  1.0000
  N   N1        1.0  0.39482000000000006  0.17270000000000002  0.49089000000000005  1.0000
  N   N2        1.0  0.46192  0.16488  0.51292  1.0000
  N   N3        1.0  0.055189999999999996  0.21965999999999994  0.49888  1.0000
  N   N4        1.0  0.07609999999999999  0.2850399999999999  0.47024  1.0000
  N   N5        1.0  0.4866999999999999  0.18948  0.11038  1.0000
  C   C12       1.0  0.37797999999999987  0.6669599999999998  0.54131  1.0000
  C   C13       1.0  0.41870000000000007  0.66114  0.554  1.0000
  C   C14       1.0  0.4462099999999999  0.16912999999999995  0.47407  1.0000
  N   N6        1.0  0.15557  0.061419999999999995  0.15656  1.0000
  N   N7        1.0  0.56132  0.51067  0.1639  1.0000
  N   N8        1.0  0.22789  0.009140000000000006  0.10717  1.0000
  N   N9        1.0  0.56199  0.4095299999999999  0.12532  1.0000
  N   N10       1.0  0.13485  0.57637  0.08443  1.0000
  O   O12       1.0  0.11216000000000001  0.12584  0.46567  1.0000
  C   C15       1.0  0.0535  0.24088999999999997  0.46325  1.0000
  C   C16       1.0  0.09309  0.29181  0.51171  1.0000
  C   C17       1.0  0.43582  0.3982099999999999  0.36144  1.0000
  C   C18       1.0  0.4445799999999999  0.43377  0.40648  1.0000
  C   C19       1.0  0.41556  0.48041000000000006  0.44674  1.0000
  C   C20       1.0  0.44198  0.5065  0.47975  1.0000
  C   C21       1.0  0.48563999999999996  0.4747899999999999  0.45854  1.0000
  N   N11       1.0  0.48672000000000004  0.43  0.41496  1.0000
  C   C22       1.0  0.52853  0.48807000000000006  0.47643  1.0000
  C   C23       1.0  0.5569800000000003  0.44836  0.47138  1.0000
  C   C24       1.0  0.10402  0.4493799999999999  0.47358  1.0000
  C   C25       1.0  0.11885000000000001  0.40045  0.4648  1.0000
  C   C26       1.0  0.08013999999999999  0.3711399999999999  0.45779  1.0000
  N   N12       1.0  0.54323  0.3998799999999999  0.45994  1.0000
  C   C27       1.0  0.08505999999999997  0.3138799999999999  0.43443  1.0000
  C   C28       1.0  0.09872000000000002  0.28814  0.37732  1.0000
  C   C29       1.0  0.12898  0.24216999999999994  0.34419  1.0000
  C   C30       1.0  0.12911  0.22704999999999997  0.29008  1.0000
  C   C31       1.0  0.59512  0.2619199999999999  0.29343  1.0000
  N   N13       1.0  0.07884  0.3009799999999999  0.34665  1.0000
  C   C32       1.0  0.5654199999999998  0.24944999999999995  0.25582  1.0000
  C   C33       1.0  0.52132  0.28012  0.27649  1.0000
  C   C34       1.0  0.47905  0.2637899999999999  0.26461  1.0000
  C   C35       1.0  0.44054  0.30264  0.30154  1.0000
  C   C36       1.0  0.46108  0.34364  0.33131  1.0000
  N   N14       1.0  0.51028  0.32964999999999994  0.31692  1.0000
  C   C37       1.0  0.4098199999999999  0.41392  0.32978  1.0000
  O   O13       1.0  0.39231  0.46646999999999994  0.35566000000000003  1.0000
  C   C38       1.0  0.4483199999999999  0.39990000000000003  0.26701  1.0000
  C   C39       1.0  0.42878999999999995  0.4066499999999999  0.22662  1.0000
  C   C40       1.0  0.97448  0.4114299999999999  0.17649  1.0000
  C   C41       1.0  0.49717  0.46532  0.19121  1.0000
  C   C42       1.0  0.4936199999999999  0.4741399999999999  0.25567  1.0000
  N   N15       1.0  0.9965499999999998  0.4238199999999999  0.26204  1.0000
  C   C43       1.0  0.03587999999999998  0.38490999999999986  0.20898  1.0000
  C   C44       1.0  0.026569999999999996  0.38031  0.15475  1.0000
  H   H13       1.0  0.37833  0.49392  0.4539000000000001  1.0000
  H   H14       1.0  0.43043000000000003  0.54416  0.5152  1.0000
  H   H15       1.0  0.62731  0.4801099999999998  0.47465  1.0000
  H   H16       1.0  0.15524999999999994  0.38696999999999987  0.46001  1.0000
  H   H17       1.0  0.14925  0.22210999999999995  0.35747  1.0000
  H   H18       1.0  0.1498  0.19230999999999995  0.25435  1.0000
  H   H19       1.0  0.47446  0.22653000000000004  0.23588  1.0000
  H   H20       1.0  0.40263  0.30236  0.30268  1.0000
  H   H21       1.0  0.37744  0.3905799999999999  0.32891  1.0000
  H   H22       1.0  0.3591299999999998  0.46958  0.35347  1.0000
  H   H23       1.0  0.45522  0.35746  0.24811  1.0000
  H   H24       1.0  0.40222  0.44206  0.24943  1.0000
  H   H25       1.0  0.40879  0.37321999999999983  0.20989000000000002  1.0000
  H   H26       1.0  0.95915  0.40151999999999993  0.14249  1.0000
  H   H27       1.0  0.9670700000000001  0.49478999999999984  0.20278  1.0000
  H   H28       1.0  0.59518  0.45512  0.09372  1.0000
  H   H29       1.0  0.45741000000000004  0.4978399999999998  0.28865  1.0000
  H   H30       1.0  0.0213  0.49883  0.26956  1.0000
  H   H31       1.0  0.03494  0.34650999999999993  0.21066  1.0000
  H   H32       1.0  0.07426  0.39313000000000003  0.20722000000000002  1.0000
  H   H33       1.0  0.02817  0.33996  0.12491  1.0000
  C   C45       1.0  0.31087  0.4877199999999999  0.26755  1.0000
  C   C46       1.0  0.26997999999999994  0.51031  0.31955  1.0000
  C   C47       1.0  0.22386  0.49059999999999987  0.33699  1.0000
  C   C48       1.0  0.19182999999999997  0.52809  0.3881  1.0000
  C   C49       1.0  0.2188  0.5694099999999997  0.40123  1.0000
  N   N16       1.0  0.26640999999999987  0.5587199999999999  0.35933  1.0000
  C   C50       1.0  0.20003999999999994  0.61657  0.45735  1.0000
  C   C51       1.0  0.2353599999999999  0.64249  0.47699  1.0000
  C   C52       1.0  0.22628  0.18312999999999993  0.53007  1.0000
  C   C53       1.0  0.27317  0.19633999999999993  0.53079  1.0000
  C   C54       1.0  0.3094099999999998  0.16374999999999995  0.47824  1.0000
  N   N17       1.0  0.28620999999999985  0.13142  0.4455  1.0000
  C   C55       1.0  0.36521  0.17004  0.4565000000000001  1.0000
  C   C56       1.0  0.3875199999999999  0.17395999999999995  0.40466  1.0000
  C   C57       1.0  0.42849  0.20057  0.38961  1.0000
  C   C58       1.0  0.4443999999999999  0.18745  0.3315  1.0000
  C   C59       1.0  0.41187999999999997  0.15455  0.31243  1.0000
  N   N18       1.0  0.37603  0.14740999999999999  0.35802  1.0000
  C   C60       1.0  0.42278  0.62185  0.24913  1.0000
  C   C61       1.0  0.39611999999999997  0.5812799999999998  0.23531999999999997  1.0000
  C   C62       1.0  0.41029999999999994  0.54268  0.18053000000000002  1.0000
  C   C63       1.0  0.38652  0.50179  0.18737  1.0000
  C   C64       1.0  0.35279999999999995  0.51825  0.2451  1.0000
  N   N19       1.0  0.35899  0.56744  0.27465  1.0000
  C   C65       1.0  0.31109999999999993  0.4339799999999999  0.22186  1.0000
  O   O14       1.0  0.28394  0.40076  0.24632999999999997  1.0000
  C   C66       1.0  0.2985  0.4339899999999999  0.1708  1.0000
  C   C67       1.0  0.2493199999999999  0.4121299999999999  0.16493  1.0000
  C   C68       1.0  0.22010000000000007  0.9515899999999999  0.15883  1.0000
  C   C69       1.0  0.20871  0.50096  0.21482  1.0000
  C   C70       1.0  0.25898  0.5239  0.21023  1.0000
  N   N20       1.0  0.30279  0.9844399999999998  0.16545  1.0000
  C   C71       1.0  0.30613999999999997  0.9749799999999997  0.10690000000000001  1.0000
  C   C72       1.0  0.25347  0.9643399999999998  0.10475  1.0000
  H   H34       1.0  0.21181  0.45476  0.3148  1.0000
  H   H35       1.0  0.15309999999999993  0.52506  0.41296  1.0000
  H   H36       1.0  0.19010000000000002  0.7019099999999998  0.5644  1.0000
  H   H37       1.0  0.27989  0.22788999999999995  0.56496  1.0000
  H   H38       1.0  0.44579  0.22657  0.41722  1.0000
  H   H39       1.0  0.47909000000000007  0.19714999999999994  0.30581  1.0000
  H   H40       1.0  0.4372  0.54244  0.14005  1.0000
  H   H41       1.0  0.3927799999999999  0.46452  0.1521  1.0000
  H   H42       1.0  0.35097  0.41707  0.20126  1.0000
  H   H43       1.0  0.29611999999999994  0.3650299999999999  0.21654000000000004  1.0000
  H   H44       1.0  0.32921  0.4055799999999999  0.13185  1.0000
  H   H45       1.0  0.22484  0.4040599999999999  0.20284  1.0000
  H   H46       1.0  0.25849  0.37525999999999987  0.1259  1.0000
  H   H47       1.0  0.18484999999999993  0.9361999999999999  0.1553  1.0000
  H   H48       1.0  0.17984999999999998  0.02944000000000001  0.22201  1.0000
  H   H49       1.0  0.19297999999999998  0.49193999999999993  0.25363  1.0000
  H   H50       1.0  0.26026  0.5427799999999999  0.25288  1.0000
  H   H51       1.0  0.26088  0.05788  0.20021  1.0000
  H   H52       1.0  0.3341499999999999  0.9413499999999998  0.07305  1.0000
  H   H53       1.0  0.3226499999999999  0.0068  0.09508  1.0000
  H   H54       1.0  0.25772  0.9306499999999999  0.06402  1.0000
  C   C73       1.0  0.08048  0.25148  0.029009999999999998  1.0000
  Mn  Mn4       1.0  0.03786999999999993  0.14684000000000003  0.9938000000000001  1.0000
  O   O15       1.0  0.06002000000000002  0.18934  0.66497  1.0000
  O   O16       1.0  0.12501  0.13790999999999998  0.04818999999999999  1.0000
  O   O17       1.0  0.52853  0.16868  0.07532  1.0000
  Mn  Mn5       1.0  0.057760000000000006  0.12671999999999997  0.59941  1.0000
  O   O18       1.0  0.48039999999999994  0.23480999999999994  0.13819  1.0000
  Mn  Mn6       1.0  0.08022999999999997  0.08506000000000001  0.68891  1.0000
  O   O19       1.0  0.09186999999999994  0.1576  0.7143600000000001  1.0000
  O   O20       1.0  0.50939  0.10760999999999998  0.72372  1.0000
  O   O21       1.0  0.4890399999999999  0.11942999999999994  0.65437  1.0000
  C   C74       1.0  0.14279999999999995  0.12910999999999997  0.9927000000000001  1.0000
  H   H55       1.0  0.33935000000000004  0.66267  0.06515  1.0000
  O   O22       1.0  0.05745  0.56044  0.03781  1.0000
  O   O23       1.0  0.02219999999999998  0.5760799999999998  0.98311  1.0000
  H   H56       1.0  0.41630999999999996  0.64992  0.08813  1.0000
  O   O24       1.0  0.09008000000000002  0.58151  0.61449  1.0000
  H   H57       1.0  0.47315999999999986  0.16358  0.9314  1.0000
  O   O25       1.0  0.15444  0.53715  0.54345  1.0000
  H   H58       1.0  0.53823  0.22297  0.93052  1.0000
  H   H59       1.0  0.11532  0.3220399999999999  0.0262  1.0000
  H   H60       1.0  0.09128999999999997  0.24465  0.05951000000000001  1.0000
  C   C75       1.0  0.07433999999999999  0.196  0.70802  1.0000
  C   C76       1.0  0.23863000000000004  0.0586  0.62237  1.0000
  C   C77       1.0  0.19415  0.09050999999999997  0.65326  1.0000
  C   C78       1.0  0.17792000000000002  0.013059999999999987  0.62299  1.0000
  H   H61       1.0  0.27547  0.07188999999999998  0.61607  1.0000
  C   C79       1.0  0.08080999999999997  0.4602799999999999  0.66855  1.0000
  H   H62       1.0  0.15932999999999997  0.47991  0.61123  1.0000
  C   C80       1.0  0.5327599999999998  0.49492999999999987  0.61965  1.0000
  H   H63       1.0  0.19071000000000002  0.13177  0.66981  1.0000
  C   C81       1.0  0.5343000000000001  0.4282  0.59166  1.0000
  H   H64       1.0  0.10077999999999997  0.4610499999999999  0.69502  1.0000
  H   H65       1.0  0.5148299999999999  0.40484  0.56527  1.0000
  H   H66       1.0  0.5187299999999998  0.52061  0.6075  1.0000
  C   C82       1.0  0.47642  0.11818999999999996  0.7065099999999999  1.0000
  C   C83       1.0  0.03787999999999996  0.54418  0.9989200000000001  1.0000
  N   N21       1.0  0.39482  0.17269000000000004  0.9908900000000002  1.0000
  N   N22       1.0  0.46192  0.16488  0.01292  1.0000
  N   N23       1.0  0.055189999999999996  0.21965999999999997  0.9988800000000001  1.0000
  N   N24       1.0  0.0760999999999999  0.28503999999999996  0.9702400000000001  1.0000
  N   N25       1.0  0.4867000000000001  0.18948000000000004  0.61038  1.0000
  C   C84       1.0  0.37797999999999987  0.6669599999999998  0.04131  1.0000
  C   C85       1.0  0.4187  0.66114  0.054  1.0000
  C   C86       1.0  0.4462099999999999  0.16912999999999995  0.97407  1.0000
  N   N26       1.0  0.15556999999999999  0.06142  0.65656  1.0000
  N   N27       1.0  0.56131  0.51067  0.6639  1.0000
  N   N28       1.0  0.22788  0.009140000000000021  0.60716  1.0000
  N   N29       1.0  0.56199  0.4095299999999999  0.62532  1.0000
  N   N30       1.0  0.13483999999999996  0.57637  0.58443  1.0000
  O   O26       1.0  0.11215999999999995  0.12584000000000006  0.9656700000000001  1.0000
  C   C87       1.0  0.0535  0.24088999999999994  0.96325  1.0000
  C   C88       1.0  0.09309  0.29181  0.0117  1.0000
  C   C89       1.0  0.43582  0.3982099999999999  0.86144  1.0000
  C   C90       1.0  0.4445799999999999  0.43375999999999987  0.90648  1.0000
  C   C91       1.0  0.41556  0.4804099999999998  0.94674  1.0000
  C   C92       1.0  0.44198  0.5065  0.97975  1.0000
  C   C93       1.0  0.48564  0.4747899999999999  0.95854  1.0000
  N   N31       1.0  0.48672  0.42998999999999993  0.9149599999999999  1.0000
  C   C94       1.0  0.5285299999999999  0.48807000000000006  0.9764300000000001  1.0000
  C   C95       1.0  0.5569800000000001  0.44836  0.9713799999999999  1.0000
  C   C96       1.0  0.10402  0.44937999999999995  0.97358  1.0000
  C   C97       1.0  0.11886000000000005  0.40045000000000003  0.9648000000000001  1.0000
  C   C98       1.0  0.08014000000000002  0.3711399999999999  0.9577900000000001  1.0000
  N   N32       1.0  0.5432299999999998  0.3998799999999999  0.95994  1.0000
  C   C99       1.0  0.08505999999999997  0.3138799999999999  0.93443  1.0000
  C   C100      1.0  0.09871999999999997  0.28814  0.87732  1.0000
  C   C101      1.0  0.12897999999999996  0.24216999999999994  0.84419  1.0000
  C   C102      1.0  0.12912  0.22704999999999997  0.79007  1.0000
  C   C103      1.0  0.59512  0.26192  0.79343  1.0000
  N   N33       1.0  0.07884000000000005  0.30097999999999986  0.8466399999999998  1.0000
  C   C104      1.0  0.5654199999999998  0.24944999999999998  0.75582  1.0000
  C   C105      1.0  0.5213299999999998  0.28012  0.7764900000000001  1.0000
  C   C106      1.0  0.47905  0.26379  0.76461  1.0000
  C   C107      1.0  0.44054  0.30264  0.8015399999999999  1.0000
  C   C108      1.0  0.46107999999999993  0.34364  0.8313  1.0000
  N   N34       1.0  0.51028  0.32964999999999994  0.81692  1.0000
  C   C109      1.0  0.4098200000000001  0.41391999999999995  0.8297799999999999  1.0000
  O   O27       1.0  0.39231  0.46647  0.85566  1.0000
  C   C110      1.0  0.44832  0.3999  0.76701  1.0000
  C   C111      1.0  0.42879  0.4066599999999999  0.72663  1.0000
  C   C112      1.0  0.97448  0.4114299999999999  0.67649  1.0000
  C   C113      1.0  0.49717000000000006  0.46532  0.69121  1.0000
  C   C114      1.0  0.49361999999999995  0.4741399999999999  0.75567  1.0000
  N   N35       1.0  0.9965399999999999  0.42381999999999986  0.76204  1.0000
  C   C115      1.0  0.03587  0.38490999999999986  0.70898  1.0000
  C   C116      1.0  0.02657000000000001  0.38032  0.65475  1.0000
  H   H67       1.0  0.37833  0.4939200000000001  0.9539  1.0000
  H   H68       1.0  0.43043  0.5441499999999999  0.015200000000000002  1.0000
  H   H69       1.0  0.62732  0.48009999999999986  0.9746499999999999  1.0000
  H   H70       1.0  0.15524999999999997  0.38696999999999987  0.96001  1.0000
  H   H71       1.0  0.14925999999999998  0.2221  0.85747  1.0000
  H   H72       1.0  0.1498  0.19231  0.75435  1.0000
  H   H73       1.0  0.47446000000000005  0.22652999999999995  0.73588  1.0000
  H   H74       1.0  0.40262999999999993  0.3023600000000001  0.8026800000000001  1.0000
  H   H75       1.0  0.37744  0.39058  0.82891  1.0000
  H   H76       1.0  0.35913000000000006  0.46958  0.85348  1.0000
  H   H77       1.0  0.45522  0.35746  0.74811  1.0000
  H   H78       1.0  0.40222  0.44206  0.74943  1.0000
  H   H79       1.0  0.40879  0.37321999999999983  0.7098999999999999  1.0000
  H   H80       1.0  0.95914  0.4015199999999999  0.64249  1.0000
  H   H81       1.0  0.9670700000000001  0.4947899999999999  0.70279  1.0000
  H   H82       1.0  0.59518  0.45512  0.59372  1.0000
  H   H83       1.0  0.45740000000000003  0.4978399999999999  0.7886499999999999  1.0000
  H   H84       1.0  0.021299999999999937  0.49883  0.76956  1.0000
  H   H85       1.0  0.03494000000000001  0.3465099999999999  0.7106499999999999  1.0000
  H   H86       1.0  0.07425000000000007  0.3931299999999999  0.7072199999999998  1.0000
  H   H87       1.0  0.02817  0.33996  0.62491  1.0000
  C   C117      1.0  0.31087  0.4877199999999999  0.76755  1.0000
  C   C118      1.0  0.26997999999999994  0.51031  0.8195500000000001  1.0000
  C   C119      1.0  0.22386  0.49059999999999987  0.83699  1.0000
  C   C120      1.0  0.19182999999999995  0.5280899999999998  0.8881000000000001  1.0000
  C   C121      1.0  0.21879999999999997  0.5694099999999997  0.90123  1.0000
  N   N36       1.0  0.26641  0.5587199999999999  0.85933  1.0000
  C   C122      1.0  0.20004000000000002  0.61657  0.95735  1.0000
  C   C123      1.0  0.23537000000000002  0.64249  0.97699  1.0000
  C   C124      1.0  0.22628  0.18312999999999993  0.030070000000000003  1.0000
  C   C125      1.0  0.27317  0.1963399999999999  0.03079  1.0000
  C   C126      1.0  0.3094099999999998  0.16374999999999998  0.9782400000000001  1.0000
  N   N37       1.0  0.28620999999999985  0.13141999999999998  0.9455000000000001  1.0000
  C   C127      1.0  0.36521  0.17003999999999994  0.9565  1.0000
  C   C128      1.0  0.38752  0.17395999999999995  0.90466  1.0000
  C   C129      1.0  0.42849000000000004  0.20057000000000005  0.88961  1.0000
  C   C130      1.0  0.44439999999999996  0.18745  0.8315  1.0000
  C   C131      1.0  0.41187999999999997  0.15455000000000002  0.81243  1.0000
  N   N38       1.0  0.37603000000000003  0.14740999999999999  0.85802  1.0000
  C   C132      1.0  0.42278  0.62185  0.74913  1.0000
  C   C133      1.0  0.39611999999999997  0.5812799999999998  0.73532  1.0000
  C   C134      1.0  0.41030000000000005  0.54268  0.68053  1.0000
  C   C135      1.0  0.3865199999999999  0.50179  0.68737  1.0000
  C   C136      1.0  0.3527999999999999  0.51826  0.7450900000000001  1.0000
  N   N39       1.0  0.35899  0.56744  0.77465  1.0000
  C   C137      1.0  0.3111  0.4339799999999999  0.72186  1.0000
  O   O28       1.0  0.28394  0.40076  0.74633  1.0000
  C   C138      1.0  0.29849  0.4339899999999999  0.6708  1.0000
  C   C139      1.0  0.24932  0.41214  0.66494  1.0000
  C   C140      1.0  0.22009999999999996  0.9515899999999999  0.65883  1.0000
  C   C141      1.0  0.20871000000000003  0.50096  0.71482  1.0000
  C   C142      1.0  0.25898  0.5239  0.71023  1.0000
  N   N40       1.0  0.30279  0.9844399999999998  0.66545  1.0000
  C   C143      1.0  0.3061399999999999  0.97497  0.6069  1.0000
  C   C144      1.0  0.25346  0.9643399999999998  0.60475  1.0000
  H   H88       1.0  0.21181  0.45476  0.81479  1.0000
  H   H89       1.0  0.15309999999999996  0.52506  0.91296  1.0000
  H   H90       1.0  0.1901  0.7019099999999998  0.0644  1.0000
  H   H91       1.0  0.27989000000000014  0.22788999999999993  0.06496  1.0000
  H   H92       1.0  0.44578999999999985  0.22656999999999997  0.91722  1.0000
  H   H93       1.0  0.47909000000000007  0.19714999999999988  0.80581  1.0000
  H   H94       1.0  0.4372  0.54244  0.64005  1.0000
  H   H95       1.0  0.3927800000000001  0.46452  0.6521  1.0000
  H   H96       1.0  0.35097  0.41707  0.70126  1.0000
  H   H97       1.0  0.29611999999999983  0.3650299999999999  0.71654  1.0000
  H   H98       1.0  0.32919999999999994  0.4055799999999999  0.63185  1.0000
  H   H99       1.0  0.22482999999999995  0.40406999999999993  0.7028500000000001  1.0000
  H   H100      1.0  0.25848999999999994  0.37525999999999987  0.62591  1.0000
  H   H101      1.0  0.18485  0.9361999999999999  0.65531  1.0000
  H   H102      1.0  0.17984999999999995  0.029439999999999987  0.72201  1.0000
  H   H103      1.0  0.19297999999999998  0.4919399999999999  0.75363  1.0000
  H   H104      1.0  0.26026  0.5427799999999999  0.75288  1.0000
  H   H105      1.0  0.26089000000000007  0.05787999999999999  0.7002  1.0000
  H   H106      1.0  0.3341499999999999  0.9413499999999998  0.57305  1.0000
  H   H107      1.0  0.3226499999999999  0.006790000000000015  0.59508  1.0000
  H   H108      1.0  0.25772  0.9306499999999999  0.56402  1.0000
  C   C145      1.0  0.08048000000000001  0.75148  0.52901  1.0000
  Mn  Mn7       1.0  0.03786999999999998  0.6468399999999997  0.4938  1.0000
  O   O29       1.0  0.06001999999999998  0.68934  0.16497  1.0000
  O   O30       1.0  0.12500999999999998  0.63791  0.54819  1.0000
  O   O31       1.0  0.52853  0.66868  0.57532  1.0000
  Mn  Mn8       1.0  0.057759999999999964  0.6267199999999998  0.09941000000000001  1.0000
  O   O32       1.0  0.4804  0.7348099999999997  0.63819  1.0000
  Mn  Mn9       1.0  0.08022999999999995  0.5850599999999998  0.18890999999999997  1.0000
  O   O33       1.0  0.09187000000000001  0.6576  0.21435999999999997  1.0000
  O   O34       1.0  0.50939  0.60761  0.22372  1.0000
  O   O35       1.0  0.48904  0.6194299999999999  0.15437  1.0000
  C   C146      1.0  0.14280000000000004  0.62911  0.4927  1.0000
  H   H109      1.0  0.3393499999999999  0.16267  0.56515  1.0000
  O   O36       1.0  0.057450000000000015  0.06044000000000001  0.53781  1.0000
  O   O37       1.0  0.022199999999999984  0.07607999999999997  0.4831  1.0000
  H   H110      1.0  0.41630999999999996  0.14992  0.58813  1.0000
  O   O38       1.0  0.09008999999999999  0.08151  0.11449  1.0000
  H   H111      1.0  0.47315999999999986  0.66358  0.43139999999999995  1.0000
  O   O39       1.0  0.15444999999999995  0.03715  0.04345  1.0000
  H   H112      1.0  0.53823  0.72297  0.43052  1.0000
  H   H113      1.0  0.11532  0.82205  0.5262  1.0000
  H   H114      1.0  0.09128999999999997  0.74466  0.55951  1.0000
  C   C147      1.0  0.07434  0.696  0.20802000000000004  1.0000
  C   C148      1.0  0.23864  0.5586  0.12237  1.0000
  C   C149      1.0  0.19414999999999996  0.59051  0.15326  1.0000
  C   C150      1.0  0.17791999999999994  0.51306  0.12299  1.0000
  H   H115      1.0  0.27547  0.5718899999999998  0.11607000000000002  1.0000
  C   C151      1.0  0.08081  0.9602799999999998  0.16855  1.0000
  H   H116      1.0  0.15933000000000003  0.9799099999999998  0.11123  1.0000
  C   C152      1.0  0.53276  0.9949299999999998  0.11964999999999999  1.0000
  H   H117      1.0  0.19071  0.63178  0.16981  1.0000
  C   C153      1.0  0.53431  0.9282  0.09166  1.0000
  H   H118      1.0  0.10078  0.96105  0.19502  1.0000
  H   H119      1.0  0.51484  0.90484  0.06527  1.0000
  H   H120      1.0  0.51873  0.020610000000000003  0.10749  1.0000
  C   C154      1.0  0.47642  0.61819  0.20651  1.0000
  C   C155      1.0  0.037869999999999994  0.04418  0.49892  1.0000
  N   N41       1.0  0.39482  0.6726999999999997  0.49089000000000005  1.0000
  N   N42       1.0  0.46192  0.66488  0.51292  1.0000
  N   N43       1.0  0.05519  0.71966  0.49888  1.0000
  N   N44       1.0  0.0761  0.7850399999999997  0.47024  1.0000
  N   N45       1.0  0.4866999999999999  0.6894799999999999  0.11037  1.0000
  C   C156      1.0  0.3779799999999999  0.16696  0.54131  1.0000
  C   C157      1.0  0.4187  0.16114  0.554  1.0000
  C   C158      1.0  0.4462099999999999  0.66913  0.47407  1.0000
  N   N46       1.0  0.15557000000000004  0.5614199999999999  0.15656  1.0000
  N   N47       1.0  0.56132  0.010669999999999995  0.1639  1.0000
  N   N48       1.0  0.22789  0.50915  0.10717  1.0000
  N   N49       1.0  0.56199  0.9095299999999997  0.12532  1.0000
  N   N50       1.0  0.13485  0.07636999999999997  0.08443  1.0000
  O   O40       1.0  0.11216000000000001  0.6258399999999998  0.46567  1.0000
  C   C159      1.0  0.05349999999999998  0.74089  0.46325  1.0000
  C   C160      1.0  0.09308999999999999  0.79181  0.51171  1.0000
  C   C161      1.0  0.43582  0.89821  0.36144  1.0000
  C   C162      1.0  0.4445799999999997  0.9337699999999998  0.40648  1.0000
  C   C163      1.0  0.41556  0.98041  0.44674  1.0000
  C   C164      1.0  0.44198  0.006499999999999993  0.47975  1.0000
  C   C165      1.0  0.4856399999999999  0.9747899999999996  0.45854  1.0000
  N   N51       1.0  0.48672  0.9299900000000001  0.41496  1.0000
  C   C166      1.0  0.52853  0.9880699999999998  0.47643  1.0000
  C   C167      1.0  0.55697  0.9483599999999995  0.47138  1.0000
  C   C168      1.0  0.10402  0.9493799999999998  0.47358  1.0000
  C   C169      1.0  0.11885000000000005  0.9004499999999999  0.4648  1.0000
  C   C170      1.0  0.08014  0.87114  0.45779  1.0000
  N   N52       1.0  0.54323  0.8998799999999998  0.45994  1.0000
  C   C171      1.0  0.08505999999999996  0.8138799999999996  0.43443  1.0000
  C   C172      1.0  0.09871999999999999  0.78814  0.37732  1.0000
  C   C173      1.0  0.12897999999999998  0.7421699999999998  0.34419  1.0000
  C   C174      1.0  0.12911999999999996  0.72705  0.29008  1.0000
  C   C175      1.0  0.5951199999999995  0.7619199999999998  0.29343  1.0000
  N   N53       1.0  0.07884000000000001  0.80098  0.34665  1.0000
  C   C176      1.0  0.5654199999999998  0.7494500000000001  0.25582  1.0000
  C   C177      1.0  0.5213199999999999  0.7801199999999998  0.27649  1.0000
  C   C178      1.0  0.47905  0.76379  0.26461  1.0000
  C   C179      1.0  0.44053999999999993  0.80264  0.30154  1.0000
  C   C180      1.0  0.46108  0.84364  0.33131  1.0000
  N   N54       1.0  0.51028  0.82965  0.31692  1.0000
  C   C181      1.0  0.4098199999999999  0.9139199999999998  0.32978  1.0000
  O   O41       1.0  0.39231  0.96647  0.35566000000000003  1.0000
  C   C182      1.0  0.44831999999999994  0.8999  0.26701  1.0000
  C   C183      1.0  0.42879  0.90665  0.22662  1.0000
  C   C184      1.0  0.97448  0.9114299999999997  0.17649  1.0000
  C   C185      1.0  0.49717  0.96532  0.19121  1.0000
  C   C186      1.0  0.4936199999999998  0.9741399999999998  0.25567  1.0000
  N   N55       1.0  0.9965499999999998  0.9238199999999998  0.26204  1.0000
  C   C187      1.0  0.03587999999999999  0.88491  0.20898  1.0000
  C   C188      1.0  0.026569999999999996  0.8803099999999999  0.15475  1.0000
  H   H121      1.0  0.37832999999999994  0.9939199999999998  0.4539000000000001  1.0000
  H   H122      1.0  0.43043  0.04416000000000001  0.5152  1.0000
  H   H123      1.0  0.6273099999999999  0.98011  0.47465  1.0000
  H   H124      1.0  0.15525000000000005  0.88697  0.46001  1.0000
  H   H125      1.0  0.14925999999999998  0.72211  0.35747  1.0000
  H   H126      1.0  0.1498  0.69232  0.25435  1.0000
  H   H127      1.0  0.47446  0.72653  0.23588  1.0000
  H   H128      1.0  0.40263  0.80236  0.30268  1.0000
  H   H129      1.0  0.37744  0.8905799999999998  0.32891  1.0000
  H   H130      1.0  0.35913  0.96958  0.35347  1.0000
  H   H131      1.0  0.45522  0.85746  0.24811  1.0000
  H   H132      1.0  0.40222  0.9420599999999998  0.24943  1.0000
  H   H133      1.0  0.40879  0.8732199999999998  0.20989000000000002  1.0000
  H   H134      1.0  0.95915  0.9015199999999998  0.14249  1.0000
  H   H135      1.0  0.9670700000000001  0.99479  0.20278  1.0000
  H   H136      1.0  0.59518  0.9551199999999997  0.09372  1.0000
  H   H137      1.0  0.45741000000000004  0.9978399999999997  0.28865  1.0000
  H   H138      1.0  0.021299999999999996  0.99883  0.26956  1.0000
  H   H139      1.0  0.03494  0.84651  0.21066  1.0000
  H   H140      1.0  0.07426  0.8931299999999998  0.20722000000000002  1.0000
  H   H141      1.0  0.028169999999999994  0.8399599999999998  0.12491  1.0000
  C   C189      1.0  0.31087  0.9877199999999998  0.26755  1.0000
  C   C190      1.0  0.26998  0.010310000000000001  0.31955  1.0000
  C   C191      1.0  0.22385999999999998  0.9906  0.33699  1.0000
  C   C192      1.0  0.19183  0.028090000000000004  0.3881  1.0000
  C   C193      1.0  0.21880000000000002  0.06941  0.40123  1.0000
  N   N56       1.0  0.26641  0.05871999999999999  0.35933  1.0000
  C   C194      1.0  0.2000399999999999  0.11657000000000001  0.45735  1.0000
  C   C195      1.0  0.2353599999999999  0.14249  0.47699  1.0000
  C   C196      1.0  0.22627999999999998  0.6831299999999998  0.53007  1.0000
  C   C197      1.0  0.2731699999999999  0.6963399999999997  0.53079  1.0000
  C   C198      1.0  0.30941  0.66375  0.47824  1.0000
  N   N57       1.0  0.2862099999999999  0.63142  0.4455  1.0000
  C   C199      1.0  0.3652099999999999  0.67004  0.4565000000000001  1.0000
  C   C200      1.0  0.3875199999999999  0.67396  0.40466  1.0000
  C   C201      1.0  0.42849  0.7005699999999998  0.38961  1.0000
  C   C202      1.0  0.4443999999999999  0.6874499999999999  0.3315  1.0000
  C   C203      1.0  0.4118799999999999  0.6545499999999999  0.31243  1.0000
  N   N58       1.0  0.37603  0.64741  0.35802  1.0000
  C   C204      1.0  0.42277999999999993  0.12185  0.24913  1.0000
  C   C205      1.0  0.39612  0.08127999999999999  0.23531999999999997  1.0000
  C   C206      1.0  0.4103  0.04268000000000001  0.18053000000000002  1.0000
  C   C207      1.0  0.38652  0.0017900000000000019  0.18737  1.0000
  C   C208      1.0  0.35279999999999995  0.018249999999999995  0.2451  1.0000
  N   N59       1.0  0.35899  0.06744  0.27465  1.0000
  C   C209      1.0  0.3111  0.93398  0.22186  1.0000
  O   O42       1.0  0.28394  0.90076  0.24632999999999997  1.0000
  C   C210      1.0  0.2985  0.9339899999999998  0.1708  1.0000
  C   C211      1.0  0.24932  0.91213  0.16493  1.0000
  C   C212      1.0  0.22010000000000002  0.45159  0.15883  1.0000
  C   C213      1.0  0.20871  0.0009600000000000064  0.21482  1.0000
  C   C214      1.0  0.25898  0.023900000000000008  0.21023  1.0000
  N   N60       1.0  0.30279  0.4844399999999999  0.16545  1.0000
  C   C215      1.0  0.30614  0.47498  0.10690000000000001  1.0000
  C   C216      1.0  0.25347  0.46433999999999986  0.10475  1.0000
  H   H142      1.0  0.21181000000000003  0.9547599999999998  0.3148  1.0000
  H   H143      1.0  0.15309999999999993  0.025060000000000027  0.41296  1.0000
  H   H144      1.0  0.1901  0.20190999999999995  0.5644  1.0000
  H   H145      1.0  0.27989  0.72789  0.56496  1.0000
  H   H146      1.0  0.44579  0.72657  0.41722  1.0000
  H   H147      1.0  0.4791  0.69715  0.30581  1.0000
  H   H148      1.0  0.4372  0.04244  0.14005  1.0000
  H   H149      1.0  0.3927799999999999  0.9645199999999998  0.15211  1.0000
  H   H150      1.0  0.35097  0.91707  0.20126  1.0000
  H   H151      1.0  0.29611999999999994  0.8650300000000001  0.21654000000000004  1.0000
  H   H152      1.0  0.32921000000000006  0.9055799999999998  0.13185  1.0000
  H   H153      1.0  0.22484  0.9040599999999999  0.20284  1.0000
  H   H154      1.0  0.25849  0.87526  0.1259  1.0000
  H   H155      1.0  0.18485  0.43619999999999987  0.1553  1.0000
  H   H156      1.0  0.17985  0.52944  0.22201  1.0000
  H   H157      1.0  0.19297999999999996  0.99194  0.25363  1.0000
  H   H158      1.0  0.26026  0.04278000000000001  0.25288  1.0000
  H   H159      1.0  0.26088  0.5578799999999999  0.20021  1.0000
  H   H160      1.0  0.33415  0.4413499999999999  0.07305  1.0000
  H   H161      1.0  0.3226499999999999  0.5068  0.09508  1.0000
  H   H162      1.0  0.25772  0.43065  0.06402  1.0000
  C   C217      1.0  0.08048  0.75148  0.029009999999999998  1.0000
  Mn  Mn10      1.0  0.03786999999999996  0.6468399999999999  0.9938000000000001  1.0000
  O   O43       1.0  0.06002000000000002  0.68934  0.66497  1.0000
  O   O44       1.0  0.12501  0.63791  0.04818999999999999  1.0000
  O   O45       1.0  0.52853  0.66868  0.07532  1.0000
  Mn  Mn11      1.0  0.05775999999999997  0.6267199999999998  0.59941  1.0000
  O   O46       1.0  0.4804  0.7348099999999997  0.13819  1.0000
  Mn  Mn12      1.0  0.08023000000000001  0.5850599999999998  0.68891  1.0000
  O   O47       1.0  0.09186999999999997  0.6576  0.7143600000000001  1.0000
  O   O48       1.0  0.50939  0.60761  0.72372  1.0000
  O   O49       1.0  0.48904  0.6194299999999999  0.65437  1.0000
  C   C218      1.0  0.14279999999999998  0.62911  0.9927000000000001  1.0000
  H   H163      1.0  0.3393499999999999  0.16267  0.06515  1.0000
  O   O50       1.0  0.05745  0.06043999999999999  0.03781  1.0000
  O   O51       1.0  0.022199999999999956  0.07608000000000002  0.98311  1.0000
  H   H164      1.0  0.41630999999999996  0.14992  0.08813  1.0000
  O   O52       1.0  0.09008  0.08150999999999996  0.61449  1.0000
  H   H165      1.0  0.47315999999999986  0.66358  0.9314  1.0000
  O   O53       1.0  0.15444  0.037149999999999996  0.54345  1.0000
  H   H166      1.0  0.53823  0.72297  0.93052  1.0000
  H   H167      1.0  0.11531999999999999  0.8220399999999998  0.0262  1.0000
  H   H168      1.0  0.09128999999999995  0.7446499999999997  0.05951000000000001  1.0000
  C   C219      1.0  0.07434000000000003  0.696  0.70802  1.0000
  C   C220      1.0  0.23863  0.5586  0.62237  1.0000
  C   C221      1.0  0.19414999999999996  0.59051  0.65326  1.0000
  C   C222      1.0  0.17791999999999997  0.51306  0.62299  1.0000
  H   H169      1.0  0.27547  0.5718899999999998  0.61607  1.0000
  C   C223      1.0  0.08081  0.9602799999999998  0.66855  1.0000
  H   H170      1.0  0.15933000000000003  0.9799099999999998  0.61123  1.0000
  C   C224      1.0  0.53276  0.9949299999999998  0.61965  1.0000
  H   H171      1.0  0.19071000000000002  0.63177  0.66981  1.0000
  C   C225      1.0  0.5343000000000001  0.9282  0.59166  1.0000
  H   H172      1.0  0.10077999999999995  0.96105  0.69502  1.0000
  H   H173      1.0  0.5148299999999999  0.9048399999999999  0.56527  1.0000
  H   H174      1.0  0.51873  0.02061000000000002  0.6075  1.0000
  C   C226      1.0  0.47642  0.61819  0.7065099999999999  1.0000
  C   C227      1.0  0.037869999999999966  0.044180000000000046  0.9989200000000001  1.0000
  N   N61       1.0  0.39482  0.6726900000000001  0.9908900000000002  1.0000
  N   N62       1.0  0.46192  0.66488  0.01292  1.0000
  N   N63       1.0  0.055189999999999975  0.71966  0.9988800000000001  1.0000
  N   N64       1.0  0.07609999999999993  0.7850399999999997  0.9702400000000001  1.0000
  N   N65       1.0  0.4867000000000001  0.6894799999999999  0.61038  1.0000
  C   C228      1.0  0.37797999999999987  0.16696  0.04131  1.0000
  C   C229      1.0  0.4187  0.16114  0.054  1.0000
  C   C230      1.0  0.4462099999999999  0.66913  0.97407  1.0000
  N   N66       1.0  0.15557  0.5614199999999999  0.65656  1.0000
  N   N67       1.0  0.56131  0.01066999999999998  0.6639  1.0000
  N   N68       1.0  0.22787999999999997  0.50914  0.60716  1.0000
  N   N69       1.0  0.56199  0.9095299999999997  0.62532  1.0000
  N   N70       1.0  0.13484  0.07636999999999994  0.58443  1.0000
  O   O54       1.0  0.11215999999999998  0.6258399999999998  0.9656700000000001  1.0000
  C   C231      1.0  0.05349999999999998  0.74089  0.96325  1.0000
  C   C232      1.0  0.09309  0.79181  0.0117  1.0000
  C   C233      1.0  0.43582  0.89821  0.86144  1.0000
  C   C234      1.0  0.44458  0.9337599999999999  0.90648  1.0000
  C   C235      1.0  0.41556  0.98041  0.94674  1.0000
  C   C236      1.0  0.44198  0.00649999999999993  0.97975  1.0000
  C   C237      1.0  0.48564  0.9747899999999998  0.95854  1.0000
  N   N71       1.0  0.48671999999999993  0.9299899999999995  0.9149599999999999  1.0000
  C   C238      1.0  0.5285299999999999  0.9880699999999997  0.9764300000000001  1.0000
  C   C239      1.0  0.5569800000000001  0.94836  0.9713799999999999  1.0000
  C   C240      1.0  0.1040199999999999  0.9493799999999998  0.97358  1.0000
  C   C241      1.0  0.11886000000000002  0.9004499999999999  0.9648000000000001  1.0000
  C   C242      1.0  0.08014  0.87114  0.9577900000000001  1.0000
  N   N72       1.0  0.5432299999999998  0.8998799999999998  0.95994  1.0000
  C   C243      1.0  0.08506000000000001  0.8138799999999998  0.93443  1.0000
  C   C244      1.0  0.09872000000000002  0.78814  0.87732  1.0000
  C   C245      1.0  0.12897999999999998  0.7421699999999998  0.84419  1.0000
  C   C246      1.0  0.12911999999999998  0.72705  0.79007  1.0000
  C   C247      1.0  0.59512  0.7619199999999998  0.79343  1.0000
  N   N73       1.0  0.07884000000000002  0.8009799999999999  0.8466399999999998  1.0000
  C   C248      1.0  0.5654199999999998  0.74945  0.75582  1.0000
  C   C249      1.0  0.5213299999999998  0.7801199999999999  0.7764900000000001  1.0000
  C   C250      1.0  0.4790500000000002  0.76379  0.76461  1.0000
  C   C251      1.0  0.44054000000000004  0.8026399999999999  0.8015399999999999  1.0000
  C   C252      1.0  0.46107999999999993  0.84364  0.8313  1.0000
  N   N74       1.0  0.51028  0.82965  0.81692  1.0000
  C   C253      1.0  0.40981999999999996  0.9139199999999998  0.8297799999999999  1.0000
  O   O55       1.0  0.39231  0.9664699999999999  0.85566  1.0000
  C   C254      1.0  0.44831999999999994  0.8999  0.76701  1.0000
  C   C255      1.0  0.42879000000000006  0.9066599999999998  0.72663  1.0000
  C   C256      1.0  0.9744799999999999  0.9114299999999997  0.67649  1.0000
  C   C257      1.0  0.49717  0.96532  0.69121  1.0000
  C   C258      1.0  0.49361999999999995  0.9741399999999999  0.75567  1.0000
  N   N75       1.0  0.9965399999999999  0.9238199999999998  0.76204  1.0000
  C   C259      1.0  0.035869999999999985  0.88491  0.70898  1.0000
  C   C260      1.0  0.026569999999999996  0.8803099999999999  0.65475  1.0000
  H   H175      1.0  0.37833  0.99392  0.9539  1.0000
  H   H176      1.0  0.43043  0.04414999999999999  0.015200000000000002  1.0000
  H   H177      1.0  0.62732  0.9800999999999996  0.9746499999999999  1.0000
  H   H178      1.0  0.15524999999999997  0.88697  0.96001  1.0000
  H   H179      1.0  0.14925999999999995  0.7221  0.85747  1.0000
  H   H180      1.0  0.14980000000000002  0.69231  0.75435  1.0000
  H   H181      1.0  0.47446  0.72653  0.73588  1.0000
  H   H182      1.0  0.40262999999999993  0.80236  0.8026800000000001  1.0000
  H   H183      1.0  0.37744  0.8905799999999998  0.82891  1.0000
  H   H184      1.0  0.35913  0.96958  0.85348  1.0000
  H   H185      1.0  0.45522  0.85746  0.74811  1.0000
  H   H186      1.0  0.40222  0.9420599999999998  0.74943  1.0000
  H   H187      1.0  0.40879000000000004  0.8732199999999997  0.7098999999999999  1.0000
  H   H188      1.0  0.9591399999999999  0.9015199999999998  0.64249  1.0000
  H   H189      1.0  0.9670700000000001  0.99479  0.70279  1.0000
  H   H190      1.0  0.59518  0.9551199999999997  0.59372  1.0000
  H   H191      1.0  0.45740000000000003  0.9978399999999997  0.7886499999999999  1.0000
  H   H192      1.0  0.02129999999999994  0.99883  0.76956  1.0000
  H   H193      1.0  0.03494000000000002  0.84651  0.7106499999999999  1.0000
  H   H194      1.0  0.07425000000000004  0.8931299999999998  0.7072199999999998  1.0000
  H   H195      1.0  0.028169999999999966  0.8399599999999998  0.62491  1.0000
  C   C261      1.0  0.31087  0.9877199999999998  0.76755  1.0000
  C   C262      1.0  0.26998  0.010310000000000033  0.8195500000000001  1.0000
  C   C263      1.0  0.22385999999999998  0.9906  0.83699  1.0000
  C   C264      1.0  0.19182999999999997  0.028090000000000035  0.8881000000000001  1.0000
  C   C265      1.0  0.2188  0.06940999999999996  0.90123  1.0000
  N   N76       1.0  0.26641000000000004  0.058719999999999974  0.85933  1.0000
  C   C266      1.0  0.20003999999999997  0.11656999999999994  0.95735  1.0000
  C   C267      1.0  0.23536  0.14249  0.97699  1.0000
  C   C268      1.0  0.22628999999999994  0.6831299999999998  0.030070000000000003  1.0000
  C   C269      1.0  0.27317  0.6963399999999997  0.03079  1.0000
  C   C270      1.0  0.30941  0.66375  0.9782400000000001  1.0000
  N   N77       1.0  0.2862099999999999  0.63142  0.9455000000000001  1.0000
  C   C271      1.0  0.36521000000000003  0.67004  0.9565  1.0000
  C   C272      1.0  0.38752  0.67396  0.90466  1.0000
  C   C273      1.0  0.42849000000000004  0.7005699999999998  0.88961  1.0000
  C   C274      1.0  0.44439999999999996  0.6874499999999999  0.8315  1.0000
  C   C275      1.0  0.4118799999999999  0.6545499999999999  0.81243  1.0000
  N   N78       1.0  0.37603000000000003  0.64741  0.85802  1.0000
  C   C276      1.0  0.42278000000000004  0.12185  0.74913  1.0000
  C   C277      1.0  0.39612  0.08127999999999999  0.73532  1.0000
  C   C278      1.0  0.4103  0.04268000000000001  0.68053  1.0000
  C   C279      1.0  0.38652  0.0017899999999999943  0.68737  1.0000
  C   C280      1.0  0.35279999999999995  0.018260000000000044  0.7450900000000001  1.0000
  N   N79       1.0  0.3589899999999999  0.06743999999999999  0.77465  1.0000
  C   C281      1.0  0.3111  0.93398  0.72186  1.0000
  O   O56       1.0  0.28394  0.9007599999999999  0.74633  1.0000
  C   C282      1.0  0.29849  0.9339899999999998  0.6708  1.0000
  C   C283      1.0  0.24932000000000004  0.9121399999999997  0.66494  1.0000
  C   C284      1.0  0.22009999999999996  0.45159  0.65883  1.0000
  C   C285      1.0  0.20871  0.0009599999999999908  0.71482  1.0000
  C   C286      1.0  0.25898  0.023899999999999987  0.71023  1.0000
  N   N80       1.0  0.3027900000000001  0.4844399999999999  0.66545  1.0000
  C   C287      1.0  0.30614  0.4749699999999999  0.6069  1.0000
  C   C288      1.0  0.25346000000000013  0.46433999999999986  0.60475  1.0000
  H   H196      1.0  0.21180999999999997  0.9547599999999999  0.8148  1.0000
  H   H197      1.0  0.15309999999999993  0.02505999999999998  0.91296  1.0000
  H   H198      1.0  0.1901  0.20190999999999995  0.0644  1.0000
  H   H199      1.0  0.27989  0.72789  0.06496  1.0000
  H   H200      1.0  0.44578999999999985  0.72657  0.91722  1.0000
  H   H201      1.0  0.47909  0.69715  0.80581  1.0000
  H   H202      1.0  0.43720000000000003  0.042440000000000005  0.64005  1.0000
  H   H203      1.0  0.3927800000000001  0.9645199999999998  0.6521  1.0000
  H   H204      1.0  0.35097  0.9170699999999998  0.70126  1.0000
  H   H205      1.0  0.29611999999999994  0.86503  0.71654  1.0000
  H   H206      1.0  0.32919999999999994  0.9055799999999997  0.63185  1.0000
  H   H207      1.0  0.22482999999999997  0.9040699999999998  0.7028500000000001  1.0000
  H   H208      1.0  0.25849  0.87526  0.62591  1.0000
  H   H209      1.0  0.18485000000000001  0.43619999999999987  0.65531  1.0000
  H   H210      1.0  0.17985  0.52944  0.72201  1.0000
  H   H211      1.0  0.19298000000000004  0.99194  0.75363  1.0000
  H   H212      1.0  0.26026  0.04278000000000001  0.75288  1.0000
  H   H213      1.0  0.26089  0.5578799999999999  0.7002  1.0000
  H   H214      1.0  0.33415  0.4413499999999999  0.57305  1.0000
  H   H215      1.0  0.3226499999999999  0.50679  0.59508  1.0000
  H   H216      1.0  0.2577199999999999  0.43065  0.56402  1.0000
  C   C289      1.0  0.58048  0.25148  0.52901  1.0000
  Mn  Mn13      1.0  0.53787  0.14684  0.4938  1.0000
  O   O57       1.0  0.5600199999999999  0.18934  0.16497  1.0000
  O   O58       1.0  0.6250099999999998  0.13790999999999998  0.54819  1.0000
  O   O59       1.0  0.028530000000000014  0.16868  0.57532  1.0000
  Mn  Mn14      1.0  0.55776  0.12671999999999997  0.09941000000000001  1.0000
  O   O60       1.0  0.9804000000000002  0.23480999999999994  0.63819  1.0000
  Mn  Mn15      1.0  0.58023  0.08505999999999998  0.18890999999999997  1.0000
  O   O61       1.0  0.59187  0.1576  0.21435999999999997  1.0000
  O   O62       1.0  0.009389999999999999  0.10760999999999998  0.22372  1.0000
  O   O63       1.0  0.98904  0.11943  0.15437  1.0000
  C   C290      1.0  0.6428  0.12910999999999995  0.4927  1.0000
  H   H217      1.0  0.83935  0.66267  0.56515  1.0000
  O   O64       1.0  0.5574500000000002  0.56044  0.53781  1.0000
  O   O65       1.0  0.5222000000000001  0.5760799999999998  0.4831  1.0000
  H   H218      1.0  0.91631  0.64992  0.58813  1.0000
  O   O66       1.0  0.5900899999999998  0.58151  0.11449  1.0000
  H   H219      1.0  0.97316  0.16357999999999998  0.43139999999999995  1.0000
  O   O67       1.0  0.6544499999999998  0.53715  0.04345  1.0000
  H   H220      1.0  0.03823  0.22296999999999997  0.43052  1.0000
  H   H221      1.0  0.61532  0.3220499999999999  0.5262  1.0000
  H   H222      1.0  0.59129  0.24465999999999996  0.55951  1.0000
  C   C291      1.0  0.57434  0.196  0.20802000000000004  1.0000
  C   C292      1.0  0.73864  0.05859999999999999  0.12237  1.0000
  C   C293      1.0  0.69415  0.09050999999999997  0.15326  1.0000
  C   C294      1.0  0.67792  0.013059999999999992  0.12299  1.0000
  H   H223      1.0  0.77547  0.07189  0.11607000000000002  1.0000
  C   C295      1.0  0.5808099999999998  0.4602799999999999  0.16855  1.0000
  H   H224      1.0  0.65933  0.47991  0.11123  1.0000
  C   C296      1.0  0.03276  0.49492999999999987  0.11964999999999999  1.0000
  H   H225      1.0  0.6907099999999998  0.13178  0.16981  1.0000
  C   C297      1.0  0.034309999999999986  0.4282  0.09166  1.0000
  H   H226      1.0  0.6007800000000001  0.4610499999999999  0.19502  1.0000
  H   H227      1.0  0.014840000000000004  0.40484  0.06527  1.0000
  H   H228      1.0  0.018729999999999983  0.5206099999999999  0.10749  1.0000
  C   C298      1.0  0.97642  0.11818999999999998  0.20651  1.0000
  C   C299      1.0  0.5378699999999997  0.54418  0.49892  1.0000
  N   N81       1.0  0.89482  0.17270000000000002  0.49089000000000005  1.0000
  N   N82       1.0  0.9619199999999998  0.16488  0.51292  1.0000
  N   N83       1.0  0.55519  0.21965999999999994  0.49888  1.0000
  N   N84       1.0  0.5761  0.2850399999999999  0.47024  1.0000
  N   N85       1.0  0.9867  0.18948  0.11038  1.0000
  C   C300      1.0  0.87798  0.6669599999999998  0.54131  1.0000
  C   C301      1.0  0.9187000000000001  0.66114  0.554  1.0000
  C   C302      1.0  0.94621  0.16912999999999995  0.47407  1.0000
  N   N86       1.0  0.65557  0.061419999999999995  0.15656  1.0000
  N   N87       1.0  0.061320000000000006  0.51067  0.1639  1.0000
  N   N88       1.0  0.72789  0.009140000000000006  0.10717  1.0000
  N   N89       1.0  0.06199000000000001  0.4095299999999999  0.12532  1.0000
  N   N90       1.0  0.63485  0.57637  0.08443  1.0000
  O   O68       1.0  0.6121600000000001  0.12584  0.46567  1.0000
  C   C303      1.0  0.5535  0.24088999999999997  0.46325  1.0000
  C   C304      1.0  0.59309  0.29181  0.51171  1.0000
  C   C305      1.0  0.93582  0.3982099999999999  0.36144  1.0000
  C   C306      1.0  0.94458  0.43377  0.40648  1.0000
  C   C307      1.0  0.91556  0.48041000000000006  0.44674  1.0000
  C   C308      1.0  0.94198  0.5065  0.47975  1.0000
  C   C309      1.0  0.9856399999999995  0.4747899999999999  0.45854  1.0000
  N   N91       1.0  0.9867199999999999  0.43  0.41496  1.0000
  C   C310      1.0  0.028530000000000014  0.48807000000000006  0.47643  1.0000
  C   C311      1.0  0.05698000000000001  0.44836  0.47138  1.0000
  C   C312      1.0  0.60402  0.4493799999999999  0.47358  1.0000
  C   C313      1.0  0.6188499999999999  0.40045  0.4648  1.0000
  C   C314      1.0  0.58014  0.3711399999999999  0.45779  1.0000
  N   N92       1.0  0.04323  0.3998799999999999  0.45994  1.0000
  C   C315      1.0  0.58506  0.3138799999999999  0.43443  1.0000
  C   C316      1.0  0.59872  0.28814  0.37732  1.0000
  C   C317      1.0  0.62898  0.24216999999999994  0.34419  1.0000
  C   C318      1.0  0.62911  0.22704999999999997  0.29008  1.0000
  C   C319      1.0  0.09511999999999998  0.2619199999999999  0.29343  1.0000
  N   N93       1.0  0.5788400000000001  0.3009799999999999  0.34665  1.0000
  C   C320      1.0  0.06542  0.24944999999999995  0.25582  1.0000
  C   C321      1.0  0.021319999999999992  0.28012  0.27649  1.0000
  C   C322      1.0  0.97905  0.2637899999999999  0.26461  1.0000
  C   C323      1.0  0.94054  0.30264  0.30154  1.0000
  C   C324      1.0  0.9610799999999998  0.34364  0.33131  1.0000
  N   N94       1.0  0.010279999999999985  0.32964999999999994  0.31692  1.0000
  C   C325      1.0  0.90982  0.41392  0.32978  1.0000
  O   O69       1.0  0.89231  0.46646999999999994  0.35566000000000003  1.0000
  C   C326      1.0  0.94832  0.39990000000000003  0.26701  1.0000
  C   C327      1.0  0.92879  0.4066499999999999  0.22662  1.0000
  C   C328      1.0  0.47448  0.4114299999999999  0.17649  1.0000
  C   C329      1.0  0.9971700000000001  0.46532  0.19121  1.0000
  C   C330      1.0  0.99362  0.4741399999999999  0.25567  1.0000
  N   N95       1.0  0.49655000000000005  0.4238199999999999  0.26204  1.0000
  C   C331      1.0  0.53588  0.38490999999999986  0.20898  1.0000
  C   C332      1.0  0.52657  0.38031  0.15475  1.0000
  H   H229      1.0  0.87833  0.49392  0.4539000000000001  1.0000
  H   H230      1.0  0.9304299999999998  0.54416  0.5152  1.0000
  H   H231      1.0  0.12731  0.4801099999999998  0.47465  1.0000
  H   H232      1.0  0.65525  0.38696999999999987  0.46001  1.0000
  H   H233      1.0  0.64925  0.22210999999999995  0.35747  1.0000
  H   H234      1.0  0.6498  0.19230999999999995  0.25435  1.0000
  H   H235      1.0  0.97446  0.22653000000000004  0.23588  1.0000
  H   H236      1.0  0.90263  0.30236  0.30268  1.0000
  H   H237      1.0  0.87744  0.3905799999999999  0.32891  1.0000
  H   H238      1.0  0.85913  0.46958  0.35347  1.0000
  H   H239      1.0  0.95522  0.35746  0.24811  1.0000
  H   H240      1.0  0.90222  0.44206  0.24943  1.0000
  H   H241      1.0  0.90879  0.37321999999999983  0.20989000000000002  1.0000
  H   H242      1.0  0.45914999999999995  0.40151999999999993  0.14249  1.0000
  H   H243      1.0  0.46707  0.49478999999999984  0.20278  1.0000
  H   H244      1.0  0.09517999999999997  0.45512  0.09372  1.0000
  H   H245      1.0  0.9574099999999999  0.4978399999999998  0.28865  1.0000
  H   H246      1.0  0.5213  0.49883  0.26956  1.0000
  H   H247      1.0  0.53494  0.34650999999999993  0.21066  1.0000
  H   H248      1.0  0.57426  0.39313000000000003  0.20722000000000002  1.0000
  H   H249      1.0  0.52817  0.33996  0.12491  1.0000
  C   C333      1.0  0.81087  0.4877199999999999  0.26755  1.0000
  C   C334      1.0  0.76998  0.51031  0.31955  1.0000
  C   C335      1.0  0.72386  0.49059999999999987  0.33699  1.0000
  C   C336      1.0  0.69183  0.52809  0.3881  1.0000
  C   C337      1.0  0.7188  0.5694099999999997  0.40123  1.0000
  N   N96       1.0  0.7664099999999999  0.5587199999999999  0.35933  1.0000
  C   C338      1.0  0.7000399999999998  0.61657  0.45735  1.0000
  C   C339      1.0  0.73536  0.64249  0.47699  1.0000
  C   C340      1.0  0.72628  0.18312999999999993  0.53007  1.0000
  C   C341      1.0  0.77317  0.19633999999999993  0.53079  1.0000
  C   C342      1.0  0.80941  0.16374999999999995  0.47824  1.0000
  N   N97       1.0  0.78621  0.13142  0.4455  1.0000
  C   C343      1.0  0.86521  0.17004  0.4565000000000001  1.0000
  C   C344      1.0  0.88752  0.17395999999999995  0.40466  1.0000
  C   C345      1.0  0.9284899999999998  0.20057  0.38961  1.0000
  C   C346      1.0  0.9444  0.18745  0.3315  1.0000
  C   C347      1.0  0.91188  0.15455  0.31243  1.0000
  N   N98       1.0  0.8760299999999998  0.14740999999999999  0.35802  1.0000
  C   C348      1.0  0.9227799999999999  0.62185  0.24913  1.0000
  C   C349      1.0  0.89612  0.5812799999999998  0.23531999999999997  1.0000
  C   C350      1.0  0.9102999999999999  0.54268  0.18053000000000002  1.0000
  C   C351      1.0  0.8865199999999999  0.50179  0.18737  1.0000
  C   C352      1.0  0.8528  0.51825  0.2451  1.0000
  N   N99       1.0  0.8589899999999998  0.56744  0.27465  1.0000
  C   C353      1.0  0.8111  0.4339799999999999  0.22186  1.0000
  O   O70       1.0  0.78394  0.40076  0.24632999999999997  1.0000
  C   C354      1.0  0.7985  0.4339899999999999  0.1708  1.0000
  C   C355      1.0  0.7493199999999999  0.4121299999999999  0.16493  1.0000
  C   C356      1.0  0.7201  0.9515899999999999  0.15883  1.0000
  C   C357      1.0  0.70871  0.50096  0.21482  1.0000
  C   C358      1.0  0.7589800000000001  0.5239  0.21023  1.0000
  N   N100      1.0  0.80279  0.9844399999999998  0.16545  1.0000
  C   C359      1.0  0.8061399999999999  0.9749799999999997  0.10690000000000001  1.0000
  C   C360      1.0  0.7534699999999998  0.9643399999999998  0.10475  1.0000
  H   H250      1.0  0.71181  0.45476  0.3148  1.0000
  H   H251      1.0  0.6530999999999999  0.52506  0.41296  1.0000
  H   H252      1.0  0.6901  0.7019099999999998  0.5644  1.0000
  H   H253      1.0  0.77989  0.22788999999999995  0.56496  1.0000
  H   H254      1.0  0.94579  0.22657  0.41722  1.0000
  H   H255      1.0  0.97909  0.19714999999999994  0.30581  1.0000
  H   H256      1.0  0.9372  0.54244  0.14005  1.0000
  H   H257      1.0  0.89278  0.46452  0.1521  1.0000
  H   H258      1.0  0.8509699999999998  0.41707  0.20126  1.0000
  H   H259      1.0  0.7961199999999999  0.3650299999999999  0.21654000000000004  1.0000
  H   H260      1.0  0.8292099999999998  0.4055799999999999  0.13185  1.0000
  H   H261      1.0  0.72484  0.4040599999999999  0.20284  1.0000
  H   H262      1.0  0.75849  0.37525999999999987  0.1259  1.0000
  H   H263      1.0  0.68485  0.9361999999999999  0.1553  1.0000
  H   H264      1.0  0.67985  0.02944000000000001  0.22201  1.0000
  H   H265      1.0  0.69298  0.49193999999999993  0.25363  1.0000
  H   H266      1.0  0.7602599999999998  0.5427799999999999  0.25288  1.0000
  H   H267      1.0  0.76088  0.05788  0.20021  1.0000
  H   H268      1.0  0.83415  0.9413499999999998  0.07305  1.0000
  H   H269      1.0  0.82265  0.0068  0.09508  1.0000
  H   H270      1.0  0.75772  0.9306499999999999  0.06402  1.0000
  C   C361      1.0  0.58048  0.25148  0.029009999999999998  1.0000
  Mn  Mn16      1.0  0.5378699999999997  0.14684000000000003  0.9938000000000001  1.0000
  O   O71       1.0  0.5600199999999999  0.18934  0.66497  1.0000
  O   O72       1.0  0.6250099999999998  0.13790999999999998  0.04818999999999999  1.0000
  O   O73       1.0  0.028529999999999996  0.16868  0.07532  1.0000
  Mn  Mn17      1.0  0.55776  0.12671999999999997  0.59941  1.0000
  O   O74       1.0  0.9803999999999998  0.23480999999999994  0.13819  1.0000
  Mn  Mn18      1.0  0.5802300000000001  0.08506000000000001  0.68891  1.0000
  O   O75       1.0  0.59187  0.1576  0.7143600000000001  1.0000
  O   O76       1.0  0.009389999999999999  0.10760999999999998  0.72372  1.0000
  O   O77       1.0  0.98904  0.11942999999999994  0.65437  1.0000
  C   C362      1.0  0.6428  0.12910999999999997  0.9927000000000001  1.0000
  H   H271      1.0  0.83935  0.66267  0.06515  1.0000
  O   O78       1.0  0.5574499999999998  0.56044  0.03781  1.0000
  O   O79       1.0  0.5221999999999999  0.5760799999999998  0.98311  1.0000
  H   H272      1.0  0.91631  0.64992  0.08813  1.0000
  O   O80       1.0  0.59008  0.58151  0.61449  1.0000
  H   H273      1.0  0.97316  0.16358  0.9314  1.0000
  O   O81       1.0  0.65444  0.53715  0.54345  1.0000
  H   H274      1.0  0.03823  0.22297  0.93052  1.0000
  H   H275      1.0  0.61532  0.3220399999999999  0.0262  1.0000
  H   H276      1.0  0.59129  0.24465  0.05951000000000001  1.0000
  C   C363      1.0  0.57434  0.196  0.70802  1.0000
  C   C364      1.0  0.73863  0.0586  0.62237  1.0000
  C   C365      1.0  0.69415  0.09050999999999997  0.65326  1.0000
  C   C366      1.0  0.67792  0.013059999999999987  0.62299  1.0000
  H   H277      1.0  0.77547  0.07188999999999998  0.61607  1.0000
  C   C367      1.0  0.5808099999999998  0.4602799999999999  0.66855  1.0000
  H   H278      1.0  0.6593299999999999  0.47991  0.61123  1.0000
  C   C368      1.0  0.032759999999999984  0.49492999999999987  0.61965  1.0000
  H   H279      1.0  0.6907099999999998  0.13177  0.66981  1.0000
  C   C369      1.0  0.034300000000000004  0.4282  0.59166  1.0000
  H   H280      1.0  0.6007799999999999  0.4610499999999999  0.69502  1.0000
  H   H281      1.0  0.014830000000000001  0.40484  0.56527  1.0000
  H   H282      1.0  0.018729999999999993  0.52061  0.6075  1.0000
  C   C370      1.0  0.97642  0.11818999999999996  0.7065099999999999  1.0000
  C   C371      1.0  0.5378799999999998  0.54418  0.9989200000000001  1.0000
  N   N101      1.0  0.89482  0.17269000000000004  0.9908900000000002  1.0000
  N   N102      1.0  0.9619199999999999  0.16488  0.01292  1.0000
  N   N103      1.0  0.55519  0.21965999999999997  0.9988800000000001  1.0000
  N   N104      1.0  0.5760999999999998  0.28503999999999996  0.9702400000000001  1.0000
  N   N105      1.0  0.9867  0.18948000000000004  0.61038  1.0000
  C   C372      1.0  0.87798  0.6669599999999998  0.04131  1.0000
  C   C373      1.0  0.9187  0.66114  0.054  1.0000
  C   C374      1.0  0.94621  0.16912999999999995  0.97407  1.0000
  N   N106      1.0  0.65557  0.06142  0.65656  1.0000
  N   N107      1.0  0.06131  0.51067  0.6639  1.0000
  N   N108      1.0  0.72788  0.009140000000000021  0.60716  1.0000
  N   N109      1.0  0.061989999999999996  0.4095299999999999  0.62532  1.0000
  N   N110      1.0  0.6348399999999996  0.57637  0.58443  1.0000
  O   O82       1.0  0.61216  0.12584000000000006  0.9656700000000001  1.0000
  C   C375      1.0  0.5534999999999999  0.24088999999999994  0.96325  1.0000
  C   C376      1.0  0.59309  0.29181  0.0117  1.0000
  C   C377      1.0  0.93582  0.3982099999999999  0.86144  1.0000
  C   C378      1.0  0.9445799999999999  0.43375999999999987  0.90648  1.0000
  C   C379      1.0  0.9155599999999999  0.4804099999999998  0.94674  1.0000
  C   C380      1.0  0.94198  0.5065  0.97975  1.0000
  C   C381      1.0  0.9856399999999998  0.4747899999999999  0.95854  1.0000
  N   N111      1.0  0.9867199999999999  0.42998999999999993  0.9149599999999999  1.0000
  C   C382      1.0  0.028529999999999982  0.48807000000000006  0.9764300000000001  1.0000
  C   C383      1.0  0.05698000000000001  0.44836  0.9713799999999999  1.0000
  C   C384      1.0  0.60402  0.44937999999999995  0.97358  1.0000
  C   C385      1.0  0.61886  0.40045000000000003  0.9648000000000001  1.0000
  C   C386      1.0  0.58014  0.3711399999999999  0.9577900000000001  1.0000
  N   N112      1.0  0.04322999999999994  0.3998799999999999  0.95994  1.0000
  C   C387      1.0  0.58506  0.3138799999999999  0.93443  1.0000
  C   C388      1.0  0.59872  0.28814  0.87732  1.0000
  C   C389      1.0  0.6289799999999999  0.24216999999999994  0.84419  1.0000
  C   C390      1.0  0.62912  0.22704999999999997  0.79007  1.0000
  C   C391      1.0  0.09512000000000001  0.26192  0.79343  1.0000
  N   N113      1.0  0.57884  0.30097999999999986  0.8466399999999998  1.0000
  C   C392      1.0  0.06541999999999998  0.24944999999999998  0.75582  1.0000
  C   C393      1.0  0.021330000000000002  0.28012  0.7764900000000001  1.0000
  C   C394      1.0  0.9790500000000001  0.26379  0.76461  1.0000
  C   C395      1.0  0.9405400000000002  0.30264  0.8015399999999999  1.0000
  C   C396      1.0  0.96108  0.34364  0.8313  1.0000
  N   N114      1.0  0.010280000000000001  0.32964999999999994  0.81692  1.0000
  C   C397      1.0  0.9098200000000001  0.41391999999999995  0.8297799999999999  1.0000
  O   O83       1.0  0.8923099999999996  0.46647  0.85566  1.0000
  C   C398      1.0  0.9483200000000002  0.3999  0.76701  1.0000
  C   C399      1.0  0.92879  0.4066599999999999  0.72663  1.0000
  C   C400      1.0  0.47448  0.4114299999999999  0.67649  1.0000
  C   C401      1.0  0.9971700000000001  0.46532  0.69121  1.0000
  C   C402      1.0  0.99362  0.4741399999999999  0.75567  1.0000
  N   N115      1.0  0.49654  0.42381999999999986  0.76204  1.0000
  C   C403      1.0  0.5358700000000001  0.38490999999999986  0.70898  1.0000
  C   C404      1.0  0.52657  0.38032  0.65475  1.0000
  H   H283      1.0  0.8783300000000002  0.4939200000000001  0.9539  1.0000
  H   H284      1.0  0.9304299999999998  0.5441499999999999  0.015200000000000002  1.0000
  H   H285      1.0  0.12732  0.48009999999999986  0.9746499999999999  1.0000
  H   H286      1.0  0.65525  0.38696999999999987  0.96001  1.0000
  H   H287      1.0  0.6492599999999998  0.2221  0.85747  1.0000
  H   H288      1.0  0.6498000000000002  0.19231  0.75435  1.0000
  H   H289      1.0  0.9744600000000001  0.22652999999999995  0.73588  1.0000
  H   H290      1.0  0.90263  0.3023600000000001  0.8026800000000001  1.0000
  H   H291      1.0  0.87744  0.39058  0.82891  1.0000
  H   H292      1.0  0.85913  0.46958  0.85348  1.0000
  H   H293      1.0  0.9552200000000001  0.35746  0.74811  1.0000
  H   H294      1.0  0.90222  0.44206  0.74943  1.0000
  H   H295      1.0  0.9087900000000001  0.37321999999999983  0.7098999999999999  1.0000
  H   H296      1.0  0.45914000000000005  0.4015199999999999  0.64249  1.0000
  H   H297      1.0  0.46707  0.4947899999999999  0.70279  1.0000
  H   H298      1.0  0.09517999999999997  0.45512  0.59372  1.0000
  H   H299      1.0  0.9574000000000001  0.4978399999999999  0.7886499999999999  1.0000
  H   H300      1.0  0.5213  0.49883  0.76956  1.0000
  H   H301      1.0  0.5349400000000001  0.3465099999999999  0.7106499999999999  1.0000
  H   H302      1.0  0.5742500000000001  0.3931299999999999  0.7072199999999998  1.0000
  H   H303      1.0  0.52817  0.33996  0.62491  1.0000
  C   C405      1.0  0.8108700000000001  0.4877199999999999  0.76755  1.0000
  C   C406      1.0  0.76998  0.51031  0.8195500000000001  1.0000
  C   C407      1.0  0.72386  0.49059999999999987  0.83699  1.0000
  C   C408      1.0  0.69183  0.5280899999999998  0.8881000000000001  1.0000
  C   C409      1.0  0.7188  0.5694099999999997  0.90123  1.0000
  N   N116      1.0  0.7664099999999999  0.5587199999999999  0.85933  1.0000
  C   C410      1.0  0.7000399999999998  0.61657  0.95735  1.0000
  C   C411      1.0  0.73537  0.64249  0.97699  1.0000
  C   C412      1.0  0.72628  0.18312999999999993  0.030070000000000003  1.0000
  C   C413      1.0  0.77317  0.1963399999999999  0.03079  1.0000
  C   C414      1.0  0.80941  0.16374999999999998  0.9782400000000001  1.0000
  N   N117      1.0  0.78621  0.13141999999999998  0.9455000000000001  1.0000
  C   C415      1.0  0.86521  0.17003999999999994  0.9565  1.0000
  C   C416      1.0  0.88752  0.17395999999999995  0.90466  1.0000
  C   C417      1.0  0.9284899999999999  0.20057000000000005  0.88961  1.0000
  C   C418      1.0  0.9444  0.18745  0.8315  1.0000
  C   C419      1.0  0.91188  0.15455000000000002  0.81243  1.0000
  N   N118      1.0  0.8760299999999999  0.14740999999999999  0.85802  1.0000
  C   C420      1.0  0.92278  0.62185  0.74913  1.0000
  C   C421      1.0  0.89612  0.5812799999999998  0.73532  1.0000
  C   C422      1.0  0.9103  0.54268  0.68053  1.0000
  C   C423      1.0  0.8865199999999999  0.50179  0.68737  1.0000
  C   C424      1.0  0.8528  0.51826  0.7450900000000001  1.0000
  N   N119      1.0  0.8589899999999998  0.56744  0.77465  1.0000
  C   C425      1.0  0.8111  0.4339799999999999  0.72186  1.0000
  O   O84       1.0  0.78394  0.40076  0.74633  1.0000
  C   C426      1.0  0.79849  0.4339899999999999  0.6708  1.0000
  C   C427      1.0  0.74932  0.41214  0.66494  1.0000
  C   C428      1.0  0.7201  0.9515899999999999  0.65883  1.0000
  C   C429      1.0  0.70871  0.50096  0.71482  1.0000
  C   C430      1.0  0.7589800000000001  0.5239  0.71023  1.0000
  N   N120      1.0  0.80279  0.9844399999999998  0.66545  1.0000
  C   C431      1.0  0.8061399999999997  0.97497  0.6069  1.0000
  C   C432      1.0  0.75346  0.9643399999999998  0.60475  1.0000
  H   H304      1.0  0.71181  0.45476  0.81479  1.0000
  H   H305      1.0  0.6530999999999999  0.52506  0.91296  1.0000
  H   H306      1.0  0.6901  0.7019099999999998  0.0644  1.0000
  H   H307      1.0  0.77989  0.22788999999999993  0.06496  1.0000
  H   H308      1.0  0.9457899999999996  0.22656999999999997  0.91722  1.0000
  H   H309      1.0  0.9790899999999998  0.19714999999999988  0.80581  1.0000
  H   H310      1.0  0.9372000000000001  0.54244  0.64005  1.0000
  H   H311      1.0  0.89278  0.46452  0.6521  1.0000
  H   H312      1.0  0.8509699999999998  0.41707  0.70126  1.0000
  H   H313      1.0  0.79612  0.3650299999999999  0.71654  1.0000
  H   H314      1.0  0.8292  0.4055799999999999  0.63185  1.0000
  H   H315      1.0  0.7248299999999999  0.40406999999999993  0.7028500000000001  1.0000
  H   H316      1.0  0.7584899999999999  0.37525999999999987  0.62591  1.0000
  H   H317      1.0  0.6848500000000001  0.9361999999999999  0.65531  1.0000
  H   H318      1.0  0.6798499999999995  0.029439999999999987  0.72201  1.0000
  H   H319      1.0  0.69298  0.4919399999999999  0.75363  1.0000
  H   H320      1.0  0.7602600000000002  0.5427799999999999  0.75288  1.0000
  H   H321      1.0  0.7608899999999998  0.05787999999999999  0.7002  1.0000
  H   H322      1.0  0.83415  0.9413499999999998  0.57305  1.0000
  H   H323      1.0  0.82265  0.006790000000000015  0.59508  1.0000
  H   H324      1.0  0.75772  0.9306499999999999  0.56402  1.0000
  C   C433      1.0  0.58048  0.75148  0.52901  1.0000
  Mn  Mn19      1.0  0.53787  0.6468399999999997  0.4938  1.0000
  O   O85       1.0  0.5600200000000002  0.68934  0.16497  1.0000
  O   O86       1.0  0.6250099999999997  0.63791  0.54819  1.0000
  O   O87       1.0  0.028530000000000024  0.66868  0.57532  1.0000
  Mn  Mn20      1.0  0.55776  0.6267199999999998  0.09941000000000001  1.0000
  O   O88       1.0  0.9803999999999999  0.7348099999999997  0.63819  1.0000
  Mn  Mn21      1.0  0.58023  0.5850599999999998  0.18890999999999997  1.0000
  O   O89       1.0  0.59187  0.6576  0.21435999999999997  1.0000
  O   O90       1.0  0.009389999999999989  0.60761  0.22372  1.0000
  O   O91       1.0  0.98904  0.6194299999999999  0.15437  1.0000
  C   C434      1.0  0.6428  0.62911  0.4927  1.0000
  H   H325      1.0  0.83935  0.16267  0.56515  1.0000
  O   O92       1.0  0.5574500000000002  0.06044000000000001  0.53781  1.0000
  O   O93       1.0  0.5222  0.07607999999999997  0.4831  1.0000
  H   H326      1.0  0.91631  0.14992  0.58813  1.0000
  O   O94       1.0  0.5900899999999998  0.08151  0.11449  1.0000
  H   H327      1.0  0.97316  0.66358  0.43139999999999995  1.0000
  O   O95       1.0  0.6544499999999998  0.03715  0.04345  1.0000
  H   H328      1.0  0.03823000000000001  0.72297  0.43052  1.0000
  H   H329      1.0  0.6153200000000001  0.82205  0.5262  1.0000
  H   H330      1.0  0.59129  0.74466  0.55951  1.0000
  C   C435      1.0  0.57434  0.696  0.20802000000000004  1.0000
  C   C436      1.0  0.73864  0.5586  0.12237  1.0000
  C   C437      1.0  0.69415  0.59051  0.15326  1.0000
  C   C438      1.0  0.67792  0.51306  0.12299  1.0000
  H   H331      1.0  0.77547  0.5718899999999998  0.11607000000000002  1.0000
  C   C439      1.0  0.5808100000000003  0.9602799999999998  0.16855  1.0000
  H   H332      1.0  0.65933  0.9799099999999998  0.11123  1.0000
  C   C440      1.0  0.03275999999999999  0.9949299999999998  0.11964999999999999  1.0000
  H   H333      1.0  0.6907099999999998  0.63178  0.16981  1.0000
  C   C441      1.0  0.03431  0.9282  0.09166  1.0000
  H   H334      1.0  0.60078  0.96105  0.19502  1.0000
  H   H335      1.0  0.014840000000000008  0.90484  0.06527  1.0000
  H   H336      1.0  0.01873  0.020610000000000003  0.10749  1.0000
  C   C442      1.0  0.97642  0.61819  0.20651  1.0000
  C   C443      1.0  0.5378699999999997  0.04418  0.49892  1.0000
  N   N121      1.0  0.89482  0.6726999999999997  0.49089000000000005  1.0000
  N   N122      1.0  0.9619199999999999  0.66488  0.51292  1.0000
  N   N123      1.0  0.55519  0.71966  0.49888  1.0000
  N   N124      1.0  0.5761  0.7850399999999997  0.47024  1.0000
  N   N125      1.0  0.9867  0.6894799999999999  0.11037  1.0000
  C   C444      1.0  0.87798  0.16696  0.54131  1.0000
  C   C445      1.0  0.9187  0.16114  0.554  1.0000
  C   C446      1.0  0.94621  0.66913  0.47407  1.0000
  N   N126      1.0  0.65557  0.5614199999999999  0.15656  1.0000
  N   N127      1.0  0.06132  0.010669999999999995  0.1639  1.0000
  N   N128      1.0  0.72789  0.50915  0.10717  1.0000
  N   N129      1.0  0.06198999999999999  0.9095299999999997  0.12532  1.0000
  N   N130      1.0  0.63485  0.07636999999999997  0.08443  1.0000
  O   O96       1.0  0.61216  0.6258399999999998  0.46567  1.0000
  C   C447      1.0  0.5535  0.74089  0.46325  1.0000
  C   C448      1.0  0.59309  0.79181  0.51171  1.0000
  C   C449      1.0  0.93582  0.89821  0.36144  1.0000
  C   C450      1.0  0.94458  0.9337699999999998  0.40648  1.0000
  C   C451      1.0  0.91556  0.98041  0.44674  1.0000
  C   C452      1.0  0.9419799999999999  0.006499999999999993  0.47975  1.0000
  C   C453      1.0  0.9856399999999997  0.9747899999999996  0.45854  1.0000
  N   N131      1.0  0.9867199999999999  0.9299900000000001  0.41496  1.0000
  C   C454      1.0  0.028530000000000038  0.9880699999999998  0.47643  1.0000
  C   C455      1.0  0.05696999999999993  0.9483599999999995  0.47138  1.0000
  C   C456      1.0  0.60402  0.9493799999999998  0.47358  1.0000
  C   C457      1.0  0.6188499999999999  0.9004499999999999  0.4648  1.0000
  C   C458      1.0  0.58014  0.87114  0.45779  1.0000
  N   N132      1.0  0.04323  0.8998799999999998  0.45994  1.0000
  C   C459      1.0  0.58506  0.8138799999999996  0.43443  1.0000
  C   C460      1.0  0.5987199999999998  0.78814  0.37732  1.0000
  C   C461      1.0  0.62898  0.7421699999999998  0.34419  1.0000
  C   C462      1.0  0.62912  0.72705  0.29008  1.0000
  C   C463      1.0  0.09512  0.7619199999999998  0.29343  1.0000
  N   N133      1.0  0.57884  0.80098  0.34665  1.0000
  C   C464      1.0  0.06541999999999999  0.7494500000000001  0.25582  1.0000
  C   C465      1.0  0.021319999999999954  0.7801199999999998  0.27649  1.0000
  C   C466      1.0  0.97905  0.76379  0.26461  1.0000
  C   C467      1.0  0.94054  0.80264  0.30154  1.0000
  C   C468      1.0  0.9610799999999998  0.84364  0.33131  1.0000
  N   N134      1.0  0.010279999999999997  0.82965  0.31692  1.0000
  C   C469      1.0  0.9098200000000001  0.9139199999999998  0.32978  1.0000
  O   O97       1.0  0.89231  0.96647  0.35566000000000003  1.0000
  C   C470      1.0  0.94832  0.8999  0.26701  1.0000
  C   C471      1.0  0.92879  0.90665  0.22662  1.0000
  C   C472      1.0  0.47447999999999996  0.9114299999999997  0.17649  1.0000
  C   C473      1.0  0.99717  0.96532  0.19121  1.0000
  C   C474      1.0  0.9936199999999998  0.9741399999999998  0.25567  1.0000
  N   N135      1.0  0.49655  0.9238199999999998  0.26204  1.0000
  C   C475      1.0  0.53588  0.88491  0.20898  1.0000
  C   C476      1.0  0.52657  0.8803099999999999  0.15475  1.0000
  H   H337      1.0  0.87833  0.9939199999999998  0.4539000000000001  1.0000
  H   H338      1.0  0.9304300000000001  0.04416000000000001  0.5152  1.0000
  H   H339      1.0  0.12731000000000006  0.98011  0.47465  1.0000
  H   H340      1.0  0.65525  0.88697  0.46001  1.0000
  H   H341      1.0  0.6492599999999998  0.72211  0.35747  1.0000
  H   H342      1.0  0.6498  0.69232  0.25435  1.0000
  H   H343      1.0  0.97446  0.72653  0.23588  1.0000
  H   H344      1.0  0.9026300000000002  0.80236  0.30268  1.0000
  H   H345      1.0  0.87744  0.8905799999999998  0.32891  1.0000
  H   H346      1.0  0.85913  0.96958  0.35347  1.0000
  H   H347      1.0  0.95522  0.85746  0.24811  1.0000
  H   H348      1.0  0.9022199999999996  0.9420599999999998  0.24943  1.0000
  H   H349      1.0  0.90879  0.8732199999999998  0.20989000000000002  1.0000
  H   H350      1.0  0.45914999999999995  0.9015199999999998  0.14249  1.0000
  H   H351      1.0  0.46707  0.99479  0.20278  1.0000
  H   H352      1.0  0.09517999999999996  0.9551199999999997  0.09372  1.0000
  H   H353      1.0  0.9574099999999999  0.9978399999999997  0.28865  1.0000
  H   H354      1.0  0.5212999999999998  0.99883  0.26956  1.0000
  H   H355      1.0  0.53494  0.84651  0.21066  1.0000
  H   H356      1.0  0.57426  0.8931299999999998  0.20722000000000002  1.0000
  H   H357      1.0  0.5281699999999999  0.8399599999999998  0.12491  1.0000
  C   C477      1.0  0.81087  0.9877199999999998  0.26755  1.0000
  C   C478      1.0  0.76998  0.010310000000000001  0.31955  1.0000
  C   C479      1.0  0.72386  0.9906  0.33699  1.0000
  C   C480      1.0  0.69183  0.028090000000000004  0.3881  1.0000
  C   C481      1.0  0.7188  0.06941  0.40123  1.0000
  N   N136      1.0  0.76641  0.05871999999999999  0.35933  1.0000
  C   C482      1.0  0.7000399999999998  0.11657000000000001  0.45735  1.0000
  C   C483      1.0  0.73536  0.14249  0.47699  1.0000
  C   C484      1.0  0.72628  0.6831299999999998  0.53007  1.0000
  C   C485      1.0  0.77317  0.6963399999999997  0.53079  1.0000
  C   C486      1.0  0.8094100000000001  0.66375  0.47824  1.0000
  N   N137      1.0  0.78621  0.63142  0.4455  1.0000
  C   C487      1.0  0.86521  0.67004  0.4565000000000001  1.0000
  C   C488      1.0  0.88752  0.67396  0.40466  1.0000
  C   C489      1.0  0.9284899999999998  0.7005699999999998  0.38961  1.0000
  C   C490      1.0  0.9444  0.6874499999999999  0.3315  1.0000
  C   C491      1.0  0.91188  0.6545499999999999  0.31243  1.0000
  N   N138      1.0  0.8760299999999998  0.64741  0.35802  1.0000
  C   C492      1.0  0.9227799999999999  0.12185  0.24913  1.0000
  C   C493      1.0  0.89612  0.08127999999999999  0.23531999999999997  1.0000
  C   C494      1.0  0.9102999999999999  0.04268000000000001  0.18053000000000002  1.0000
  C   C495      1.0  0.8865199999999999  0.0017900000000000019  0.18737  1.0000
  C   C496      1.0  0.8528  0.018249999999999995  0.2451  1.0000
  N   N139      1.0  0.8589899999999998  0.06744  0.27465  1.0000
  C   C497      1.0  0.8111  0.93398  0.22186  1.0000
  O   O98       1.0  0.78394  0.90076  0.24632999999999997  1.0000
  C   C498      1.0  0.7985  0.9339899999999998  0.1708  1.0000
  C   C499      1.0  0.74932  0.91213  0.16493  1.0000
  C   C500      1.0  0.7201  0.45159  0.15883  1.0000
  C   C501      1.0  0.70871  0.0009600000000000064  0.21482  1.0000
  C   C502      1.0  0.75898  0.023900000000000008  0.21023  1.0000
  N   N140      1.0  0.80279  0.4844399999999999  0.16545  1.0000
  C   C503      1.0  0.8061399999999999  0.47498  0.10690000000000001  1.0000
  C   C504      1.0  0.7534699999999998  0.46433999999999986  0.10475  1.0000
  H   H358      1.0  0.7118099999999997  0.9547599999999998  0.3148  1.0000
  H   H359      1.0  0.6531  0.025060000000000027  0.41296  1.0000
  H   H360      1.0  0.6901000000000002  0.20190999999999995  0.5644  1.0000
  H   H361      1.0  0.77989  0.72789  0.56496  1.0000
  H   H362      1.0  0.9457900000000001  0.72657  0.41722  1.0000
  H   H363      1.0  0.9791000000000001  0.69715  0.30581  1.0000
  H   H364      1.0  0.9372  0.04244  0.14005  1.0000
  H   H365      1.0  0.89278  0.9645199999999998  0.15211  1.0000
  H   H366      1.0  0.8509699999999997  0.91707  0.20126  1.0000
  H   H367      1.0  0.79612  0.8650300000000001  0.21654000000000004  1.0000
  H   H368      1.0  0.8292099999999998  0.9055799999999998  0.13185  1.0000
  H   H369      1.0  0.72484  0.9040599999999999  0.20284  1.0000
  H   H370      1.0  0.75849  0.87526  0.1259  1.0000
  H   H371      1.0  0.68485  0.43619999999999987  0.1553  1.0000
  H   H372      1.0  0.67985  0.52944  0.22201  1.0000
  H   H373      1.0  0.69298  0.99194  0.25363  1.0000
  H   H374      1.0  0.7602599999999998  0.04278000000000001  0.25288  1.0000
  H   H375      1.0  0.76088  0.5578799999999999  0.20021  1.0000
  H   H376      1.0  0.8341499999999998  0.4413499999999999  0.07305  1.0000
  H   H377      1.0  0.82265  0.5068  0.09508  1.0000
  H   H378      1.0  0.7577199999999998  0.43065  0.06402  1.0000
  C   C505      1.0  0.58048  0.75148  0.029009999999999998  1.0000
  Mn  Mn22      1.0  0.53787  0.6468399999999999  0.9938000000000001  1.0000
  O   O99       1.0  0.5600200000000002  0.68934  0.66497  1.0000
  O   O100      1.0  0.6250099999999998  0.63791  0.04818999999999999  1.0000
  O   O101      1.0  0.028529999999999982  0.66868  0.07532  1.0000
  Mn  Mn23      1.0  0.55776  0.6267199999999998  0.59941  1.0000
  O   O102      1.0  0.9803999999999998  0.7348099999999997  0.13819  1.0000
  Mn  Mn24      1.0  0.58023  0.5850599999999998  0.68891  1.0000
  O   O103      1.0  0.5918699999999996  0.6576  0.7143600000000001  1.0000
  O   O104      1.0  0.009390000000000004  0.60761  0.72372  1.0000
  O   O105      1.0  0.9890399999999999  0.6194299999999999  0.65437  1.0000
  C   C506      1.0  0.6427999999999999  0.62911  0.9927000000000001  1.0000
  H   H379      1.0  0.83935  0.16267  0.06515  1.0000
  O   O106      1.0  0.5574499999999998  0.06043999999999999  0.03781  1.0000
  O   O107      1.0  0.5222  0.07608000000000002  0.98311  1.0000
  H   H380      1.0  0.91631  0.14992  0.08813  1.0000
  O   O108      1.0  0.5900800000000002  0.08150999999999996  0.61449  1.0000
  H   H381      1.0  0.9731599999999996  0.66358  0.9314  1.0000
  O   O109      1.0  0.65444  0.037149999999999996  0.54345  1.0000
  H   H382      1.0  0.03822999999999992  0.72297  0.93052  1.0000
  H   H383      1.0  0.61532  0.8220399999999998  0.0262  1.0000
  H   H384      1.0  0.59129  0.7446499999999997  0.05951000000000001  1.0000
  C   C507      1.0  0.57434  0.696  0.70802  1.0000
  C   C508      1.0  0.73863  0.5586  0.62237  1.0000
  C   C509      1.0  0.69415  0.59051  0.65326  1.0000
  C   C510      1.0  0.67792  0.51306  0.62299  1.0000
  H   H385      1.0  0.77547  0.5718899999999998  0.61607  1.0000
  C   C511      1.0  0.5808100000000003  0.9602799999999998  0.66855  1.0000
  H   H386      1.0  0.65933  0.9799099999999998  0.61123  1.0000
  C   C512      1.0  0.032759999999999984  0.9949299999999998  0.61965  1.0000
  H   H387      1.0  0.6907099999999998  0.63177  0.66981  1.0000
  C   C513      1.0  0.03430000000000002  0.9282  0.59166  1.0000
  H   H388      1.0  0.60078  0.96105  0.69502  1.0000
  H   H389      1.0  0.014829999999999973  0.9048399999999999  0.56527  1.0000
  H   H390      1.0  0.018729999999999983  0.02061000000000002  0.6075  1.0000
  C   C514      1.0  0.97642  0.61819  0.7065099999999999  1.0000
  C   C515      1.0  0.53787  0.044180000000000046  0.9989200000000001  1.0000
  N   N141      1.0  0.8948200000000001  0.6726900000000001  0.9908900000000002  1.0000
  N   N142      1.0  0.9619199999999999  0.66488  0.01292  1.0000
  N   N143      1.0  0.55519  0.71966  0.9988800000000001  1.0000
  N   N144      1.0  0.5760999999999998  0.7850399999999997  0.9702400000000001  1.0000
  N   N145      1.0  0.9867  0.6894799999999999  0.61038  1.0000
  C   C516      1.0  0.87798  0.16696  0.04131  1.0000
  C   C517      1.0  0.9187  0.16114  0.054  1.0000
  C   C518      1.0  0.94621  0.66913  0.97407  1.0000
  N   N146      1.0  0.65557  0.5614199999999999  0.65656  1.0000
  N   N147      1.0  0.061309999999999996  0.01066999999999998  0.6639  1.0000
  N   N148      1.0  0.72788  0.50914  0.60716  1.0000
  N   N149      1.0  0.06198999999999999  0.9095299999999997  0.62532  1.0000
  N   N150      1.0  0.6348399999999997  0.07636999999999994  0.58443  1.0000
  O   O110      1.0  0.61216  0.6258399999999998  0.9656700000000001  1.0000
  C   C519      1.0  0.5535  0.74089  0.96325  1.0000
  C   C520      1.0  0.59309  0.79181  0.0117  1.0000
  C   C521      1.0  0.9358199999999999  0.89821  0.86144  1.0000
  C   C522      1.0  0.94458  0.9337599999999999  0.90648  1.0000
  C   C523      1.0  0.91556  0.98041  0.94674  1.0000
  C   C524      1.0  0.9419799999999999  0.00649999999999993  0.97975  1.0000
  C   C525      1.0  0.9856399999999998  0.9747899999999998  0.95854  1.0000
  N   N151      1.0  0.9867199999999998  0.9299899999999995  0.9149599999999999  1.0000
  C   C526      1.0  0.028529999999999937  0.9880699999999997  0.9764300000000001  1.0000
  C   C527      1.0  0.056980000000000045  0.94836  0.9713799999999999  1.0000
  C   C528      1.0  0.60402  0.9493799999999998  0.97358  1.0000
  C   C529      1.0  0.61886  0.9004499999999999  0.9648000000000001  1.0000
  C   C530      1.0  0.58014  0.87114  0.9577900000000001  1.0000
  N   N152      1.0  0.04322999999999997  0.8998799999999998  0.95994  1.0000
  C   C531      1.0  0.58506  0.8138799999999998  0.93443  1.0000
  C   C532      1.0  0.5987199999999998  0.78814  0.87732  1.0000
  C   C533      1.0  0.6289799999999999  0.7421699999999998  0.84419  1.0000
  C   C534      1.0  0.62912  0.72705  0.79007  1.0000
  C   C535      1.0  0.09512000000000004  0.7619199999999998  0.79343  1.0000
  N   N153      1.0  0.57884  0.8009799999999999  0.8466399999999998  1.0000
  C   C536      1.0  0.06542  0.74945  0.75582  1.0000
  C   C537      1.0  0.021330000000000002  0.7801199999999999  0.7764900000000001  1.0000
  C   C538      1.0  0.97905  0.76379  0.76461  1.0000
  C   C539      1.0  0.94054  0.8026399999999999  0.8015399999999999  1.0000
  C   C540      1.0  0.9610799999999999  0.84364  0.8313  1.0000
  N   N154      1.0  0.010280000000000044  0.82965  0.81692  1.0000
  C   C541      1.0  0.90982  0.9139199999999998  0.8297799999999999  1.0000
  O   O111      1.0  0.89231  0.9664699999999999  0.85566  1.0000
  C   C542      1.0  0.94832  0.8999  0.76701  1.0000
  C   C543      1.0  0.9287900000000001  0.9066599999999998  0.72663  1.0000
  C   C544      1.0  0.47447999999999996  0.9114299999999997  0.67649  1.0000
  C   C545      1.0  0.99717  0.96532  0.69121  1.0000
  C   C546      1.0  0.9936200000000001  0.9741399999999999  0.75567  1.0000
  N   N155      1.0  0.49654  0.9238199999999998  0.76204  1.0000
  C   C547      1.0  0.5358700000000001  0.88491  0.70898  1.0000
  C   C548      1.0  0.52657  0.8803099999999999  0.65475  1.0000
  H   H391      1.0  0.87833  0.99392  0.9539  1.0000
  H   H392      1.0  0.9304299999999998  0.04414999999999999  0.015200000000000002  1.0000
  H   H393      1.0  0.12732000000000002  0.9800999999999996  0.9746499999999999  1.0000
  H   H394      1.0  0.65525  0.88697  0.96001  1.0000
  H   H395      1.0  0.6492599999999998  0.7221  0.85747  1.0000
  H   H396      1.0  0.6498  0.69231  0.75435  1.0000
  H   H397      1.0  0.97446  0.72653  0.73588  1.0000
  H   H398      1.0  0.9026300000000002  0.80236  0.8026800000000001  1.0000
  H   H399      1.0  0.8774399999999999  0.8905799999999998  0.82891  1.0000
  H   H400      1.0  0.8591300000000001  0.96958  0.85348  1.0000
  H   H401      1.0  0.95522  0.85746  0.74811  1.0000
  H   H402      1.0  0.9022200000000001  0.9420599999999998  0.74943  1.0000
  H   H403      1.0  0.90879  0.8732199999999997  0.7098999999999999  1.0000
  H   H404      1.0  0.45914000000000005  0.9015199999999998  0.64249  1.0000
  H   H405      1.0  0.46707  0.99479  0.70279  1.0000
  H   H406      1.0  0.09517999999999997  0.9551199999999997  0.59372  1.0000
  H   H407      1.0  0.9574  0.9978399999999997  0.7886499999999999  1.0000
  H   H408      1.0  0.5212999999999998  0.99883  0.76956  1.0000
  H   H409      1.0  0.53494  0.84651  0.7106499999999999  1.0000
  H   H410      1.0  0.5742500000000001  0.8931299999999998  0.7072199999999998  1.0000
  H   H411      1.0  0.5281699999999999  0.8399599999999998  0.62491  1.0000
  C   C549      1.0  0.8108700000000001  0.9877199999999998  0.76755  1.0000
  C   C550      1.0  0.76998  0.010310000000000033  0.8195500000000001  1.0000
  C   C551      1.0  0.72386  0.9906  0.83699  1.0000
  C   C552      1.0  0.69183  0.028090000000000035  0.8881000000000001  1.0000
  C   C553      1.0  0.7187999999999999  0.06940999999999996  0.90123  1.0000
  N   N156      1.0  0.76641  0.058719999999999974  0.85933  1.0000
  C   C554      1.0  0.7000399999999998  0.11656999999999994  0.95735  1.0000
  C   C555      1.0  0.73536  0.14249  0.97699  1.0000
  C   C556      1.0  0.72629  0.6831299999999998  0.030070000000000003  1.0000
  C   C557      1.0  0.77317  0.6963399999999997  0.03079  1.0000
  C   C558      1.0  0.8094099999999999  0.66375  0.9782400000000001  1.0000
  N   N157      1.0  0.78621  0.63142  0.9455000000000001  1.0000
  C   C559      1.0  0.8652100000000001  0.67004  0.9565  1.0000
  C   C560      1.0  0.8875200000000001  0.67396  0.90466  1.0000
  C   C561      1.0  0.9284900000000001  0.7005699999999998  0.88961  1.0000
  C   C562      1.0  0.9444000000000001  0.6874499999999999  0.8315  1.0000
  C   C563      1.0  0.9118799999999999  0.6545499999999999  0.81243  1.0000
  N   N158      1.0  0.8760299999999999  0.64741  0.85802  1.0000
  C   C564      1.0  0.9227799999999999  0.12185  0.74913  1.0000
  C   C565      1.0  0.89612  0.08127999999999999  0.73532  1.0000
  C   C566      1.0  0.9102999999999999  0.04268000000000001  0.68053  1.0000
  C   C567      1.0  0.8865199999999999  0.0017899999999999943  0.68737  1.0000
  C   C568      1.0  0.8527999999999998  0.018260000000000044  0.7450900000000001  1.0000
  N   N159      1.0  0.8589899999999997  0.06743999999999999  0.77465  1.0000
  C   C569      1.0  0.8111  0.93398  0.72186  1.0000
  O   O112      1.0  0.78394  0.9007599999999999  0.74633  1.0000
  C   C570      1.0  0.79849  0.9339899999999998  0.6708  1.0000
  C   C571      1.0  0.74932  0.9121399999999997  0.66494  1.0000
  C   C572      1.0  0.7201  0.45159  0.65883  1.0000
  C   C573      1.0  0.70871  0.0009599999999999908  0.71482  1.0000
  C   C574      1.0  0.75898  0.023899999999999987  0.71023  1.0000
  N   N160      1.0  0.80279  0.4844399999999999  0.66545  1.0000
  C   C575      1.0  0.8061399999999999  0.4749699999999999  0.6069  1.0000
  C   C576      1.0  0.7534600000000001  0.46433999999999986  0.60475  1.0000
  H   H412      1.0  0.7118099999999997  0.9547599999999999  0.8148  1.0000
  H   H413      1.0  0.6531  0.02505999999999998  0.91296  1.0000
  H   H414      1.0  0.6901000000000002  0.20190999999999995  0.0644  1.0000
  H   H415      1.0  0.77989  0.72789  0.06496  1.0000
  H   H416      1.0  0.94579  0.72657  0.91722  1.0000
  H   H417      1.0  0.9790899999999997  0.69715  0.80581  1.0000
  H   H418      1.0  0.9372  0.042440000000000005  0.64005  1.0000
  H   H419      1.0  0.89278  0.9645199999999998  0.6521  1.0000
  H   H420      1.0  0.8509699999999998  0.9170699999999998  0.70126  1.0000
  H   H421      1.0  0.79612  0.86503  0.71654  1.0000
  H   H422      1.0  0.8292  0.9055799999999997  0.63185  1.0000
  H   H423      1.0  0.72483  0.9040699999999998  0.7028500000000001  1.0000
  H   H424      1.0  0.75849  0.87526  0.62591  1.0000
  H   H425      1.0  0.68485  0.43619999999999987  0.65531  1.0000
  H   H426      1.0  0.67985  0.52944  0.72201  1.0000
  H   H427      1.0  0.69298  0.99194  0.75363  1.0000
  H   H428      1.0  0.7602600000000002  0.04278000000000001  0.75288  1.0000
  H   H429      1.0  0.7608899999999998  0.5578799999999999  0.7002  1.0000
  H   H430      1.0  0.8341499999999998  0.4413499999999999  0.57305  1.0000
  H   H431      1.0  0.82265  0.50679  0.59508  1.0000
  H   H432      1.0  0.7577199999999998  0.43065  0.56402  1.0000
