data_image0
_chemical_formula_structural       Yb4C4O12CO4COC3GeSGeCSGeCS2GeCS2C5H18CGeSGeCSGeCS2GeCS2C5H18Yb4C4O12CO4COC3GeSGeCSGeCS2GeCS2C5H18CGeSGeCSGeCS2GeCS2C5H18Yb4C4O12CO4COC3GeSGeCSGeCS2GeCS2C5H18CGeSGeCSGeCS2GeCS2C5H18Yb4C4O12CO4COC3GeSGeCSGeCS2GeCS2C5H18CGeSGeCSGeCS2GeCS2C5H18Yb4C4O12CO4COC3GeSGeCSGeCS2GeCS2C5H18CGeSGeCSGeCS2GeCS2C5H18Yb4C4O12CO4COC3GeSGeCSGeCS2GeCS2C5H18CGeSGeCSGeCS2GeCS2C5H18Yb4C4O12CO4COC3GeSGeCSGeCS2GeCS2C5H18CGeSGeCSGeCS2GeCS2C5H18Yb4C4O12CO4COC3GeSGeCSGeCS2GeCS2C5H18CGeSGeCSGeCS2GeCS2C5H18Yb4C4O12CO4COC3GeSGeCSGeCS2GeCS2C5H18CGeSGeCSGeCS2GeCS2C5H18Yb4C4O12CO4COC3GeSGeCSGeCS2GeCS2C5H18CGeSGeCSGeCS2GeCS2C5H18Yb4C4O12CO4COC3GeSGeCSGeCS2GeCS2C5H18CGeSGeCSGeCS2GeCS2C5H18Yb4C4O12CO4COC3GeSGeCSGeCS2GeCS2C5H18CGeSGeCSGeCS2GeCS2C5H18
_chemical_formula_sum              "Yb48 C312 O204 Ge96 S144 H432"
_cell_length_a       26.8004
_cell_length_b       28.4235
_cell_length_c       35.077
_cell_angle_alpha    80.137
_cell_angle_beta     100.996
_cell_angle_gamma    97.052

_space_group_name_H-M_alt    "P 1"
_space_group_IT_number       1

loop_
  _space_group_symop_operation_xyz
  'x, y, z'

loop_
  _atom_site_type_symbol
  _atom_site_label
  _atom_site_symmetry_multiplicity
  _atom_site_fract_x
  _atom_site_fract_y
  _atom_site_fract_z
  _atom_site_occupancy
  Yb  Yb1       1.0  0.49705  0.07585  0.35722  1.0000
  Yb  Yb2       1.0  0.08963  0.4716799999999999  0.06881  1.0000
  Yb  Yb3       1.0  0.08004  0.54229  0.10871  1.0000
  Yb  Yb4       1.0  0.56637  0.051559999999999995  0.32053  1.0000
  C   C1        1.0  0.46969  0.08289  0.10077  1.0000
  C   C2        1.0  0.9919199999999998  0.14934  0.2974299999999999  1.0000
  C   C3        1.0  0.17073  0.46016  0.12408  1.0000
  C   C4        1.0  0.59511  0.44178  0.32763  1.0000
  O   O1        1.0  0.54811  0.13708999999999993  0.04612  1.0000
  O   O2        1.0  0.027550000000000005  0.42985  0.09339  1.0000
  O   O3        1.0  0.44504  0.02044  0.3327  1.0000
  O   O4        1.0  0.15937  0.51198  0.38066  1.0000
  O   O5        1.0  0.51919  0.08642  0.11391  1.0000
  O   O6        1.0  0.03351  0.12697  0.29722  1.0000
  O   O7        1.0  0.15517  0.50336  0.12453999999999998  1.0000
  O   O8        1.0  0.60738  0.4879599999999999  0.31683  1.0000
  O   O9        1.0  0.06899999999999996  0.42903999999999987  0.35571  1.0000
  O   O10       1.0  0.45881  0.12981  0.32015  1.0000
  O   O11       1.0  0.14176999999999998  0.42864999999999986  0.10421  1.0000
  O   O12       1.0  0.4509  0.06611  0.06843  1.0000
  C   C5        1.0  0.09715  0.1416  0.06106  1.0000
  O   O13       1.0  0.13471  0.08524999999999995  0.34956  1.0000
  O   O14       1.0  0.036249999999999984  0.4796999999999999  0.13908  1.0000
  O   O15       1.0  0.4980999999999999  0.013290000000000024  0.2907099999999999  1.0000
  O   O16       1.0  0.12082000000000001  0.10601  0.08292  1.0000
  C   C6        1.0  0.01586999999999999  0.4399799999999999  0.12531999999999993  1.0000
  O   O17       1.0  0.04526  0.025519999999999998  0.047629999999999985  1.0000
  C   C7        1.0  0.4550099999999999  0.001259999999999997  0.30405  1.0000
  C   C8        1.0  0.17000999999999994  0.5581499999999998  0.36882  1.0000
  C   C9        1.0  0.19641999999999998  0.2879099999999999  0.19971999999999995  1.0000
  Ge  Ge1       1.0  0.13497999999999993  0.30110999999999977  0.21682  1.0000
  S   S1        1.0  0.5884  0.34362999999999994  0.16835  1.0000
  Ge  Ge2       1.0  0.5232799999999999  0.3630099999999999  0.18929999999999994  1.0000
  C   C10       1.0  0.48209999999999986  0.4039799999999999  0.14765  1.0000
  S   S2        1.0  0.47979  0.29655  0.21076  1.0000
  Ge  Ge3       1.0  0.52498  0.25131  0.2592099999999999  1.0000
  C   C11       1.0  0.47693  0.19264999999999996  0.26731  1.0000
  S   S3        1.0  0.59201  0.23452999999999993  0.23892999999999998  1.0000
  S   S4        1.0  0.5505  0.2956  0.30673  1.0000
  Ge  Ge4       1.0  0.0953  0.36234  0.28486  1.0000
  C   C12       1.0  0.12827  0.4056  0.32189  1.0000
  S   S5        1.0  0.16063999999999998  0.34276  0.26442999999999994  1.0000
  S   S6        1.0  0.54883  0.4049499999999999  0.23687  1.0000
  C   C13       1.0  0.1851  0.26899  0.16034999999999994  1.0000
  C   C14       1.0  0.15109  0.22129999999999997  0.16212  1.0000
  C   C15       1.0  0.15292999999999998  0.19407999999999995  0.12848  1.0000
  C   C16       1.0  0.12475999999999997  0.21797999999999995  0.08882  1.0000
  C   C17       1.0  0.1261  0.19001999999999994  0.05545  1.0000
  H   H1        1.0  0.22162  0.32190999999999986  0.1967  1.0000
  H   H2        1.0  0.21695  0.26192  0.22286  1.0000
  H   H3        1.0  0.4574399999999999  0.38113999999999987  0.12748  1.0000
  H   H4        1.0  0.4572499999999999  0.4227199999999999  0.16089  1.0000
  H   H5        1.0  0.4414799999999999  0.20449  0.27314  1.0000
  H   H6        1.0  0.46689  0.17996000000000004  0.23834  1.0000
  H   H7        1.0  0.14212999999999995  0.3837399999999999  0.35053  1.0000
  H   H8        1.0  0.1623999999999999  0.42494  0.31066  1.0000
  H   H9        1.0  0.16666  0.29628999999999994  0.13711  1.0000
  H   H10       1.0  0.22229  0.2639  0.15272  1.0000
  H   H11       1.0  0.66383  0.19786000000000004  0.19018  1.0000
  H   H12       1.0  0.11088  0.22785  0.16138  1.0000
  H   H13       1.0  0.19316999999999998  0.19059999999999994  0.12641  1.0000
  H   H14       1.0  0.13437  0.15744  0.13614  1.0000
  H   H15       1.0  0.14325  0.25472  0.0813  1.0000
  H   H16       1.0  0.08439999999999996  0.22115999999999994  0.09082999999999997  1.0000
  H   H17       1.0  0.10895  0.21062  0.02711  1.0000
  H   H18       1.0  0.16628  0.18606999999999996  0.053519999999999984  1.0000
  C   C18       1.0  0.28166  0.16380999999999998  0.21325  1.0000
  Ge  Ge5       1.0  0.30614  0.10684999999999995  0.20172  1.0000
  S   S7        1.0  0.34855  0.06778999999999998  0.25471  1.0000
  Ge  Ge6       1.0  0.37921  0.5081199999999998  0.23812  1.0000
  C   C19       1.0  0.41469  0.46952999999999995  0.2835299999999999  1.0000
  S   S8        1.0  0.31747  0.4609  0.21187  1.0000
  Ge  Ge7       1.0  0.27453  0.4991699999999999  0.15923  1.0000
  C   C20       1.0  0.22290999999999994  0.44706999999999997  0.14395  1.0000
  S   S9        1.0  0.24333999999999997  0.5595699999999998  0.17485  1.0000
  S   S10       1.0  0.32832  0.52639  0.11825999999999999  1.0000
  Ge  Ge8       1.0  0.38951  0.07539000000000001  0.14567  1.0000
  C   C21       1.0  0.43707  0.11272999999999997  0.11438  1.0000
  S   S11       1.0  0.3564  0.13431  0.16028999999999993  1.0000
  S   S12       1.0  0.43210999999999994  0.53571  0.19777  1.0000
  C   C22       1.0  0.26569999999999994  0.15536  0.25345  1.0000
  C   C23       1.0  0.22112  0.11623999999999995  0.25576  1.0000
  C   C24       1.0  0.20315  0.10906  0.29506  1.0000
  C   C25       1.0  0.23879  0.08004  0.32826  1.0000
  C   C26       1.0  0.22409  0.07803999999999998  0.36874  1.0000
  H   H19       1.0  0.31304999999999994  0.19317999999999994  0.21274  1.0000
  H   H20       1.0  0.24945999999999993  0.17499  0.18987  1.0000
  H   H21       1.0  0.3873199999999999  0.4527899999999999  0.30315  1.0000
  H   H22       1.0  0.43191000000000007  0.44089  0.27396  1.0000
  H   H23       1.0  0.23887999999999995  0.42801  0.12457  1.0000
  H   H24       1.0  0.21819999999999995  0.42126999999999987  0.17088999999999993  1.0000
  H   H25       1.0  0.41517  0.13445  0.08868999999999999  1.0000
  H   H26       1.0  0.4614599999999999  0.13804  0.13257  1.0000
  H   H27       1.0  0.29918  0.14593  0.27631  1.0000
  H   H28       1.0  0.25394  0.18950999999999996  0.25871  1.0000
  H   H29       1.0  0.18864  0.6267  0.23216  1.0000
  H   H30       1.0  0.23139  0.08124999999999998  0.25121  1.0000
  H   H31       1.0  0.19836999999999994  0.14427  0.30309  1.0000
  H   H32       1.0  0.16511  0.08853  0.29015  1.0000
  H   H33       1.0  0.2788  0.09633000000000001  0.32993  1.0000
  H   H34       1.0  0.23777999999999988  0.042889999999999984  0.32184  1.0000
  H   H35       1.0  0.22955  0.11458999999999997  0.37706  1.0000
  H   H36       1.0  0.24933999999999998  0.05510999999999999  0.39091  1.0000
  Yb  Yb5       1.0  0.49704999999999994  0.07584999999999999  0.69055  1.0000
  Yb  Yb6       1.0  0.08962999999999999  0.4716799999999999  0.40215  1.0000
  Yb  Yb7       1.0  0.08003999999999997  0.5422899999999998  0.44204  1.0000
  Yb  Yb8       1.0  0.56637  0.05156  0.65386  1.0000
  C   C27       1.0  0.46969  0.08288999999999995  0.4341  1.0000
  C   C28       1.0  0.9919199999999998  0.14934000000000006  0.6307599999999998  1.0000
  C   C29       1.0  0.17073  0.46016  0.45741  1.0000
  C   C30       1.0  0.5951099999999999  0.44178  0.6609699999999997  1.0000
  O   O18       1.0  0.54811  0.13709  0.37946  1.0000
  O   O19       1.0  0.027549999999999995  0.42985  0.42672  1.0000
  O   O20       1.0  0.44504  0.020440000000000007  0.66603  1.0000
  O   O21       1.0  0.15936999999999996  0.51198  0.7139899999999998  1.0000
  O   O22       1.0  0.51919  0.08641999999999998  0.44724  1.0000
  O   O23       1.0  0.03351  0.12696999999999997  0.63055  1.0000
  O   O24       1.0  0.15517  0.50336  0.45787  1.0000
  O   O25       1.0  0.60738  0.48795999999999984  0.65017  1.0000
  O   O26       1.0  0.06899999999999999  0.4290399999999998  0.68904  1.0000
  O   O27       1.0  0.45880999999999994  0.12980999999999995  0.65348  1.0000
  O   O28       1.0  0.14176999999999995  0.4286499999999999  0.4375399999999999  1.0000
  O   O29       1.0  0.4508999999999999  0.06611000000000003  0.4017599999999999  1.0000
  C   C31       1.0  0.09714999999999997  0.14159999999999995  0.39439  1.0000
  O   O30       1.0  0.13471  0.08525  0.68289  1.0000
  O   O31       1.0  0.036249999999999984  0.47969999999999996  0.47241  1.0000
  O   O32       1.0  0.49809999999999977  0.013289999999999993  0.62405  1.0000
  O   O33       1.0  0.12082  0.10601000000000001  0.41624999999999995  1.0000
  C   C32       1.0  0.01586999999999999  0.4399799999999999  0.45865  1.0000
  O   O34       1.0  0.045260000000000015  0.02552  0.38096  1.0000
  C   C33       1.0  0.4550099999999999  0.001259999999999997  0.63738  1.0000
  C   C34       1.0  0.17000999999999997  0.55815  0.70215  1.0000
  C   C35       1.0  0.19641999999999998  0.2879099999999999  0.53305  1.0000
  Ge  Ge9       1.0  0.13498  0.30111  0.55015  1.0000
  S   S13       1.0  0.5884  0.34362999999999994  0.50168  1.0000
  Ge  Ge10      1.0  0.5232799999999997  0.3630099999999999  0.52263  1.0000
  C   C36       1.0  0.48209999999999986  0.4039799999999999  0.48099  1.0000
  S   S14       1.0  0.47979  0.29655  0.5441  1.0000
  Ge  Ge11      1.0  0.5249799999999999  0.2513099999999999  0.5925399999999997  1.0000
  C   C37       1.0  0.47693  0.19264999999999996  0.6006399999999997  1.0000
  S   S15       1.0  0.5920099999999999  0.23452999999999993  0.5722699999999997  1.0000
  S   S16       1.0  0.5505  0.2956  0.64006  1.0000
  Ge  Ge12      1.0  0.09529999999999995  0.36234  0.61819  1.0000
  C   C38       1.0  0.12827  0.4056  0.65522  1.0000
  S   S17       1.0  0.16064  0.34276000000000006  0.59776  1.0000
  S   S18       1.0  0.54883  0.4049499999999999  0.5702  1.0000
  C   C39       1.0  0.1850999999999999  0.2689899999999999  0.49368999999999996  1.0000
  C   C40       1.0  0.15109  0.2213  0.49545  1.0000
  C   C41       1.0  0.15292999999999998  0.19407999999999992  0.46181  1.0000
  C   C42       1.0  0.12475999999999997  0.21797999999999995  0.4221499999999999  1.0000
  C   C43       1.0  0.1261  0.19002000000000002  0.3887899999999999  1.0000
  H   H37       1.0  0.22162  0.32190999999999986  0.53004  1.0000
  H   H38       1.0  0.21695  0.26192  0.55619  1.0000
  H   H39       1.0  0.45743999999999996  0.3811399999999999  0.4608099999999999  1.0000
  H   H40       1.0  0.4572499999999999  0.4227199999999999  0.49422  1.0000
  H   H41       1.0  0.4414799999999999  0.20449  0.60648  1.0000
  H   H42       1.0  0.46689  0.17996  0.57167  1.0000
  H   H43       1.0  0.14212999999999995  0.3837399999999999  0.68386  1.0000
  H   H44       1.0  0.1623999999999999  0.42494  0.64399  1.0000
  H   H45       1.0  0.16666  0.29628999999999994  0.47045  1.0000
  H   H46       1.0  0.22229  0.2639  0.48606  1.0000
  H   H47       1.0  0.66383  0.19786000000000004  0.52351  1.0000
  H   H48       1.0  0.11087999999999994  0.22785  0.49471999999999994  1.0000
  H   H49       1.0  0.19316999999999998  0.1905999999999999  0.45974  1.0000
  H   H50       1.0  0.13437  0.15744  0.46947  1.0000
  H   H51       1.0  0.14324999999999996  0.25472  0.41462999999999994  1.0000
  H   H52       1.0  0.08439999999999998  0.22116  0.42416  1.0000
  H   H53       1.0  0.10895  0.21062  0.36045  1.0000
  H   H54       1.0  0.16628  0.18606999999999999  0.38685  1.0000
  C   C44       1.0  0.28166  0.16380999999999998  0.54658  1.0000
  Ge  Ge13      1.0  0.30614  0.10684999999999996  0.53505  1.0000
  S   S19       1.0  0.34855  0.06779  0.58805  1.0000
  Ge  Ge14      1.0  0.37921  0.5081199999999998  0.57145  1.0000
  C   C45       1.0  0.41468999999999995  0.46952999999999995  0.6168599999999997  1.0000
  S   S20       1.0  0.31747  0.46089999999999987  0.5452  1.0000
  Ge  Ge15      1.0  0.27452999999999994  0.4991699999999999  0.49255999999999994  1.0000
  C   C46       1.0  0.22290999999999994  0.44706999999999997  0.47728  1.0000
  S   S21       1.0  0.24333999999999997  0.55957  0.50818  1.0000
  S   S22       1.0  0.32832  0.52639  0.45159  1.0000
  Ge  Ge16      1.0  0.38951  0.07539000000000001  0.47901  1.0000
  C   C47       1.0  0.43706999999999996  0.11272999999999998  0.4477199999999999  1.0000
  S   S23       1.0  0.3564  0.13431  0.49363  1.0000
  S   S24       1.0  0.43211  0.53571  0.5311  1.0000
  C   C48       1.0  0.2657  0.15536  0.58678  1.0000
  C   C49       1.0  0.22112  0.11623999999999994  0.58909  1.0000
  C   C50       1.0  0.20315  0.10906  0.6284  1.0000
  C   C51       1.0  0.23879  0.08004  0.6616  1.0000
  C   C52       1.0  0.22409  0.07803999999999994  0.70207  1.0000
  H   H55       1.0  0.31304999999999994  0.1931799999999999  0.54607  1.0000
  H   H56       1.0  0.24945999999999993  0.17499  0.52321  1.0000
  H   H57       1.0  0.3873199999999999  0.45278999999999997  0.63648  1.0000
  H   H58       1.0  0.43191000000000007  0.44089  0.60729  1.0000
  H   H59       1.0  0.23887999999999993  0.42801  0.4579099999999999  1.0000
  H   H60       1.0  0.21819999999999995  0.42126999999999987  0.50423  1.0000
  H   H61       1.0  0.41517  0.13445  0.4220199999999999  1.0000
  H   H62       1.0  0.4614599999999999  0.13804  0.46589999999999987  1.0000
  H   H63       1.0  0.29918  0.14593  0.60965  1.0000
  H   H64       1.0  0.25394  0.18950999999999998  0.59204  1.0000
  H   H65       1.0  0.18864  0.6267  0.5655  1.0000
  H   H66       1.0  0.23139  0.08124999999999998  0.58454  1.0000
  H   H67       1.0  0.19836999999999994  0.14427  0.63642  1.0000
  H   H68       1.0  0.16511  0.08853  0.62348  1.0000
  H   H69       1.0  0.2788  0.09633  0.66327  1.0000
  H   H70       1.0  0.23777999999999988  0.042890000000000046  0.6551699999999998  1.0000
  H   H71       1.0  0.22955  0.11458999999999997  0.71039  1.0000
  H   H72       1.0  0.24933999999999998  0.05510999999999999  0.72424  1.0000
  Yb  Yb9       1.0  0.49705  0.07585  0.02389  1.0000
  Yb  Yb10      1.0  0.08963  0.47167999999999993  0.73548  1.0000
  Yb  Yb11      1.0  0.08004000000000001  0.54229  0.77538  1.0000
  Yb  Yb12      1.0  0.56637  0.051560000000000016  0.9871999999999999  1.0000
  C   C53       1.0  0.46969  0.08289  0.76743  1.0000
  C   C54       1.0  0.9919199999999998  0.14934  0.96409  1.0000
  C   C55       1.0  0.17073  0.46016  0.79075  1.0000
  C   C56       1.0  0.59511  0.44178000000000006  0.9943  1.0000
  O   O35       1.0  0.54811  0.13708999999999993  0.71279  1.0000
  O   O36       1.0  0.027550000000000012  0.42985  0.76005  1.0000
  O   O37       1.0  0.44504  0.020440000000000024  0.9993599999999999  1.0000
  O   O38       1.0  0.15937  0.51198  0.04732  1.0000
  O   O39       1.0  0.51919  0.08642  0.78057  1.0000
  O   O40       1.0  0.03350999999999998  0.12697000000000003  0.9638899999999999  1.0000
  O   O41       1.0  0.15517  0.50336  0.79121  1.0000
  O   O42       1.0  0.60738  0.48795999999999984  0.9834999999999999  1.0000
  O   O43       1.0  0.06899999999999998  0.42903999999999987  0.02237  1.0000
  O   O44       1.0  0.45880999999999994  0.12981000000000004  0.9868099999999999  1.0000
  O   O45       1.0  0.14176999999999995  0.4286499999999998  0.77087  1.0000
  O   O46       1.0  0.45089999999999986  0.06611000000000006  0.7350899999999998  1.0000
  C   C57       1.0  0.09715  0.1416  0.72772  1.0000
  O   O47       1.0  0.13471  0.08524999999999998  0.016229999999999994  1.0000
  O   O48       1.0  0.036250000000000004  0.47969999999999996  0.80574  1.0000
  O   O49       1.0  0.4981  0.013290000000000008  0.95738  1.0000
  O   O50       1.0  0.12082  0.10601  0.74959  1.0000
  C   C58       1.0  0.015869999999999947  0.43997999999999987  0.7919799999999999  1.0000
  O   O51       1.0  0.04525999999999997  0.025519999999999987  0.71429  1.0000
  C   C59       1.0  0.4550099999999999  0.0012600000000000285  0.9707199999999999  1.0000
  C   C60       1.0  0.17000999999999994  0.5581499999999998  0.03549  1.0000
  C   C61       1.0  0.19641999999999993  0.28790999999999994  0.8663899999999998  1.0000
  Ge  Ge17      1.0  0.13498  0.30110999999999977  0.88349  1.0000
  S   S25       1.0  0.5884  0.3436299999999999  0.83501  1.0000
  Ge  Ge18      1.0  0.5232799999999997  0.36300999999999994  0.8559699999999998  1.0000
  C   C62       1.0  0.48209999999999986  0.4039799999999999  0.81432  1.0000
  S   S26       1.0  0.47979  0.29655  0.87743  1.0000
  Ge  Ge19      1.0  0.52498  0.25131  0.92588  1.0000
  C   C63       1.0  0.47693  0.19264999999999996  0.93397  1.0000
  S   S27       1.0  0.59201  0.23453  0.9056  1.0000
  S   S28       1.0  0.5505  0.2956  0.97339  1.0000
  Ge  Ge20      1.0  0.09529999999999995  0.36234  0.9515199999999999  1.0000
  C   C64       1.0  0.12826999999999997  0.40559999999999996  0.98855  1.0000
  S   S29       1.0  0.16064  0.34276  0.9311  1.0000
  S   S30       1.0  0.54883  0.40494999999999987  0.90354  1.0000
  C   C65       1.0  0.1851  0.26899  0.82702  1.0000
  C   C66       1.0  0.15108999999999995  0.2213  0.8287799999999997  1.0000
  C   C67       1.0  0.15293000000000004  0.19407999999999997  0.79514  1.0000
  C   C68       1.0  0.12475999999999993  0.21797999999999992  0.7554899999999999  1.0000
  C   C69       1.0  0.1261  0.19001999999999988  0.72212  1.0000
  H   H73       1.0  0.22161999999999998  0.3219099999999999  0.8633699999999997  1.0000
  H   H74       1.0  0.21695  0.26192  0.88952  1.0000
  H   H75       1.0  0.45743999999999985  0.3811399999999999  0.7941499999999998  1.0000
  H   H76       1.0  0.4572499999999999  0.42271999999999976  0.82756  1.0000
  H   H77       1.0  0.4414799999999999  0.20449000000000006  0.9398099999999998  1.0000
  H   H78       1.0  0.46689  0.17996  0.90501  1.0000
  H   H79       1.0  0.14212999999999995  0.3837399999999999  0.017199999999999997  1.0000
  H   H80       1.0  0.16239999999999996  0.42494  0.97732  1.0000
  H   H81       1.0  0.16665999999999995  0.29628999999999994  0.8037799999999998  1.0000
  H   H82       1.0  0.22228999999999996  0.2639  0.8193899999999997  1.0000
  H   H83       1.0  0.66383  0.19786000000000004  0.85685  1.0000
  H   H84       1.0  0.11088000000000003  0.22785000000000002  0.82805  1.0000
  H   H85       1.0  0.19316999999999993  0.1906  0.7930799999999998  1.0000
  H   H86       1.0  0.13436999999999993  0.15744  0.80281  1.0000
  H   H87       1.0  0.14325  0.25472  0.74797  1.0000
  H   H88       1.0  0.08440000000000003  0.22116  0.75749  1.0000
  H   H89       1.0  0.10895000000000003  0.21062000000000003  0.69378  1.0000
  H   H90       1.0  0.16627999999999996  0.18606999999999999  0.72019  1.0000
  C   C70       1.0  0.28166  0.16380999999999996  0.87992  1.0000
  Ge  Ge21      1.0  0.30614  0.10684999999999999  0.86839  1.0000
  S   S31       1.0  0.34855  0.06779000000000002  0.9213799999999998  1.0000
  Ge  Ge22      1.0  0.37921  0.5081199999999998  0.90479  1.0000
  C   C71       1.0  0.41469  0.4695299999999999  0.9501899999999999  1.0000
  S   S32       1.0  0.31747  0.46089999999999987  0.87853  1.0000
  Ge  Ge23      1.0  0.27453  0.49916999999999995  0.8259  1.0000
  C   C72       1.0  0.22290999999999994  0.4470699999999999  0.81062  1.0000
  S   S33       1.0  0.24333999999999997  0.55957  0.84151  1.0000
  S   S34       1.0  0.32832  0.52639  0.78493  1.0000
  Ge  Ge24      1.0  0.38950999999999997  0.07539000000000004  0.8123399999999997  1.0000
  C   C73       1.0  0.43707  0.11273000000000001  0.78105  1.0000
  S   S35       1.0  0.3564  0.13430999999999998  0.82696  1.0000
  S   S36       1.0  0.43211  0.5357100000000001  0.8644399999999998  1.0000
  C   C74       1.0  0.2657  0.15536000000000005  0.9201099999999998  1.0000
  C   C75       1.0  0.22112  0.11623999999999995  0.92242  1.0000
  C   C76       1.0  0.20314999999999997  0.10906000000000003  0.9617299999999999  1.0000
  C   C77       1.0  0.23878999999999997  0.08004000000000003  0.9949299999999999  1.0000
  C   C78       1.0  0.22409  0.07803999999999998  0.0354  1.0000
  H   H91       1.0  0.31304999999999994  0.19317999999999996  0.8794  1.0000
  H   H92       1.0  0.24945999999999996  0.17499000000000003  0.8565399999999997  1.0000
  H   H93       1.0  0.3873199999999999  0.4527899999999999  0.9698199999999999  1.0000
  H   H94       1.0  0.43191000000000007  0.44089000000000006  0.94063  1.0000
  H   H95       1.0  0.23887999999999993  0.42801  0.7912399999999998  1.0000
  H   H96       1.0  0.21819999999999992  0.42127  0.8375599999999997  1.0000
  H   H97       1.0  0.41517  0.13445  0.75535  1.0000
  H   H98       1.0  0.4614599999999999  0.13803999999999997  0.79924  1.0000
  H   H99       1.0  0.29918  0.14593000000000003  0.9429799999999999  1.0000
  H   H100      1.0  0.25394  0.18950999999999993  0.9253799999999999  1.0000
  H   H101      1.0  0.18863999999999992  0.6267  0.8988299999999998  1.0000
  H   H102      1.0  0.23139  0.08124999999999999  0.91788  1.0000
  H   H103      1.0  0.19836999999999994  0.14427  0.96975  1.0000
  H   H104      1.0  0.16511000000000003  0.08852999999999996  0.9568100000000002  1.0000
  H   H105      1.0  0.2788  0.09633000000000001  0.9966  1.0000
  H   H106      1.0  0.23778  0.04289  0.9885  1.0000
  H   H107      1.0  0.22955  0.11458999999999998  0.04371999999999999  1.0000
  H   H108      1.0  0.24933999999999998  0.05510999999999999  0.05757  1.0000
  Yb  Yb13      1.0  0.49705  0.5758499999999999  0.35722  1.0000
  Yb  Yb14      1.0  0.08962999999999997  0.9716799999999998  0.06881  1.0000
  Yb  Yb15      1.0  0.08004  0.04228999999999999  0.10871  1.0000
  Yb  Yb16      1.0  0.5663699999999999  0.5515599999999998  0.32053  1.0000
  C   C79       1.0  0.46969000000000005  0.58289  0.10077  1.0000
  C   C80       1.0  0.9919199999999996  0.6493399999999998  0.2974299999999999  1.0000
  C   C81       1.0  0.17072999999999997  0.9601599999999998  0.12408  1.0000
  C   C82       1.0  0.59511  0.9417799999999997  0.32763  1.0000
  O   O52       1.0  0.5481  0.6370899999999998  0.04612  1.0000
  O   O53       1.0  0.02754999999999997  0.9298499999999997  0.09339  1.0000
  O   O54       1.0  0.44504  0.5204399999999999  0.3327  1.0000
  O   O55       1.0  0.15937  0.011980000000000005  0.38066  1.0000
  O   O56       1.0  0.5191899999999999  0.5864199999999998  0.11391  1.0000
  O   O57       1.0  0.03351  0.62697  0.29722  1.0000
  O   O58       1.0  0.15517  0.0033599999999999997  0.12453999999999998  1.0000
  O   O59       1.0  0.60738  0.98796  0.31683  1.0000
  O   O60       1.0  0.06899999999999996  0.9290399999999998  0.3557  1.0000
  O   O61       1.0  0.45880999999999994  0.6298099999999998  0.32015  1.0000
  O   O62       1.0  0.14176999999999995  0.9286499999999998  0.10421  1.0000
  O   O63       1.0  0.4509  0.56611  0.06843  1.0000
  C   C83       1.0  0.09715  0.64159  0.06106  1.0000
  O   O64       1.0  0.13471  0.58525  0.34956  1.0000
  O   O65       1.0  0.036249999999999984  0.9796999999999998  0.13908  1.0000
  O   O66       1.0  0.4980999999999999  0.5132899999999998  0.2907099999999999  1.0000
  O   O67       1.0  0.12082  0.60601  0.08292  1.0000
  C   C84       1.0  0.015869999999999978  0.93998  0.12531999999999993  1.0000
  O   O68       1.0  0.04526  0.52552  0.047629999999999985  1.0000
  C   C85       1.0  0.4550099999999999  0.50126  0.30405  1.0000
  C   C86       1.0  0.17000999999999997  0.05815000000000001  0.36882  1.0000
  C   C87       1.0  0.19641999999999993  0.7879099999999998  0.19971999999999995  1.0000
  Ge  Ge25      1.0  0.13498  0.80111  0.21682  1.0000
  S   S37       1.0  0.5884  0.84363  0.16835  1.0000
  Ge  Ge26      1.0  0.5232799999999997  0.8630099999999999  0.18929999999999994  1.0000
  C   C88       1.0  0.48209999999999986  0.90398  0.14765  1.0000
  S   S38       1.0  0.47978999999999977  0.79655  0.21076  1.0000
  Ge  Ge27      1.0  0.52498  0.7513099999999998  0.2592099999999999  1.0000
  C   C89       1.0  0.47693  0.69265  0.26731  1.0000
  S   S39       1.0  0.5920099999999998  0.73453  0.23892999999999998  1.0000
  S   S40       1.0  0.5504999999999999  0.7955999999999998  0.30673  1.0000
  Ge  Ge28      1.0  0.09529999999999995  0.8623399999999998  0.28486  1.0000
  C   C90       1.0  0.12826999999999994  0.9055999999999997  0.32189  1.0000
  S   S41       1.0  0.16063999999999998  0.8427600000000001  0.26442999999999994  1.0000
  S   S42       1.0  0.54883  0.9049499999999998  0.23687  1.0000
  C   C91       1.0  0.1851  0.76899  0.16034999999999994  1.0000
  C   C92       1.0  0.15109  0.7212999999999998  0.16212  1.0000
  C   C93       1.0  0.15292999999999998  0.69408  0.12848  1.0000
  C   C94       1.0  0.12475999999999994  0.7179799999999997  0.08882  1.0000
  C   C95       1.0  0.1261  0.6900199999999997  0.05545  1.0000
  H   H109      1.0  0.22161999999999998  0.8219099999999999  0.1967  1.0000
  H   H110      1.0  0.21694999999999998  0.7619199999999998  0.22286  1.0000
  H   H111      1.0  0.4574399999999999  0.88114  0.12748  1.0000
  H   H112      1.0  0.45724999999999993  0.9227199999999999  0.16089  1.0000
  H   H113      1.0  0.44147999999999993  0.7044899999999998  0.27314  1.0000
  H   H114      1.0  0.46689  0.6799599999999998  0.23834  1.0000
  H   H115      1.0  0.14212999999999995  0.8837399999999997  0.35053  1.0000
  H   H116      1.0  0.16239999999999993  0.9249399999999998  0.31066  1.0000
  H   H117      1.0  0.16666  0.79629  0.13711  1.0000
  H   H118      1.0  0.22229  0.7639  0.15272  1.0000
  H   H119      1.0  0.66383  0.6978599999999999  0.19018  1.0000
  H   H120      1.0  0.11087999999999999  0.7278499999999999  0.16138  1.0000
  H   H121      1.0  0.19316999999999998  0.6906000000000001  0.12641  1.0000
  H   H122      1.0  0.13436999999999993  0.65744  0.13614  1.0000
  H   H123      1.0  0.14324999999999993  0.7547199999999997  0.0813  1.0000
  H   H124      1.0  0.08439999999999996  0.7211599999999998  0.09082999999999997  1.0000
  H   H125      1.0  0.10894999999999999  0.7106199999999999  0.02711  1.0000
  H   H126      1.0  0.16627999999999998  0.6860699999999997  0.053519999999999984  1.0000
  C   C96       1.0  0.28166  0.66381  0.21325  1.0000
  Ge  Ge29      1.0  0.30613999999999997  0.6068499999999998  0.20172  1.0000
  S   S43       1.0  0.34855  0.5677899999999998  0.25471  1.0000
  Ge  Ge30      1.0  0.37921  0.008120000000000002  0.23812  1.0000
  C   C97       1.0  0.41468999999999995  0.9695299999999998  0.2835299999999999  1.0000
  S   S44       1.0  0.31747  0.9609  0.21187  1.0000
  Ge  Ge31      1.0  0.27453  0.9991699999999999  0.15923  1.0000
  C   C98       1.0  0.22290999999999994  0.9470699999999997  0.14395  1.0000
  S   S45       1.0  0.24334000000000003  0.059570000000000005  0.17485  1.0000
  S   S46       1.0  0.32832  0.02638999999999999  0.11825999999999999  1.0000
  Ge  Ge32      1.0  0.38951  0.57539  0.14567  1.0000
  C   C99       1.0  0.43707  0.6127299999999998  0.11438  1.0000
  S   S47       1.0  0.3564  0.6343099999999999  0.16028999999999993  1.0000
  S   S48       1.0  0.43210999999999994  0.03570999999999998  0.19777  1.0000
  C   C100      1.0  0.2657  0.6553599999999998  0.25345  1.0000
  C   C101      1.0  0.22112  0.61624  0.25576  1.0000
  C   C102      1.0  0.20315  0.60906  0.29506  1.0000
  C   C103      1.0  0.23878999999999997  0.5800399999999998  0.32826  1.0000
  C   C104      1.0  0.22409  0.57804  0.36874  1.0000
  H   H127      1.0  0.31304999999999994  0.6931799999999999  0.21274  1.0000
  H   H128      1.0  0.2494599999999999  0.6749899999999998  0.18987  1.0000
  H   H129      1.0  0.38731999999999994  0.9527899999999998  0.30315  1.0000
  H   H130      1.0  0.43190999999999996  0.9408899999999998  0.27396  1.0000
  H   H131      1.0  0.23887999999999993  0.9280099999999998  0.12457  1.0000
  H   H132      1.0  0.21819999999999992  0.9212699999999999  0.17088999999999993  1.0000
  H   H133      1.0  0.41517  0.63445  0.08868999999999999  1.0000
  H   H134      1.0  0.4614599999999999  0.63804  0.13257  1.0000
  H   H135      1.0  0.29918  0.64593  0.27631  1.0000
  H   H136      1.0  0.25394  0.6895099999999997  0.25871  1.0000
  H   H137      1.0  0.18864  0.1267  0.23216  1.0000
  H   H138      1.0  0.23139  0.58125  0.25121  1.0000
  H   H139      1.0  0.19836999999999994  0.6442699999999999  0.30309  1.0000
  H   H140      1.0  0.16511  0.58853  0.29015  1.0000
  H   H141      1.0  0.2788  0.59633  0.32993  1.0000
  H   H142      1.0  0.23777999999999994  0.5428899999999998  0.32184  1.0000
  H   H143      1.0  0.22955  0.61459  0.37706  1.0000
  H   H144      1.0  0.24933999999999998  0.55511  0.39091  1.0000
  Yb  Yb17      1.0  0.49705  0.5758499999999999  0.69055  1.0000
  Yb  Yb18      1.0  0.08962999999999996  0.9716799999999998  0.40215  1.0000
  Yb  Yb19      1.0  0.08004000000000001  0.04228999999999997  0.44204  1.0000
  Yb  Yb20      1.0  0.56637  0.55156  0.65386  1.0000
  C   C105      1.0  0.46969000000000005  0.58289  0.4341  1.0000
  C   C106      1.0  0.9919199999999997  0.6493399999999998  0.6307599999999998  1.0000
  C   C107      1.0  0.17072999999999997  0.9601599999999998  0.45741  1.0000
  C   C108      1.0  0.5951099999999998  0.9417800000000001  0.6609699999999997  1.0000
  O   O69       1.0  0.5481  0.6370899999999998  0.37946  1.0000
  O   O70       1.0  0.02754999999999997  0.9298499999999997  0.42672  1.0000
  O   O71       1.0  0.44504  0.5204399999999999  0.66603  1.0000
  O   O72       1.0  0.15936999999999996  0.011980000000000036  0.7139899999999998  1.0000
  O   O73       1.0  0.5191899999999999  0.5864199999999998  0.44724  1.0000
  O   O74       1.0  0.03351000000000002  0.62697  0.63055  1.0000
  O   O75       1.0  0.15517  0.0033600000000000075  0.45787  1.0000
  O   O76       1.0  0.60738  0.98796  0.65016  1.0000
  O   O77       1.0  0.06899999999999998  0.9290399999999998  0.68904  1.0000
  O   O78       1.0  0.45880999999999994  0.6298099999999998  0.65348  1.0000
  O   O79       1.0  0.14176999999999995  0.9286499999999998  0.4375399999999999  1.0000
  O   O80       1.0  0.4509  0.5661099999999999  0.4017599999999999  1.0000
  C   C109      1.0  0.09715  0.64159  0.39439  1.0000
  O   O81       1.0  0.13470999999999994  0.58525  0.68289  1.0000
  O   O82       1.0  0.03624999999999997  0.9796999999999998  0.47241  1.0000
  O   O83       1.0  0.4981  0.5132899999999998  0.62405  1.0000
  O   O84       1.0  0.12082  0.60601  0.41624999999999995  1.0000
  C   C110      1.0  0.015869999999999995  0.93998  0.45865  1.0000
  O   O85       1.0  0.04526  0.52552  0.38096  1.0000
  C   C111      1.0  0.4550099999999999  0.50126  0.63738  1.0000
  C   C112      1.0  0.17000999999999997  0.058150000000000014  0.70215  1.0000
  C   C113      1.0  0.19641999999999998  0.7879099999999997  0.53305  1.0000
  Ge  Ge33      1.0  0.13498  0.80111  0.55015  1.0000
  S   S49       1.0  0.5884  0.84363  0.50168  1.0000
  Ge  Ge34      1.0  0.52328  0.86301  0.52263  1.0000
  C   C114      1.0  0.48209999999999986  0.90398  0.48099  1.0000
  S   S50       1.0  0.47978999999999977  0.79655  0.5441  1.0000
  Ge  Ge35      1.0  0.52498  0.7513099999999998  0.5925399999999997  1.0000
  C   C115      1.0  0.47693  0.69265  0.6006399999999997  1.0000
  S   S51       1.0  0.5920099999999998  0.73453  0.5722699999999997  1.0000
  S   S52       1.0  0.5504999999999999  0.7955999999999998  0.64006  1.0000
  Ge  Ge36      1.0  0.09529999999999995  0.8623399999999998  0.61819  1.0000
  C   C116      1.0  0.12826999999999994  0.9055999999999997  0.65522  1.0000
  S   S53       1.0  0.16063999999999998  0.8427599999999997  0.59776  1.0000
  S   S54       1.0  0.54883  0.9049499999999998  0.5702  1.0000
  C   C117      1.0  0.1851  0.76899  0.49368999999999996  1.0000
  C   C118      1.0  0.15109  0.7212999999999998  0.49545  1.0000
  C   C119      1.0  0.15292999999999998  0.69408  0.46181  1.0000
  C   C120      1.0  0.12475999999999994  0.7179799999999997  0.4221499999999999  1.0000
  C   C121      1.0  0.12609999999999996  0.6900199999999999  0.3887899999999999  1.0000
  H   H145      1.0  0.22161999999999998  0.8219099999999999  0.53004  1.0000
  H   H146      1.0  0.21694999999999998  0.7619199999999998  0.55619  1.0000
  H   H147      1.0  0.4574399999999999  0.88114  0.4608099999999999  1.0000
  H   H148      1.0  0.45724999999999993  0.9227199999999999  0.49422  1.0000
  H   H149      1.0  0.44147999999999993  0.7044899999999998  0.60648  1.0000
  H   H150      1.0  0.46689  0.6799599999999998  0.57167  1.0000
  H   H151      1.0  0.14212999999999995  0.8837399999999997  0.68386  1.0000
  H   H152      1.0  0.16239999999999993  0.9249399999999998  0.64399  1.0000
  H   H153      1.0  0.16666  0.79629  0.47045  1.0000
  H   H154      1.0  0.22229  0.7639  0.48606  1.0000
  H   H155      1.0  0.66383  0.6978599999999999  0.52351  1.0000
  H   H156      1.0  0.11087999999999999  0.72785  0.49471999999999994  1.0000
  H   H157      1.0  0.19316999999999998  0.6906  0.45974  1.0000
  H   H158      1.0  0.13436999999999993  0.65744  0.46947  1.0000
  H   H159      1.0  0.14324999999999993  0.7547199999999997  0.41462999999999994  1.0000
  H   H160      1.0  0.08439999999999996  0.7211599999999998  0.42416  1.0000
  H   H161      1.0  0.10894999999999996  0.7106199999999999  0.36045  1.0000
  H   H162      1.0  0.16627999999999998  0.6860699999999997  0.38685  1.0000
  C   C122      1.0  0.28166  0.6638100000000001  0.54658  1.0000
  Ge  Ge37      1.0  0.30613999999999997  0.6068499999999998  0.53505  1.0000
  S   S55       1.0  0.34855  0.5677899999999998  0.58805  1.0000
  Ge  Ge38      1.0  0.37921  0.008120000000000002  0.57145  1.0000
  C   C123      1.0  0.4146899999999999  0.9695299999999998  0.6168599999999997  1.0000
  S   S56       1.0  0.31747  0.9609  0.5452  1.0000
  Ge  Ge39      1.0  0.27452999999999994  0.9991699999999999  0.49255999999999994  1.0000
  C   C124      1.0  0.22290999999999994  0.9470699999999997  0.47728  1.0000
  S   S57       1.0  0.24334  0.059569999999999984  0.50818  1.0000
  S   S58       1.0  0.32832  0.026390000000000004  0.45159  1.0000
  Ge  Ge40      1.0  0.38951  0.57539  0.47901  1.0000
  C   C125      1.0  0.43707  0.6127299999999998  0.4477199999999999  1.0000
  S   S59       1.0  0.3564  0.6343099999999999  0.49363  1.0000
  S   S60       1.0  0.43211  0.03570999999999998  0.5311  1.0000
  C   C126      1.0  0.2657  0.6553599999999998  0.58678  1.0000
  C   C127      1.0  0.22112  0.61624  0.58909  1.0000
  C   C128      1.0  0.20315  0.60906  0.6284  1.0000
  C   C129      1.0  0.23878999999999997  0.5800399999999998  0.6616  1.0000
  C   C130      1.0  0.22409000000000004  0.57804  0.70207  1.0000
  H   H163      1.0  0.31304999999999994  0.69318  0.54607  1.0000
  H   H164      1.0  0.2494599999999999  0.6749899999999998  0.52321  1.0000
  H   H165      1.0  0.3873199999999999  0.9527899999999998  0.63648  1.0000
  H   H166      1.0  0.43190999999999996  0.9408899999999998  0.60729  1.0000
  H   H167      1.0  0.23887999999999993  0.9280099999999998  0.4579099999999999  1.0000
  H   H168      1.0  0.21819999999999992  0.9212699999999998  0.50423  1.0000
  H   H169      1.0  0.41517  0.6344500000000001  0.4220199999999999  1.0000
  H   H170      1.0  0.4614599999999999  0.63804  0.46589999999999987  1.0000
  H   H171      1.0  0.29918  0.64593  0.60965  1.0000
  H   H172      1.0  0.25394  0.6895099999999997  0.59204  1.0000
  H   H173      1.0  0.18864  0.1267  0.5655  1.0000
  H   H174      1.0  0.23139  0.58125  0.58454  1.0000
  H   H175      1.0  0.19836999999999994  0.6442699999999999  0.63642  1.0000
  H   H176      1.0  0.16511000000000003  0.58853  0.62348  1.0000
  H   H177      1.0  0.2788  0.59633  0.66327  1.0000
  H   H178      1.0  0.23777999999999988  0.54289  0.6551699999999998  1.0000
  H   H179      1.0  0.22955  0.61459  0.71039  1.0000
  H   H180      1.0  0.24933999999999995  0.5551099999999998  0.72424  1.0000
  Yb  Yb21      1.0  0.49705  0.5758499999999999  0.02389  1.0000
  Yb  Yb22      1.0  0.08962999999999999  0.9716799999999998  0.73548  1.0000
  Yb  Yb23      1.0  0.08004000000000003  0.04228999999999997  0.77538  1.0000
  Yb  Yb24      1.0  0.5663699999999999  0.55156  0.9871999999999999  1.0000
  C   C131      1.0  0.46969000000000005  0.58289  0.76743  1.0000
  C   C132      1.0  0.9919199999999997  0.6493399999999999  0.96409  1.0000
  C   C133      1.0  0.17072999999999994  0.9601599999999998  0.79075  1.0000
  C   C134      1.0  0.59511  0.9417799999999997  0.9943  1.0000
  O   O86       1.0  0.5481  0.6370899999999998  0.71279  1.0000
  O   O87       1.0  0.02754999999999997  0.9298499999999997  0.76005  1.0000
  O   O88       1.0  0.44503999999999994  0.52044  0.9993599999999999  1.0000
  O   O89       1.0  0.15937  0.011979999999999998  0.04732  1.0000
  O   O90       1.0  0.5191899999999999  0.5864199999999998  0.78057  1.0000
  O   O91       1.0  0.033509999999999984  0.62697  0.9638899999999999  1.0000
  O   O92       1.0  0.15517  0.003359999999999992  0.79121  1.0000
  O   O93       1.0  0.6073799999999999  0.9879600000000001  0.9834999999999999  1.0000
  O   O94       1.0  0.06899999999999996  0.9290399999999998  0.02237  1.0000
  O   O95       1.0  0.45880999999999994  0.6298099999999998  0.9868099999999999  1.0000
  O   O96       1.0  0.14176999999999995  0.9286499999999998  0.77087  1.0000
  O   O97       1.0  0.45089999999999986  0.56611  0.7350899999999998  1.0000
  C   C135      1.0  0.09714999999999994  0.64159  0.72772  1.0000
  O   O98       1.0  0.13471  0.58525  0.016229999999999994  1.0000
  O   O99       1.0  0.03624999999999992  0.9796999999999998  0.80574  1.0000
  O   O100      1.0  0.4981  0.5132899999999998  0.95738  1.0000
  O   O101      1.0  0.12082  0.60601  0.74959  1.0000
  C   C136      1.0  0.01586999999999993  0.93998  0.7919799999999999  1.0000
  O   O102      1.0  0.04526  0.52552  0.71429  1.0000
  C   C137      1.0  0.4550099999999999  0.50126  0.9707199999999999  1.0000
  C   C138      1.0  0.17000999999999997  0.05815  0.03549  1.0000
  C   C139      1.0  0.1964199999999999  0.7879099999999998  0.8663899999999998  1.0000
  Ge  Ge41      1.0  0.13498000000000002  0.80111  0.88349  1.0000
  S   S61       1.0  0.5884  0.84363  0.83501  1.0000
  Ge  Ge42      1.0  0.5232799999999997  0.8630099999999999  0.8559699999999998  1.0000
  C   C140      1.0  0.48209999999999986  0.90398  0.81432  1.0000
  S   S62       1.0  0.47978999999999977  0.79655  0.87743  1.0000
  Ge  Ge43      1.0  0.52498  0.7513099999999998  0.92588  1.0000
  C   C141      1.0  0.4769300000000001  0.6926500000000001  0.93397  1.0000
  S   S63       1.0  0.5920099999999998  0.73453  0.9056  1.0000
  S   S64       1.0  0.5504999999999999  0.7955999999999998  0.97339  1.0000
  Ge  Ge44      1.0  0.09529999999999993  0.8623399999999998  0.9515199999999999  1.0000
  C   C142      1.0  0.12826999999999997  0.9055999999999996  0.98855  1.0000
  S   S65       1.0  0.16063999999999998  0.8427599999999996  0.9311  1.0000
  S   S66       1.0  0.54883  0.9049499999999998  0.90354  1.0000
  C   C143      1.0  0.1851  0.76899  0.82702  1.0000
  C   C144      1.0  0.15108999999999992  0.7212999999999998  0.8287799999999997  1.0000
  C   C145      1.0  0.15292999999999998  0.69408  0.79514  1.0000
  C   C146      1.0  0.12475999999999993  0.7179799999999997  0.7554899999999999  1.0000
  C   C147      1.0  0.1261  0.6900199999999997  0.72212  1.0000
  H   H181      1.0  0.22161999999999998  0.8219099999999999  0.8633699999999997  1.0000
  H   H182      1.0  0.21694999999999998  0.7619199999999998  0.88952  1.0000
  H   H183      1.0  0.45743999999999985  0.88114  0.7941499999999998  1.0000
  H   H184      1.0  0.45724999999999993  0.9227199999999999  0.82756  1.0000
  H   H185      1.0  0.44147999999999993  0.7044899999999998  0.9398099999999998  1.0000
  H   H186      1.0  0.46689  0.6799599999999998  0.90501  1.0000
  H   H187      1.0  0.14212999999999995  0.8837399999999997  0.017199999999999997  1.0000
  H   H188      1.0  0.16239999999999993  0.9249399999999998  0.97732  1.0000
  H   H189      1.0  0.16665999999999995  0.79629  0.8037799999999998  1.0000
  H   H190      1.0  0.22228999999999996  0.7639  0.8193899999999997  1.0000
  H   H191      1.0  0.66383  0.69786  0.85685  1.0000
  H   H192      1.0  0.11087999999999999  0.7278499999999999  0.82805  1.0000
  H   H193      1.0  0.19316999999999993  0.6906  0.7930799999999998  1.0000
  H   H194      1.0  0.13436999999999993  0.65744  0.80281  1.0000
  H   H195      1.0  0.14324999999999993  0.7547199999999997  0.74797  1.0000
  H   H196      1.0  0.08439999999999996  0.7211599999999998  0.75749  1.0000
  H   H197      1.0  0.10894999999999999  0.7106199999999999  0.69378  1.0000
  H   H198      1.0  0.16627999999999998  0.6860699999999997  0.72019  1.0000
  C   C148      1.0  0.28166  0.66381  0.87992  1.0000
  Ge  Ge45      1.0  0.30613999999999997  0.6068499999999998  0.86839  1.0000
  S   S67       1.0  0.34854999999999997  0.5677899999999999  0.9213799999999998  1.0000
  Ge  Ge46      1.0  0.37921  0.008120000000000002  0.90479  1.0000
  C   C149      1.0  0.41468999999999995  0.9695299999999999  0.9501899999999999  1.0000
  S   S68       1.0  0.31747  0.9609  0.87853  1.0000
  Ge  Ge47      1.0  0.27452999999999994  0.9991699999999998  0.8259  1.0000
  C   C150      1.0  0.22290999999999994  0.9470699999999997  0.81062  1.0000
  S   S69       1.0  0.24334000000000003  0.059570000000000005  0.84151  1.0000
  S   S70       1.0  0.32832  0.02638999999999999  0.78493  1.0000
  Ge  Ge48      1.0  0.38950999999999997  0.5753900000000001  0.8123399999999997  1.0000
  C   C151      1.0  0.43707  0.6127299999999998  0.78105  1.0000
  S   S71       1.0  0.3564  0.6343099999999999  0.82696  1.0000
  S   S72       1.0  0.43210999999999994  0.03571000000000004  0.8644399999999998  1.0000
  C   C152      1.0  0.26569999999999994  0.6553599999999999  0.9201099999999998  1.0000
  C   C153      1.0  0.22112  0.61624  0.92242  1.0000
  C   C154      1.0  0.20314999999999997  0.60906  0.9617299999999999  1.0000
  C   C155      1.0  0.23878999999999997  0.5800399999999998  0.9949299999999999  1.0000
  C   C156      1.0  0.22409  0.57804  0.0354  1.0000
  H   H199      1.0  0.31304999999999994  0.69318  0.8794  1.0000
  H   H200      1.0  0.2494599999999999  0.6749899999999998  0.8565399999999997  1.0000
  H   H201      1.0  0.38731999999999983  0.9527899999999998  0.9698199999999999  1.0000
  H   H202      1.0  0.43191  0.9408899999999999  0.94063  1.0000
  H   H203      1.0  0.23887999999999987  0.9280099999999998  0.7912399999999998  1.0000
  H   H204      1.0  0.21819999999999987  0.9212699999999998  0.8375599999999997  1.0000
  H   H205      1.0  0.41517  0.63445  0.75535  1.0000
  H   H206      1.0  0.4614599999999999  0.63804  0.79924  1.0000
  H   H207      1.0  0.29918  0.64593  0.9429799999999999  1.0000
  H   H208      1.0  0.25394000000000005  0.6895100000000001  0.9253799999999999  1.0000
  H   H209      1.0  0.18863999999999992  0.12670000000000006  0.8988299999999998  1.0000
  H   H210      1.0  0.23139  0.58125  0.91788  1.0000
  H   H211      1.0  0.19836999999999994  0.6442699999999999  0.96975  1.0000
  H   H212      1.0  0.16511000000000003  0.58853  0.9568100000000002  1.0000
  H   H213      1.0  0.2788  0.59633  0.9966  1.0000
  H   H214      1.0  0.23777999999999994  0.5428899999999998  0.9885  1.0000
  H   H215      1.0  0.22955  0.61459  0.04371999999999999  1.0000
  H   H216      1.0  0.24933999999999998  0.55511  0.05757  1.0000
  Yb  Yb25      1.0  0.99705  0.07585  0.35722  1.0000
  Yb  Yb26      1.0  0.58963  0.4716799999999999  0.06881  1.0000
  Yb  Yb27      1.0  0.58004  0.54229  0.10871  1.0000
  Yb  Yb28      1.0  0.06637  0.051559999999999995  0.32053  1.0000
  C   C157      1.0  0.9696899999999998  0.08289  0.10077  1.0000
  C   C158      1.0  0.4919199999999999  0.14934  0.2974299999999999  1.0000
  C   C159      1.0  0.6707299999999999  0.46016  0.12408  1.0000
  C   C160      1.0  0.09510999999999997  0.44178  0.32763  1.0000
  O   O103      1.0  0.04810999999999999  0.13708999999999993  0.04612  1.0000
  O   O104      1.0  0.52755  0.42985  0.09339  1.0000
  O   O105      1.0  0.94504  0.02044  0.3327  1.0000
  O   O106      1.0  0.65937  0.51198  0.38066  1.0000
  O   O107      1.0  0.019190000000000002  0.08642  0.11391  1.0000
  O   O108      1.0  0.53351  0.12697  0.29722  1.0000
  O   O109      1.0  0.65517  0.50336  0.12453999999999998  1.0000
  O   O110      1.0  0.10737999999999998  0.4879599999999999  0.31683  1.0000
  O   O111      1.0  0.5689999999999998  0.42903999999999987  0.35571  1.0000
  O   O112      1.0  0.95881  0.12981  0.32015  1.0000
  O   O113      1.0  0.6417699999999998  0.42864999999999986  0.10421  1.0000
  O   O114      1.0  0.9509  0.06611  0.06843  1.0000
  C   C161      1.0  0.5971499999999997  0.1416  0.06106  1.0000
  O   O115      1.0  0.63471  0.08524999999999995  0.34956  1.0000
  O   O116      1.0  0.53625  0.4796999999999999  0.13908  1.0000
  O   O117      1.0  0.9981  0.013290000000000024  0.2907099999999999  1.0000
  O   O118      1.0  0.6208199999999998  0.10601  0.08292  1.0000
  C   C162      1.0  0.51587  0.4399799999999999  0.12531999999999993  1.0000
  O   O119      1.0  0.54526  0.025519999999999998  0.047629999999999985  1.0000
  C   C163      1.0  0.95501  0.001259999999999997  0.30405  1.0000
  C   C164      1.0  0.67001  0.5581499999999998  0.36882  1.0000
  C   C165      1.0  0.69642  0.2879099999999999  0.19971999999999995  1.0000
  Ge  Ge49      1.0  0.6349799999999999  0.30110999999999977  0.21682  1.0000
  S   S73       1.0  0.08839999999999999  0.34362999999999994  0.16835  1.0000
  Ge  Ge50      1.0  0.023279999999999974  0.3630099999999999  0.18929999999999994  1.0000
  C   C166      1.0  0.9821  0.4039799999999999  0.14765  1.0000
  S   S74       1.0  0.9797899999999999  0.29655  0.21076  1.0000
  Ge  Ge51      1.0  0.024979999999999968  0.25131  0.2592099999999999  1.0000
  C   C167      1.0  0.97693  0.19264999999999996  0.26731  1.0000
  S   S75       1.0  0.09201  0.23452999999999993  0.23892999999999998  1.0000
  S   S76       1.0  0.0505  0.2956  0.30673  1.0000
  Ge  Ge52      1.0  0.5953  0.36234  0.28486  1.0000
  C   C168      1.0  0.62827  0.4056  0.32189  1.0000
  S   S77       1.0  0.66064  0.34276  0.26442999999999994  1.0000
  S   S78       1.0  0.04882999999999999  0.4049499999999999  0.23687  1.0000
  C   C169      1.0  0.6850999999999999  0.26899  0.16034999999999994  1.0000
  C   C170      1.0  0.6510899999999998  0.22129999999999997  0.16212  1.0000
  C   C171      1.0  0.65293  0.19407999999999995  0.12848  1.0000
  C   C172      1.0  0.62476  0.21797999999999995  0.08882  1.0000
  C   C173      1.0  0.6260999999999999  0.19001999999999994  0.05545  1.0000
  H   H217      1.0  0.72162  0.32190999999999986  0.1967  1.0000
  H   H218      1.0  0.71695  0.26192  0.22286  1.0000
  H   H219      1.0  0.9574399999999997  0.38113999999999987  0.12748  1.0000
  H   H220      1.0  0.9572499999999996  0.4227199999999999  0.16089  1.0000
  H   H221      1.0  0.94148  0.20449  0.27314  1.0000
  H   H222      1.0  0.9668899999999999  0.17996000000000004  0.23834  1.0000
  H   H223      1.0  0.64213  0.3837399999999999  0.35053  1.0000
  H   H224      1.0  0.6624  0.42494  0.31066  1.0000
  H   H225      1.0  0.66666  0.29628999999999994  0.13711  1.0000
  H   H226      1.0  0.72229  0.2639  0.15272  1.0000
  H   H227      1.0  0.16382999999999995  0.19786000000000004  0.19018  1.0000
  H   H228      1.0  0.6108799999999999  0.22785  0.16138  1.0000
  H   H229      1.0  0.6931699999999998  0.19059999999999994  0.12641  1.0000
  H   H230      1.0  0.6343699999999999  0.15744  0.13614  1.0000
  H   H231      1.0  0.6432499999999999  0.25472  0.0813  1.0000
  H   H232      1.0  0.5844  0.22115999999999994  0.09082999999999997  1.0000
  H   H233      1.0  0.60895  0.21062  0.02711  1.0000
  H   H234      1.0  0.66628  0.18606999999999996  0.053519999999999984  1.0000
  C   C174      1.0  0.78166  0.16380999999999998  0.21325  1.0000
  Ge  Ge53      1.0  0.8061399999999999  0.10684999999999995  0.20172  1.0000
  S   S79       1.0  0.84855  0.06778999999999998  0.25471  1.0000
  Ge  Ge54      1.0  0.8792099999999999  0.5081199999999998  0.23812  1.0000
  C   C175      1.0  0.9146899999999998  0.46952999999999995  0.2835299999999999  1.0000
  S   S80       1.0  0.81747  0.4609  0.21187  1.0000
  Ge  Ge55      1.0  0.77453  0.4991699999999999  0.15923  1.0000
  C   C176      1.0  0.72291  0.44706999999999997  0.14395  1.0000
  S   S81       1.0  0.7433399999999998  0.5595699999999998  0.17485  1.0000
  S   S82       1.0  0.82832  0.52639  0.11825999999999999  1.0000
  Ge  Ge56      1.0  0.8895099999999998  0.07539000000000001  0.14567  1.0000
  C   C177      1.0  0.93707  0.11272999999999997  0.11438  1.0000
  S   S83       1.0  0.8564  0.13431  0.16028999999999993  1.0000
  S   S84       1.0  0.93211  0.53571  0.19777  1.0000
  C   C178      1.0  0.7656999999999999  0.15536  0.25345  1.0000
  C   C179      1.0  0.7211199999999998  0.11623999999999995  0.25576  1.0000
  C   C180      1.0  0.70315  0.10906  0.29506  1.0000
  C   C181      1.0  0.73879  0.08004  0.32826  1.0000
  C   C182      1.0  0.72409  0.07803999999999998  0.36874  1.0000
  H   H235      1.0  0.81305  0.19317999999999994  0.21274  1.0000
  H   H236      1.0  0.7494600000000001  0.17499  0.18987  1.0000
  H   H237      1.0  0.88732  0.4527899999999999  0.30315  1.0000
  H   H238      1.0  0.93191  0.44089  0.27396  1.0000
  H   H239      1.0  0.7388799999999999  0.42801  0.12457  1.0000
  H   H240      1.0  0.7182  0.42126999999999987  0.17088999999999993  1.0000
  H   H241      1.0  0.91517  0.13445  0.08868999999999999  1.0000
  H   H242      1.0  0.9614599999999998  0.13804  0.13257  1.0000
  H   H243      1.0  0.7991799999999998  0.14593  0.27631  1.0000
  H   H244      1.0  0.75394  0.18950999999999996  0.25871  1.0000
  H   H245      1.0  0.68864  0.6267  0.23216  1.0000
  H   H246      1.0  0.73139  0.08124999999999998  0.25121  1.0000
  H   H247      1.0  0.69837  0.14427  0.30309  1.0000
  H   H248      1.0  0.66511  0.08853  0.29015  1.0000
  H   H249      1.0  0.7788  0.09633000000000001  0.32993  1.0000
  H   H250      1.0  0.73778  0.042889999999999984  0.32184  1.0000
  H   H251      1.0  0.7295499999999999  0.11458999999999997  0.37706  1.0000
  H   H252      1.0  0.74934  0.05510999999999999  0.39091  1.0000
  Yb  Yb29      1.0  0.99705  0.07584999999999999  0.69055  1.0000
  Yb  Yb30      1.0  0.58963  0.4716799999999999  0.40215  1.0000
  Yb  Yb31      1.0  0.58004  0.5422899999999998  0.44204  1.0000
  Yb  Yb32      1.0  0.06637  0.05156  0.65386  1.0000
  C   C183      1.0  0.9696899999999997  0.08288999999999995  0.4341  1.0000
  C   C184      1.0  0.49191999999999986  0.14934000000000006  0.6307599999999998  1.0000
  C   C185      1.0  0.6707299999999999  0.46016  0.45741  1.0000
  C   C186      1.0  0.09510999999999994  0.44178  0.6609699999999997  1.0000
  O   O120      1.0  0.04811000000000001  0.13709  0.37946  1.0000
  O   O121      1.0  0.52755  0.42985  0.42672  1.0000
  O   O122      1.0  0.94504  0.020440000000000007  0.66603  1.0000
  O   O123      1.0  0.65937  0.51198  0.7139899999999998  1.0000
  O   O124      1.0  0.019189999999999985  0.08641999999999998  0.44724  1.0000
  O   O125      1.0  0.53351  0.12696999999999997  0.63055  1.0000
  O   O126      1.0  0.65517  0.50336  0.45787  1.0000
  O   O127      1.0  0.10737999999999996  0.48795999999999984  0.65017  1.0000
  O   O128      1.0  0.5690000000000001  0.4290399999999998  0.68904  1.0000
  O   O129      1.0  0.95881  0.12980999999999995  0.65348  1.0000
  O   O130      1.0  0.6417699999999998  0.4286499999999999  0.4375399999999999  1.0000
  O   O131      1.0  0.9509  0.06611000000000003  0.4017599999999999  1.0000
  C   C187      1.0  0.5971499999999997  0.14159999999999995  0.39439  1.0000
  O   O132      1.0  0.63471  0.08525  0.68289  1.0000
  O   O133      1.0  0.53625  0.47969999999999996  0.47241  1.0000
  O   O134      1.0  0.9981  0.013289999999999993  0.62405  1.0000
  O   O135      1.0  0.6208199999999998  0.10601000000000001  0.41624999999999995  1.0000
  C   C188      1.0  0.51587  0.4399799999999999  0.45865  1.0000
  O   O136      1.0  0.54526  0.02552  0.38096  1.0000
  C   C189      1.0  0.95501  0.001259999999999997  0.63738  1.0000
  C   C190      1.0  0.67001  0.55815  0.70215  1.0000
  C   C191      1.0  0.69642  0.2879099999999999  0.53305  1.0000
  Ge  Ge57      1.0  0.6349799999999999  0.30111  0.55015  1.0000
  S   S85       1.0  0.0884  0.34362999999999994  0.50168  1.0000
  Ge  Ge58      1.0  0.02327999999999999  0.3630099999999999  0.52263  1.0000
  C   C192      1.0  0.9820999999999998  0.4039799999999999  0.48099  1.0000
  S   S86       1.0  0.9797899999999999  0.29655  0.5441  1.0000
  Ge  Ge59      1.0  0.024979999999999915  0.2513099999999999  0.5925399999999997  1.0000
  C   C193      1.0  0.97693  0.19264999999999996  0.6006399999999997  1.0000
  S   S87       1.0  0.09200999999999993  0.23452999999999993  0.5722699999999997  1.0000
  S   S88       1.0  0.05049999999999998  0.2956  0.64006  1.0000
  Ge  Ge60      1.0  0.5953  0.36234  0.61819  1.0000
  C   C194      1.0  0.62827  0.4056  0.65522  1.0000
  S   S89       1.0  0.66064  0.34276000000000006  0.59776  1.0000
  S   S90       1.0  0.04882999999999999  0.4049499999999999  0.5702  1.0000
  C   C195      1.0  0.6850999999999999  0.2689899999999999  0.49368999999999996  1.0000
  C   C196      1.0  0.6510899999999998  0.2213  0.49545  1.0000
  C   C197      1.0  0.65293  0.19407999999999992  0.46181  1.0000
  C   C198      1.0  0.6247599999999999  0.21797999999999995  0.4221499999999999  1.0000
  C   C199      1.0  0.6260999999999999  0.19002000000000002  0.3887899999999999  1.0000
  H   H253      1.0  0.72162  0.32190999999999986  0.53004  1.0000
  H   H254      1.0  0.71695  0.26192  0.55619  1.0000
  H   H255      1.0  0.9574399999999997  0.3811399999999999  0.4608099999999999  1.0000
  H   H256      1.0  0.9572499999999996  0.4227199999999999  0.49422  1.0000
  H   H257      1.0  0.94148  0.20449  0.60648  1.0000
  H   H258      1.0  0.9668899999999999  0.17996  0.57167  1.0000
  H   H259      1.0  0.64213  0.3837399999999999  0.68386  1.0000
  H   H260      1.0  0.6624  0.42494  0.64399  1.0000
  H   H261      1.0  0.66666  0.29628999999999994  0.47045  1.0000
  H   H262      1.0  0.72229  0.2639  0.48606  1.0000
  H   H263      1.0  0.16382999999999995  0.19786000000000004  0.52351  1.0000
  H   H264      1.0  0.6108799999999999  0.22785  0.49471999999999994  1.0000
  H   H265      1.0  0.6931699999999998  0.1905999999999999  0.45974  1.0000
  H   H266      1.0  0.6343699999999999  0.15744  0.46947  1.0000
  H   H267      1.0  0.6432499999999999  0.25472  0.41462999999999994  1.0000
  H   H268      1.0  0.5843999999999998  0.22116  0.42416  1.0000
  H   H269      1.0  0.60895  0.21062  0.36045  1.0000
  H   H270      1.0  0.66628  0.18606999999999999  0.38685  1.0000
  C   C200      1.0  0.78166  0.16380999999999998  0.54658  1.0000
  Ge  Ge61      1.0  0.8061399999999999  0.10684999999999996  0.53505  1.0000
  S   S91       1.0  0.84855  0.06779  0.58805  1.0000
  Ge  Ge62      1.0  0.8792099999999999  0.5081199999999998  0.57145  1.0000
  C   C201      1.0  0.9146899999999997  0.46952999999999995  0.6168599999999997  1.0000
  S   S92       1.0  0.81747  0.46089999999999987  0.5452  1.0000
  Ge  Ge63      1.0  0.77453  0.4991699999999999  0.49255999999999994  1.0000
  C   C202      1.0  0.72291  0.44706999999999997  0.47728  1.0000
  S   S93       1.0  0.7433399999999998  0.55957  0.50818  1.0000
  S   S94       1.0  0.82832  0.52639  0.45159  1.0000
  Ge  Ge64      1.0  0.8895099999999998  0.07539000000000001  0.47901  1.0000
  C   C203      1.0  0.93707  0.11272999999999998  0.4477199999999999  1.0000
  S   S95       1.0  0.8564  0.13431  0.49363  1.0000
  S   S96       1.0  0.93211  0.53571  0.5311  1.0000
  C   C204      1.0  0.7656999999999999  0.15536  0.58678  1.0000
  C   C205      1.0  0.7211199999999998  0.11623999999999994  0.58909  1.0000
  C   C206      1.0  0.70315  0.10906  0.6284  1.0000
  C   C207      1.0  0.73879  0.08004  0.6616  1.0000
  C   C208      1.0  0.72409  0.07803999999999994  0.70207  1.0000
  H   H271      1.0  0.81305  0.1931799999999999  0.54607  1.0000
  H   H272      1.0  0.7494599999999998  0.17499  0.52321  1.0000
  H   H273      1.0  0.8873199999999999  0.45278999999999997  0.63648  1.0000
  H   H274      1.0  0.93191  0.44089  0.60729  1.0000
  H   H275      1.0  0.7388799999999999  0.42801  0.4579099999999999  1.0000
  H   H276      1.0  0.7182  0.42126999999999987  0.50423  1.0000
  H   H277      1.0  0.91517  0.13445  0.4220199999999999  1.0000
  H   H278      1.0  0.9614599999999998  0.13804  0.46589999999999987  1.0000
  H   H279      1.0  0.7991799999999998  0.14593  0.60965  1.0000
  H   H280      1.0  0.75394  0.18950999999999998  0.59204  1.0000
  H   H281      1.0  0.68864  0.6267  0.5655  1.0000
  H   H282      1.0  0.73139  0.08124999999999998  0.58454  1.0000
  H   H283      1.0  0.69837  0.14427  0.63642  1.0000
  H   H284      1.0  0.66511  0.08853  0.62348  1.0000
  H   H285      1.0  0.7788  0.09633  0.66327  1.0000
  H   H286      1.0  0.73778  0.042890000000000046  0.6551699999999998  1.0000
  H   H287      1.0  0.7295499999999999  0.11458999999999997  0.71039  1.0000
  H   H288      1.0  0.74934  0.05510999999999999  0.72424  1.0000
  Yb  Yb33      1.0  0.99705  0.07585  0.02389  1.0000
  Yb  Yb34      1.0  0.58963  0.47167999999999993  0.73548  1.0000
  Yb  Yb35      1.0  0.58004  0.54229  0.77538  1.0000
  Yb  Yb36      1.0  0.06636999999999997  0.051560000000000016  0.9871999999999999  1.0000
  C   C209      1.0  0.9696899999999998  0.08289  0.76743  1.0000
  C   C210      1.0  0.4919199999999999  0.14934  0.96409  1.0000
  C   C211      1.0  0.6707299999999999  0.46016  0.79075  1.0000
  C   C212      1.0  0.09510999999999994  0.44178000000000006  0.9943  1.0000
  O   O137      1.0  0.048109999999999986  0.13708999999999993  0.71279  1.0000
  O   O138      1.0  0.52755  0.42985  0.76005  1.0000
  O   O139      1.0  0.94504  0.020440000000000024  0.9993599999999999  1.0000
  O   O140      1.0  0.65937  0.51198  0.04732  1.0000
  O   O141      1.0  0.019190000000000002  0.08642  0.78057  1.0000
  O   O142      1.0  0.53351  0.12697000000000003  0.9638899999999999  1.0000
  O   O143      1.0  0.65517  0.50336  0.79121  1.0000
  O   O144      1.0  0.10737999999999995  0.48795999999999984  0.9834999999999999  1.0000
  O   O145      1.0  0.5689999999999998  0.42903999999999987  0.02237  1.0000
  O   O146      1.0  0.95881  0.12981000000000004  0.9868099999999999  1.0000
  O   O147      1.0  0.6417699999999998  0.4286499999999998  0.77087  1.0000
  O   O148      1.0  0.9509  0.06611000000000006  0.7350899999999998  1.0000
  C   C213      1.0  0.5971499999999996  0.1416  0.72772  1.0000
  O   O149      1.0  0.63471  0.08524999999999998  0.016229999999999994  1.0000
  O   O150      1.0  0.53625  0.47969999999999996  0.80574  1.0000
  O   O151      1.0  0.9980999999999995  0.013290000000000008  0.95738  1.0000
  O   O152      1.0  0.6208199999999998  0.10601  0.74959  1.0000
  C   C214      1.0  0.5158699999999999  0.43997999999999987  0.7919799999999999  1.0000
  O   O153      1.0  0.54526  0.025519999999999987  0.71429  1.0000
  C   C215      1.0  0.9550099999999999  0.0012600000000000285  0.9707199999999999  1.0000
  C   C216      1.0  0.67001  0.5581499999999998  0.03549  1.0000
  C   C217      1.0  0.69642  0.28790999999999994  0.8663899999999998  1.0000
  Ge  Ge65      1.0  0.6349799999999999  0.30110999999999977  0.88349  1.0000
  S   S97       1.0  0.08839999999999992  0.3436299999999999  0.83501  1.0000
  Ge  Ge66      1.0  0.023279999999999933  0.36300999999999994  0.8559699999999998  1.0000
  C   C218      1.0  0.9820999999999998  0.4039799999999999  0.81432  1.0000
  S   S98       1.0  0.9797899999999999  0.29655  0.87743  1.0000
  Ge  Ge67      1.0  0.024979999999999992  0.25131  0.92588  1.0000
  C   C219      1.0  0.97693  0.19264999999999996  0.93397  1.0000
  S   S99       1.0  0.09201  0.23453  0.9056  1.0000
  S   S100      1.0  0.050499999999999996  0.2956  0.97339  1.0000
  Ge  Ge68      1.0  0.5953  0.36234  0.9515199999999999  1.0000
  C   C220      1.0  0.62827  0.40559999999999996  0.98855  1.0000
  S   S101      1.0  0.66064  0.34276  0.9311  1.0000
  S   S102      1.0  0.04883  0.40494999999999987  0.90354  1.0000
  C   C221      1.0  0.6850999999999999  0.26899  0.82702  1.0000
  C   C222      1.0  0.6510899999999998  0.2213  0.8287799999999997  1.0000
  C   C223      1.0  0.65293  0.19407999999999997  0.79514  1.0000
  C   C224      1.0  0.6247599999999998  0.21797999999999992  0.7554899999999999  1.0000
  C   C225      1.0  0.6260999999999999  0.19001999999999988  0.72212  1.0000
  H   H289      1.0  0.72162  0.3219099999999999  0.8633699999999997  1.0000
  H   H290      1.0  0.71695  0.26192  0.88952  1.0000
  H   H291      1.0  0.9574399999999997  0.3811399999999999  0.7941499999999998  1.0000
  H   H292      1.0  0.9572499999999997  0.42271999999999976  0.82756  1.0000
  H   H293      1.0  0.94148  0.20449000000000006  0.9398099999999998  1.0000
  H   H294      1.0  0.9668899999999999  0.17996  0.90501  1.0000
  H   H295      1.0  0.6421299999999999  0.3837399999999999  0.017199999999999997  1.0000
  H   H296      1.0  0.6624  0.42494  0.97732  1.0000
  H   H297      1.0  0.6666599999999999  0.29628999999999994  0.8037799999999998  1.0000
  H   H298      1.0  0.72229  0.2639  0.8193899999999997  1.0000
  H   H299      1.0  0.16382999999999995  0.19786000000000004  0.85685  1.0000
  H   H300      1.0  0.6108800000000002  0.22785000000000002  0.82805  1.0000
  H   H301      1.0  0.6931699999999998  0.1906  0.7930799999999998  1.0000
  H   H302      1.0  0.6343699999999999  0.15744  0.80281  1.0000
  H   H303      1.0  0.6432499999999999  0.25472  0.74797  1.0000
  H   H304      1.0  0.5844  0.22116  0.75749  1.0000
  H   H305      1.0  0.6089500000000003  0.21062000000000003  0.69378  1.0000
  H   H306      1.0  0.66628  0.18606999999999999  0.72019  1.0000
  C   C226      1.0  0.78166  0.16380999999999996  0.87992  1.0000
  Ge  Ge69      1.0  0.8061399999999999  0.10684999999999999  0.86839  1.0000
  S   S103      1.0  0.8485499999999999  0.06779000000000002  0.9213799999999998  1.0000
  Ge  Ge70      1.0  0.8792099999999999  0.5081199999999998  0.90479  1.0000
  C   C227      1.0  0.9146899999999999  0.4695299999999999  0.9501899999999999  1.0000
  S   S104      1.0  0.81747  0.46089999999999987  0.87853  1.0000
  Ge  Ge71      1.0  0.77453  0.49916999999999995  0.8259  1.0000
  C   C228      1.0  0.72291  0.4470699999999999  0.81062  1.0000
  S   S105      1.0  0.7433399999999998  0.55957  0.84151  1.0000
  S   S106      1.0  0.82832  0.52639  0.78493  1.0000
  Ge  Ge72      1.0  0.8895099999999998  0.07539000000000004  0.8123399999999997  1.0000
  C   C229      1.0  0.93707  0.11273000000000001  0.78105  1.0000
  S   S107      1.0  0.8564  0.13430999999999998  0.82696  1.0000
  S   S108      1.0  0.93211  0.5357100000000001  0.8644399999999998  1.0000
  C   C230      1.0  0.7656999999999999  0.15536000000000005  0.9201099999999998  1.0000
  C   C231      1.0  0.7211199999999998  0.11623999999999995  0.92242  1.0000
  C   C232      1.0  0.70315  0.10906000000000003  0.9617299999999999  1.0000
  C   C233      1.0  0.73879  0.08004000000000003  0.9949299999999999  1.0000
  C   C234      1.0  0.72409  0.07803999999999998  0.0354  1.0000
  H   H307      1.0  0.81305  0.19317999999999996  0.8794  1.0000
  H   H308      1.0  0.7494599999999998  0.17499000000000003  0.8565399999999997  1.0000
  H   H309      1.0  0.8873199999999999  0.4527899999999999  0.9698199999999999  1.0000
  H   H310      1.0  0.93191  0.44089000000000006  0.94063  1.0000
  H   H311      1.0  0.7388799999999998  0.42801  0.7912399999999998  1.0000
  H   H312      1.0  0.7181999999999996  0.42127  0.8375599999999997  1.0000
  H   H313      1.0  0.91517  0.13445  0.75535  1.0000
  H   H314      1.0  0.9614599999999998  0.13803999999999997  0.79924  1.0000
  H   H315      1.0  0.7991799999999998  0.14593000000000003  0.9429799999999999  1.0000
  H   H316      1.0  0.75394  0.18950999999999993  0.9253799999999999  1.0000
  H   H317      1.0  0.68864  0.6267  0.8988299999999998  1.0000
  H   H318      1.0  0.73139  0.08124999999999999  0.91788  1.0000
  H   H319      1.0  0.69837  0.14427  0.96975  1.0000
  H   H320      1.0  0.66511  0.08852999999999996  0.9568100000000002  1.0000
  H   H321      1.0  0.7788  0.09633000000000001  0.9966  1.0000
  H   H322      1.0  0.73778  0.04289  0.9885  1.0000
  H   H323      1.0  0.7295499999999999  0.11458999999999998  0.04371999999999999  1.0000
  H   H324      1.0  0.74934  0.05510999999999999  0.05757  1.0000
  Yb  Yb37      1.0  0.9970500000000001  0.5758499999999999  0.35722  1.0000
  Yb  Yb38      1.0  0.5896299999999999  0.9716799999999998  0.06881  1.0000
  Yb  Yb39      1.0  0.58004  0.04228999999999999  0.10871  1.0000
  Yb  Yb40      1.0  0.06636999999999997  0.5515599999999998  0.32053  1.0000
  C   C235      1.0  0.9696899999999998  0.58289  0.10077  1.0000
  C   C236      1.0  0.4919199999999999  0.6493399999999998  0.2974299999999999  1.0000
  C   C237      1.0  0.6707299999999999  0.9601599999999998  0.12408  1.0000
  C   C238      1.0  0.09510999999999996  0.9417799999999997  0.32763  1.0000
  O   O154      1.0  0.04809999999999997  0.6370899999999998  0.04612  1.0000
  O   O155      1.0  0.5275499999999999  0.9298499999999997  0.09339  1.0000
  O   O156      1.0  0.9450400000000001  0.5204399999999999  0.3327  1.0000
  O   O157      1.0  0.65937  0.011980000000000005  0.38066  1.0000
  O   O158      1.0  0.019189999999999943  0.5864199999999998  0.11391  1.0000
  O   O159      1.0  0.53351  0.62697  0.29722  1.0000
  O   O160      1.0  0.65517  0.0033599999999999997  0.12453999999999998  1.0000
  O   O161      1.0  0.10737999999999998  0.98796  0.31683  1.0000
  O   O162      1.0  0.569  0.9290399999999998  0.3557  1.0000
  O   O163      1.0  0.95881  0.6298099999999998  0.32015  1.0000
  O   O164      1.0  0.6417699999999998  0.9286499999999998  0.10421  1.0000
  O   O165      1.0  0.9509  0.56611  0.06843  1.0000
  C   C239      1.0  0.5971499999999997  0.64159  0.06106  1.0000
  O   O166      1.0  0.63471  0.58525  0.34956  1.0000
  O   O167      1.0  0.53625  0.9796999999999998  0.13908  1.0000
  O   O168      1.0  0.9981  0.5132899999999998  0.2907099999999999  1.0000
  O   O169      1.0  0.6208199999999998  0.60601  0.08292  1.0000
  C   C240      1.0  0.51587  0.93998  0.12531999999999993  1.0000
  O   O170      1.0  0.54526  0.52552  0.047629999999999985  1.0000
  C   C241      1.0  0.95501  0.50126  0.30405  1.0000
  C   C242      1.0  0.67001  0.05815000000000001  0.36882  1.0000
  C   C243      1.0  0.69642  0.7879099999999998  0.19971999999999995  1.0000
  Ge  Ge73      1.0  0.6349799999999999  0.80111  0.21682  1.0000
  S   S109      1.0  0.08839999999999999  0.84363  0.16835  1.0000
  Ge  Ge74      1.0  0.023279999999999967  0.8630099999999999  0.18929999999999994  1.0000
  C   C244      1.0  0.9821  0.90398  0.14765  1.0000
  S   S110      1.0  0.9797899999999999  0.79655  0.21076  1.0000
  Ge  Ge75      1.0  0.024979999999999947  0.7513099999999998  0.2592099999999999  1.0000
  C   C245      1.0  0.97693  0.69265  0.26731  1.0000
  S   S111      1.0  0.09200999999999997  0.73453  0.23892999999999998  1.0000
  S   S112      1.0  0.05049999999999998  0.7955999999999998  0.30673  1.0000
  Ge  Ge76      1.0  0.5953  0.8623399999999998  0.28486  1.0000
  C   C246      1.0  0.62827  0.9055999999999997  0.32189  1.0000
  S   S113      1.0  0.6606399999999997  0.8427600000000001  0.26442999999999994  1.0000
  S   S114      1.0  0.04882999999999996  0.9049499999999998  0.23687  1.0000
  C   C247      1.0  0.6850999999999999  0.76899  0.16034999999999994  1.0000
  C   C248      1.0  0.6510899999999998  0.7212999999999998  0.16212  1.0000
  C   C249      1.0  0.65293  0.69408  0.12848  1.0000
  C   C250      1.0  0.62476  0.7179799999999997  0.08882  1.0000
  C   C251      1.0  0.6260999999999999  0.6900199999999997  0.05545  1.0000
  H   H325      1.0  0.72162  0.8219099999999999  0.1967  1.0000
  H   H326      1.0  0.71695  0.7619199999999998  0.22286  1.0000
  H   H327      1.0  0.9574399999999997  0.88114  0.12748  1.0000
  H   H328      1.0  0.95725  0.9227199999999999  0.16089  1.0000
  H   H329      1.0  0.94148  0.7044899999999998  0.27314  1.0000
  H   H330      1.0  0.9668899999999999  0.6799599999999998  0.23834  1.0000
  H   H331      1.0  0.64213  0.8837399999999997  0.35053  1.0000
  H   H332      1.0  0.6624  0.9249399999999998  0.31066  1.0000
  H   H333      1.0  0.66666  0.79629  0.13711  1.0000
  H   H334      1.0  0.72229  0.7639  0.15272  1.0000
  H   H335      1.0  0.16382999999999995  0.6978599999999999  0.19018  1.0000
  H   H336      1.0  0.6108799999999999  0.7278499999999999  0.16138  1.0000
  H   H337      1.0  0.6931699999999998  0.6906000000000001  0.12641  1.0000
  H   H338      1.0  0.6343699999999999  0.65744  0.13614  1.0000
  H   H339      1.0  0.6432499999999999  0.7547199999999997  0.0813  1.0000
  H   H340      1.0  0.5844  0.7211599999999998  0.09082999999999997  1.0000
  H   H341      1.0  0.60895  0.7106199999999999  0.02711  1.0000
  H   H342      1.0  0.66628  0.6860699999999997  0.053519999999999984  1.0000
  C   C252      1.0  0.78166  0.66381  0.21325  1.0000
  Ge  Ge77      1.0  0.8061399999999999  0.6068499999999998  0.20172  1.0000
  S   S115      1.0  0.84855  0.5677899999999998  0.25471  1.0000
  Ge  Ge78      1.0  0.87921  0.008120000000000002  0.23812  1.0000
  C   C253      1.0  0.9146899999999998  0.9695299999999998  0.2835299999999999  1.0000
  S   S116      1.0  0.81747  0.9609  0.21187  1.0000
  Ge  Ge79      1.0  0.77453  0.9991699999999999  0.15923  1.0000
  C   C254      1.0  0.7229099999999998  0.9470699999999997  0.14395  1.0000
  S   S117      1.0  0.7433399999999998  0.059570000000000005  0.17485  1.0000
  S   S118      1.0  0.82832  0.02638999999999999  0.11825999999999999  1.0000
  Ge  Ge80      1.0  0.8895099999999998  0.57539  0.14567  1.0000
  C   C255      1.0  0.93707  0.6127299999999998  0.11438  1.0000
  S   S119      1.0  0.8564  0.6343099999999999  0.16028999999999993  1.0000
  S   S120      1.0  0.93211  0.03570999999999998  0.19777  1.0000
  C   C256      1.0  0.7656999999999999  0.6553599999999998  0.25345  1.0000
  C   C257      1.0  0.7211199999999998  0.61624  0.25576  1.0000
  C   C258      1.0  0.70315  0.60906  0.29506  1.0000
  C   C259      1.0  0.73879  0.5800399999999998  0.32826  1.0000
  C   C260      1.0  0.72409  0.57804  0.36874  1.0000
  H   H343      1.0  0.81305  0.6931799999999999  0.21274  1.0000
  H   H344      1.0  0.7494599999999999  0.6749899999999998  0.18987  1.0000
  H   H345      1.0  0.88732  0.9527899999999998  0.30315  1.0000
  H   H346      1.0  0.93191  0.9408899999999998  0.27396  1.0000
  H   H347      1.0  0.7388799999999999  0.9280099999999998  0.12457  1.0000
  H   H348      1.0  0.7182  0.9212699999999999  0.17088999999999993  1.0000
  H   H349      1.0  0.91517  0.63445  0.08868999999999999  1.0000
  H   H350      1.0  0.9614599999999998  0.63804  0.13257  1.0000
  H   H351      1.0  0.7991799999999998  0.64593  0.27631  1.0000
  H   H352      1.0  0.75394  0.6895099999999997  0.25871  1.0000
  H   H353      1.0  0.68864  0.1267  0.23216  1.0000
  H   H354      1.0  0.73139  0.58125  0.25121  1.0000
  H   H355      1.0  0.69837  0.6442699999999999  0.30309  1.0000
  H   H356      1.0  0.66511  0.58853  0.29015  1.0000
  H   H357      1.0  0.7788  0.59633  0.32993  1.0000
  H   H358      1.0  0.7377799999999999  0.5428899999999998  0.32184  1.0000
  H   H359      1.0  0.7295499999999999  0.61459  0.37706  1.0000
  H   H360      1.0  0.74934  0.55511  0.39091  1.0000
  Yb  Yb41      1.0  0.99705  0.5758499999999999  0.69055  1.0000
  Yb  Yb42      1.0  0.5896299999999998  0.9716799999999998  0.40215  1.0000
  Yb  Yb43      1.0  0.58004  0.04228999999999997  0.44204  1.0000
  Yb  Yb44      1.0  0.06636999999999998  0.55156  0.65386  1.0000
  C   C261      1.0  0.9696899999999998  0.58289  0.4341  1.0000
  C   C262      1.0  0.49191999999999986  0.6493399999999998  0.6307599999999998  1.0000
  C   C263      1.0  0.6707299999999999  0.9601599999999998  0.45741  1.0000
  C   C264      1.0  0.09510999999999993  0.9417800000000001  0.6609699999999997  1.0000
  O   O171      1.0  0.04809999999999997  0.6370899999999998  0.37946  1.0000
  O   O172      1.0  0.5275499999999999  0.9298499999999997  0.42672  1.0000
  O   O173      1.0  0.94504  0.5204399999999999  0.66603  1.0000
  O   O174      1.0  0.65937  0.011980000000000036  0.7139899999999998  1.0000
  O   O175      1.0  0.01918999999999996  0.5864199999999998  0.44724  1.0000
  O   O176      1.0  0.53351  0.62697  0.63055  1.0000
  O   O177      1.0  0.65517  0.0033600000000000075  0.45787  1.0000
  O   O178      1.0  0.10737999999999999  0.98796  0.65016  1.0000
  O   O179      1.0  0.569  0.9290399999999998  0.68904  1.0000
  O   O180      1.0  0.95881  0.6298099999999998  0.65348  1.0000
  O   O181      1.0  0.6417699999999998  0.9286499999999998  0.4375399999999999  1.0000
  O   O182      1.0  0.9509  0.5661099999999999  0.4017599999999999  1.0000
  C   C265      1.0  0.5971499999999997  0.64159  0.39439  1.0000
  O   O183      1.0  0.63471  0.58525  0.68289  1.0000
  O   O184      1.0  0.53625  0.9796999999999998  0.47241  1.0000
  O   O185      1.0  0.9981  0.5132899999999998  0.62405  1.0000
  O   O186      1.0  0.6208199999999998  0.60601  0.41624999999999995  1.0000
  C   C266      1.0  0.51587  0.93998  0.45865  1.0000
  O   O187      1.0  0.54526  0.52552  0.38096  1.0000
  C   C267      1.0  0.9550099999999999  0.50126  0.63738  1.0000
  C   C268      1.0  0.67001  0.058150000000000014  0.70215  1.0000
  C   C269      1.0  0.69642  0.7879099999999997  0.53305  1.0000
  Ge  Ge81      1.0  0.6349799999999999  0.80111  0.55015  1.0000
  S   S121      1.0  0.0884  0.84363  0.50168  1.0000
  Ge  Ge82      1.0  0.02327999999999998  0.86301  0.52263  1.0000
  C   C270      1.0  0.9820999999999999  0.90398  0.48099  1.0000
  S   S122      1.0  0.9797899999999999  0.79655  0.5441  1.0000
  Ge  Ge83      1.0  0.024979999999999912  0.7513099999999998  0.5925399999999997  1.0000
  C   C271      1.0  0.9769299999999997  0.69265  0.6006399999999997  1.0000
  S   S123      1.0  0.09200999999999993  0.73453  0.5722699999999997  1.0000
  S   S124      1.0  0.050499999999999934  0.7955999999999998  0.64006  1.0000
  Ge  Ge84      1.0  0.5952999999999998  0.8623399999999998  0.61819  1.0000
  C   C272      1.0  0.62827  0.9055999999999997  0.65522  1.0000
  S   S125      1.0  0.66064  0.8427599999999997  0.59776  1.0000
  S   S126      1.0  0.04882999999999996  0.9049499999999998  0.5702  1.0000
  C   C273      1.0  0.6850999999999999  0.76899  0.49368999999999996  1.0000
  C   C274      1.0  0.6510899999999998  0.7212999999999998  0.49545  1.0000
  C   C275      1.0  0.65293  0.69408  0.46181  1.0000
  C   C276      1.0  0.62476  0.7179799999999997  0.4221499999999999  1.0000
  C   C277      1.0  0.6260999999999998  0.6900199999999999  0.3887899999999999  1.0000
  H   H361      1.0  0.72162  0.8219099999999999  0.53004  1.0000
  H   H362      1.0  0.71695  0.7619199999999998  0.55619  1.0000
  H   H363      1.0  0.9574399999999997  0.88114  0.4608099999999999  1.0000
  H   H364      1.0  0.95725  0.9227199999999999  0.49422  1.0000
  H   H365      1.0  0.94148  0.7044899999999998  0.60648  1.0000
  H   H366      1.0  0.9668899999999999  0.6799599999999998  0.57167  1.0000
  H   H367      1.0  0.64213  0.8837399999999997  0.68386  1.0000
  H   H368      1.0  0.6623999999999999  0.9249399999999998  0.64399  1.0000
  H   H369      1.0  0.66666  0.79629  0.47045  1.0000
  H   H370      1.0  0.72229  0.7639  0.48606  1.0000
  H   H371      1.0  0.16382999999999995  0.6978599999999999  0.52351  1.0000
  H   H372      1.0  0.6108799999999996  0.72785  0.49471999999999994  1.0000
  H   H373      1.0  0.6931699999999998  0.6906  0.45974  1.0000
  H   H374      1.0  0.6343699999999999  0.65744  0.46947  1.0000
  H   H375      1.0  0.6432499999999998  0.7547199999999997  0.41462999999999994  1.0000
  H   H376      1.0  0.5844  0.7211599999999998  0.42416  1.0000
  H   H377      1.0  0.60895  0.7106199999999999  0.36045  1.0000
  H   H378      1.0  0.66628  0.6860699999999997  0.38685  1.0000
  C   C278      1.0  0.7816600000000001  0.6638100000000001  0.54658  1.0000
  Ge  Ge85      1.0  0.8061399999999999  0.6068499999999998  0.53505  1.0000
  S   S127      1.0  0.84855  0.5677899999999998  0.58805  1.0000
  Ge  Ge86      1.0  0.87921  0.008120000000000002  0.57145  1.0000
  C   C279      1.0  0.9146899999999997  0.9695299999999998  0.6168599999999997  1.0000
  S   S128      1.0  0.81747  0.9609  0.5452  1.0000
  Ge  Ge87      1.0  0.77453  0.9991699999999999  0.49255999999999994  1.0000
  C   C280      1.0  0.7229099999999998  0.9470699999999997  0.47728  1.0000
  S   S129      1.0  0.7433399999999998  0.059569999999999984  0.50818  1.0000
  S   S130      1.0  0.82832  0.026390000000000004  0.45159  1.0000
  Ge  Ge88      1.0  0.8895099999999998  0.57539  0.47901  1.0000
  C   C281      1.0  0.93707  0.6127299999999998  0.4477199999999999  1.0000
  S   S131      1.0  0.8563999999999999  0.6343099999999999  0.49363  1.0000
  S   S132      1.0  0.93211  0.03570999999999998  0.5311  1.0000
  C   C282      1.0  0.7656999999999999  0.6553599999999998  0.58678  1.0000
  C   C283      1.0  0.7211199999999998  0.61624  0.58909  1.0000
  C   C284      1.0  0.70315  0.60906  0.6284  1.0000
  C   C285      1.0  0.73879  0.5800399999999998  0.6616  1.0000
  C   C286      1.0  0.72409  0.57804  0.70207  1.0000
  H   H379      1.0  0.81305  0.69318  0.54607  1.0000
  H   H380      1.0  0.7494599999999998  0.6749899999999998  0.52321  1.0000
  H   H381      1.0  0.8873199999999999  0.9527899999999998  0.63648  1.0000
  H   H382      1.0  0.93191  0.9408899999999998  0.60729  1.0000
  H   H383      1.0  0.7388799999999999  0.9280099999999998  0.4579099999999999  1.0000
  H   H384      1.0  0.7181999999999997  0.9212699999999998  0.50423  1.0000
  H   H385      1.0  0.91517  0.6344500000000001  0.4220199999999999  1.0000
  H   H386      1.0  0.9614599999999998  0.63804  0.46589999999999987  1.0000
  H   H387      1.0  0.7991799999999998  0.64593  0.60965  1.0000
  H   H388      1.0  0.75394  0.6895099999999997  0.59204  1.0000
  H   H389      1.0  0.68864  0.1267  0.5655  1.0000
  H   H390      1.0  0.73139  0.58125  0.58454  1.0000
  H   H391      1.0  0.69837  0.6442699999999999  0.63642  1.0000
  H   H392      1.0  0.66511  0.58853  0.62348  1.0000
  H   H393      1.0  0.7788  0.59633  0.66327  1.0000
  H   H394      1.0  0.7377799999999998  0.54289  0.6551699999999998  1.0000
  H   H395      1.0  0.7295499999999999  0.61459  0.71039  1.0000
  H   H396      1.0  0.7493399999999999  0.5551099999999998  0.72424  1.0000
  Yb  Yb45      1.0  0.99705  0.5758499999999999  0.02389  1.0000
  Yb  Yb46      1.0  0.5896299999999999  0.9716799999999998  0.73548  1.0000
  Yb  Yb47      1.0  0.5800399999999999  0.04228999999999997  0.77538  1.0000
  Yb  Yb48      1.0  0.06636999999999996  0.55156  0.9871999999999999  1.0000
  C   C287      1.0  0.9696899999999998  0.58289  0.76743  1.0000
  C   C288      1.0  0.4919199999999999  0.6493399999999999  0.96409  1.0000
  C   C289      1.0  0.6707299999999997  0.9601599999999998  0.79075  1.0000
  C   C290      1.0  0.09510999999999994  0.9417799999999997  0.9943  1.0000
  O   O188      1.0  0.048099999999999955  0.6370899999999998  0.71279  1.0000
  O   O189      1.0  0.5275499999999999  0.9298499999999997  0.76005  1.0000
  O   O190      1.0  0.94504  0.52044  0.9993599999999999  1.0000
  O   O191      1.0  0.65937  0.011979999999999998  0.04732  1.0000
  O   O192      1.0  0.019189999999999974  0.5864199999999998  0.78057  1.0000
  O   O193      1.0  0.53351  0.62697  0.9638899999999999  1.0000
  O   O194      1.0  0.65517  0.003359999999999992  0.79121  1.0000
  O   O195      1.0  0.10738000000000004  0.9879600000000001  0.9834999999999999  1.0000
  O   O196      1.0  0.569  0.9290399999999998  0.02237  1.0000
  O   O197      1.0  0.95881  0.6298099999999998  0.9868099999999999  1.0000
  O   O198      1.0  0.6417699999999998  0.9286499999999998  0.77087  1.0000
  O   O199      1.0  0.9509  0.56611  0.7350899999999998  1.0000
  C   C291      1.0  0.5971499999999997  0.64159  0.72772  1.0000
  O   O200      1.0  0.63471  0.58525  0.016229999999999994  1.0000
  O   O201      1.0  0.53625  0.9796999999999998  0.80574  1.0000
  O   O202      1.0  0.9981  0.5132899999999998  0.95738  1.0000
  O   O203      1.0  0.6208199999999998  0.60601  0.74959  1.0000
  C   C292      1.0  0.5158699999999999  0.93998  0.7919799999999999  1.0000
  O   O204      1.0  0.54526  0.52552  0.71429  1.0000
  C   C293      1.0  0.9550099999999999  0.50126  0.9707199999999999  1.0000
  C   C294      1.0  0.67001  0.05815  0.03549  1.0000
  C   C295      1.0  0.69642  0.7879099999999998  0.8663899999999998  1.0000
  Ge  Ge89      1.0  0.6349799999999999  0.80111  0.88349  1.0000
  S   S133      1.0  0.08839999999999994  0.84363  0.83501  1.0000
  Ge  Ge90      1.0  0.023279999999999933  0.8630099999999999  0.8559699999999998  1.0000
  C   C296      1.0  0.9820999999999999  0.90398  0.81432  1.0000
  S   S134      1.0  0.9797899999999999  0.79655  0.87743  1.0000
  Ge  Ge91      1.0  0.024980000000000013  0.7513099999999998  0.92588  1.0000
  C   C297      1.0  0.97693  0.6926500000000001  0.93397  1.0000
  S   S135      1.0  0.09201  0.73453  0.9056  1.0000
  S   S136      1.0  0.05049999999999996  0.7955999999999998  0.97339  1.0000
  Ge  Ge92      1.0  0.5952999999999999  0.8623399999999998  0.9515199999999999  1.0000
  C   C298      1.0  0.62827  0.9055999999999996  0.98855  1.0000
  S   S137      1.0  0.66064  0.8427599999999996  0.9311  1.0000
  S   S138      1.0  0.04882999999999996  0.9049499999999998  0.90354  1.0000
  C   C299      1.0  0.6850999999999999  0.76899  0.82702  1.0000
  C   C300      1.0  0.6510899999999998  0.7212999999999998  0.8287799999999997  1.0000
  C   C301      1.0  0.65293  0.69408  0.79514  1.0000
  C   C302      1.0  0.62476  0.7179799999999997  0.7554899999999999  1.0000
  C   C303      1.0  0.6260999999999999  0.6900199999999997  0.72212  1.0000
  H   H397      1.0  0.72162  0.8219099999999999  0.8633699999999997  1.0000
  H   H398      1.0  0.71695  0.7619199999999998  0.88952  1.0000
  H   H399      1.0  0.9574399999999997  0.88114  0.7941499999999998  1.0000
  H   H400      1.0  0.95725  0.9227199999999999  0.82756  1.0000
  H   H401      1.0  0.94148  0.7044899999999998  0.9398099999999998  1.0000
  H   H402      1.0  0.96689  0.6799599999999998  0.90501  1.0000
  H   H403      1.0  0.6421299999999999  0.8837399999999997  0.017199999999999997  1.0000
  H   H404      1.0  0.6624  0.9249399999999998  0.97732  1.0000
  H   H405      1.0  0.6666599999999999  0.79629  0.8037799999999998  1.0000
  H   H406      1.0  0.72229  0.7639  0.8193899999999997  1.0000
  H   H407      1.0  0.16382999999999995  0.69786  0.85685  1.0000
  H   H408      1.0  0.6108799999999999  0.7278499999999999  0.82805  1.0000
  H   H409      1.0  0.6931699999999998  0.6906  0.7930799999999998  1.0000
  H   H410      1.0  0.6343699999999999  0.65744  0.80281  1.0000
  H   H411      1.0  0.6432499999999999  0.7547199999999997  0.74797  1.0000
  H   H412      1.0  0.5844  0.7211599999999998  0.75749  1.0000
  H   H413      1.0  0.60895  0.7106199999999999  0.69378  1.0000
  H   H414      1.0  0.6662799999999998  0.6860699999999997  0.72019  1.0000
  C   C304      1.0  0.78166  0.66381  0.87992  1.0000
  Ge  Ge93      1.0  0.8061399999999999  0.6068499999999998  0.86839  1.0000
  S   S139      1.0  0.84855  0.5677899999999999  0.9213799999999998  1.0000
  Ge  Ge94      1.0  0.87921  0.008120000000000002  0.90479  1.0000
  C   C305      1.0  0.9146899999999998  0.9695299999999999  0.9501899999999999  1.0000
  S   S140      1.0  0.81747  0.9609  0.87853  1.0000
  Ge  Ge95      1.0  0.77453  0.9991699999999998  0.8259  1.0000
  C   C306      1.0  0.7229099999999998  0.9470699999999997  0.81062  1.0000
  S   S141      1.0  0.7433399999999998  0.059570000000000005  0.84151  1.0000
  S   S142      1.0  0.82832  0.02638999999999999  0.78493  1.0000
  Ge  Ge96      1.0  0.8895099999999998  0.5753900000000001  0.8123399999999997  1.0000
  C   C307      1.0  0.93707  0.6127299999999998  0.78105  1.0000
  S   S143      1.0  0.8564  0.6343099999999999  0.82696  1.0000
  S   S144      1.0  0.9321099999999999  0.03571000000000004  0.8644399999999998  1.0000
  C   C308      1.0  0.7656999999999999  0.6553599999999999  0.9201099999999998  1.0000
  C   C309      1.0  0.7211199999999998  0.61624  0.92242  1.0000
  C   C310      1.0  0.70315  0.60906  0.9617299999999999  1.0000
  C   C311      1.0  0.7387899999999998  0.5800399999999998  0.9949299999999999  1.0000
  C   C312      1.0  0.72409  0.57804  0.0354  1.0000
  H   H415      1.0  0.81305  0.69318  0.8794  1.0000
  H   H416      1.0  0.7494599999999998  0.6749899999999998  0.8565399999999997  1.0000
  H   H417      1.0  0.8873199999999999  0.9527899999999998  0.9698199999999999  1.0000
  H   H418      1.0  0.93191  0.9408899999999999  0.94063  1.0000
  H   H419      1.0  0.7388799999999998  0.9280099999999998  0.7912399999999998  1.0000
  H   H420      1.0  0.7181999999999997  0.9212699999999998  0.8375599999999997  1.0000
  H   H421      1.0  0.91517  0.63445  0.75535  1.0000
  H   H422      1.0  0.9614599999999998  0.63804  0.79924  1.0000
  H   H423      1.0  0.7991799999999998  0.64593  0.9429799999999999  1.0000
  H   H424      1.0  0.75394  0.6895100000000001  0.9253799999999999  1.0000
  H   H425      1.0  0.6886399999999999  0.12670000000000006  0.8988299999999998  1.0000
  H   H426      1.0  0.73139  0.58125  0.91788  1.0000
  H   H427      1.0  0.69837  0.6442699999999999  0.96975  1.0000
  H   H428      1.0  0.66511  0.58853  0.9568100000000002  1.0000
  H   H429      1.0  0.7788  0.59633  0.9966  1.0000
  H   H430      1.0  0.7377799999999999  0.5428899999999998  0.9885  1.0000
  H   H431      1.0  0.7295499999999999  0.61459  0.04371999999999999  1.0000
  H   H432      1.0  0.74934  0.55511  0.05757  1.0000
