data_image0
_chemical_formula_structural       CMnO3MnOMnO3CHO2HOHOH3C4HCHCHCH3C2N5C3N5OC8OC7NC6NC2H18C6OC7NC6NC2H18CMnO3MnOMnO3CHO2HOHOH3C4HCHCHCH3C2N5C3N5OC8OC7NC6NC2H18C6OC7NC6NC2H18CMnO3MnOMnO3CHO2HOHOH3C4HCHCHCH3C2N5C3N5OC8OC7NC6NC2H18C6OC7NC6NC2H18CMnO3MnOMnO3CHO2HOHOH3C4HCHCHCH3C2N5C3N5OC8OC7NC6NC2H18C6OC7NC6NC2H18CMnO3MnOMnO3CHO2HOHOH3C4HCHCHCH3C2N5C3N5OC8OC7NC6NC2H18C6OC7NC6NC2H18CMnO3MnOMnO3CHO2HOHOH3C4HCHCHCH3C2N5C3N5OC8OC7NC6NC2H18C6OC7NC6NC2H18CMnO3MnOMnO3CHO2HOHOH3C4HCHCHCH3C2N5C3N5OC8OC7NC6NC2H18C6OC7NC6NC2H18CMnO3MnOMnO3CHO2HOHOH3C4HCHCHCH3C2N5C3N5OC8OC7NC6NC2H18C6OC7NC6NC2H18
_chemical_formula_sum              "C464 Mn24 O112 H384 N112"
_cell_length_a       33.1081
_cell_length_b       31.9271
_cell_length_c       24.326599999999996
_cell_angle_alpha    93.925
_cell_angle_beta     61.175999999999995
_cell_angle_gamma    90.795

_space_group_name_H-M_alt    "P 1"
_space_group_IT_number       1

loop_
  _space_group_symop_operation_xyz
  'x, y, z'

loop_
  _atom_site_type_symbol
  _atom_site_label
  _atom_site_symmetry_multiplicity
  _atom_site_fract_x
  _atom_site_fract_y
  _atom_site_fract_z
  _atom_site_occupancy
  C   C1        1.0  0.10844  0.24058999999999994  0.45410000000000006  1.0000
  Mn  Mn1       1.0  0.07018000000000002  0.1543  0.49665  1.0000
  O   O1        1.0  0.11675  0.1872  0.14524  1.0000
  O   O2        1.0  0.16825  0.15659  0.51581  1.0000
  O   O3        1.0  0.07189999999999998  0.16654  0.57469  1.0000
  Mn  Mn2       1.0  0.11486000000000002  0.13829  0.09349  1.0000
  O   O4        1.0  0.59698  0.22749  0.5709500000000001  1.0000
  Mn  Mn3       1.0  0.14009  0.59444  0.19436  1.0000
  O   O5        1.0  0.11159999999999999  0.15087999999999988  0.22918  1.0000
  O   O6        1.0  0.58193  0.571  0.2059  1.0000
  O   O7        1.0  0.5582099999999999  0.6225  0.16725000000000004  1.0000
  C   C2        1.0  0.17252  0.15536  0.45872000000000007  1.0000
  H   H1        1.0  0.39577999999999997  0.66395  0.66296  1.0000
  O   O8        1.0  0.11489000000000003  0.5854099999999998  0.5487  1.0000
  O   O9        1.0  0.06694000000000001  0.59421  0.50653  1.0000
  H   H2        1.0  0.48044  0.68767  0.63559  1.0000
  O   O10       1.0  0.15814  0.6093599999999998  0.11061  1.0000
  H   H3        1.0  0.48781  0.11847  0.47772  1.0000
  O   O11       1.0  0.22804  0.61719  0.04985  1.0000
  H   H4        1.0  0.02093000000000002  0.20715  0.44682  1.0000
  H   H5        1.0  0.13245  0.28664  0.38326  1.0000
  H   H6        1.0  0.13950999999999997  0.23566  0.4571200000000001  1.0000
  C   C3        1.0  0.10893  0.18591  0.20399  1.0000
  C   C4        1.0  0.27034  0.11298  0.18091  1.0000
  C   C5        1.0  0.24336999999999998  0.09962  0.15458  1.0000
  C   C6        1.0  0.20092000000000007  0.63493  0.2413  1.0000
  H   H7        1.0  0.30596  0.10416  0.16295000000000004  1.0000
  C   C7        1.0  0.16488  0.5050299999999998  0.19479999999999997  1.0000
  H   H8        1.0  0.16958  0.6455  0.28297  1.0000
  C   C8        1.0  0.68492  0.51921  0.10026000000000002  1.0000
  H   H9        1.0  0.25413  0.07760999999999997  0.11398  1.0000
  C   C9        1.0  0.69056  0.4765599999999999  0.10092  1.0000
  H   H10       1.0  0.14847  0.50829  0.24568  1.0000
  H   H11       1.0  0.6994  0.4532499999999999  0.06216  1.0000
  H   H12       1.0  0.68884  0.5354399999999998  0.06046  1.0000
  C   C10       1.0  0.54931  0.59047  0.2015  1.0000
  C   C11       1.0  0.09118  0.57035  0.52199  1.0000
  N   N1        1.0  0.42945  0.13653999999999994  0.5676  1.0000
  N   N2        1.0  0.50027  0.15641  0.54405  1.0000
  N   N3        1.0  0.07174999999999997  0.21523  0.47619000000000006  1.0000
  N   N4        1.0  0.06695  0.25786  0.40997  1.0000
  N   N5        1.0  0.5662  0.20353  0.59309  1.0000
  C   C12       1.0  0.42682999999999993  0.65868  0.61824  1.0000
  C   C13       1.0  0.47082  0.67105  0.60362  1.0000
  C   C14       1.0  0.47408  0.13564  0.52318  1.0000
  N   N6        1.0  0.19988999999999998  0.11425999999999997  0.19204  1.0000
  N   N7        1.0  0.66873  0.5367599999999998  0.15934  1.0000
  N   N8        1.0  0.24352  0.6345799999999998  0.23642000000000002  1.0000
  N   N9        1.0  0.67829  0.46811999999999987  0.16031000000000004  1.0000
  N   N10       1.0  0.1925  0.6303699999999998  0.09277  1.0000
  O   O12       1.0  0.13735999999999998  0.15049  0.44736000000000004  1.0000
  C   C15       1.0  0.047079999999999976  0.22689999999999994  0.4489000000000001  1.0000
  C   C16       1.0  0.10482999999999996  0.2674699999999999  0.4149300000000001  1.0000
  C   C17       1.0  0.18072999999999997  0.37525999999999987  0.24224  1.0000
  C   C18       1.0  0.19654  0.40796  0.20159000000000002  1.0000
  C   C19       1.0  0.16659  0.4282499999999999  0.18624000000000002  1.0000
  C   C20       1.0  0.12162999999999997  0.41408  0.20759000000000002  1.0000
  C   C21       1.0  0.10527999999999998  0.3809499999999999  0.24732000000000004  1.0000
  C   C22       1.0  0.05467999999999999  0.36999  0.27692  1.0000
  O   O13       1.0  0.04710000000000001  0.33088  0.25234  1.0000
  C   C23       1.0  0.05927  0.2960699999999999  0.27313  1.0000
  C   C24       1.0  0.07848999999999999  0.26098  0.22988  1.0000
  C   C25       1.0  0.09205  0.22453999999999993  0.24673  1.0000
  C   C26       1.0  0.08740000000000002  0.22424999999999995  0.30697  1.0000
  C   C27       1.0  0.06719  0.25829  0.35111  1.0000
  C   C28       1.0  0.05100999999999999  0.2932  0.3356  1.0000
  C   C29       1.0  0.13513  0.36199  0.26478  1.0000
  N   N11       1.0  0.20940999999999999  0.35802  0.26541  1.0000
  C   C30       1.0  0.22507  0.3899499999999999  0.29735  1.0000
  C   C31       1.0  0.18663  0.42025  0.34237  1.0000
  C   C32       1.0  0.18779  0.46261  0.32942  1.0000
  C   C33       1.0  0.15156  0.49025999999999986  0.36929  1.0000
  C   C34       1.0  0.11342999999999999  0.4760399999999999  0.42263  1.0000
  C   C35       1.0  0.07684999999999997  0.5070599999999997  0.46836000000000005  1.0000
  N   N12       1.0  0.09308999999999999  0.52818  0.5092  1.0000
  C   C36       1.0  0.11239  0.43378  0.43599  1.0000
  C   C37       1.0  0.14862999999999998  0.4060399999999999  0.39597000000000004  1.0000
  H   H13       1.0  0.23096  0.41975  0.18563  1.0000
  H   H14       1.0  0.59853  0.43101  0.19661999999999996  1.0000
  H   H15       1.0  0.035949999999999996  0.39398  0.26627  1.0000
  H   H16       1.0  0.03792  0.37363  0.32888  1.0000
  H   H17       1.0  0.08259999999999999  0.26239  0.18315000000000003  1.0000
  H   H18       1.0  0.09953  0.19745  0.32041  1.0000
  H   H19       1.0  0.03379  0.31791999999999987  0.37208  1.0000
  H   H20       1.0  0.12269999999999999  0.33859  0.29877000000000004  1.0000
  H   H21       1.0  0.19323  0.33369  0.29482  1.0000
  H   H22       1.0  0.25463  0.40683999999999987  0.26148  1.0000
  H   H23       1.0  0.2383  0.37357  0.32457  1.0000
  H   H24       1.0  0.21666000000000002  0.47427  0.28823  1.0000
  H   H25       1.0  0.15346  0.52293  0.35889  1.0000
  H   H26       1.0  0.04451999999999997  0.49051  0.49787000000000003  1.0000
  H   H27       1.0  0.06891999999999997  0.52979  0.44204000000000004  1.0000
  H   H28       1.0  0.11009999999999998  0.5097699999999997  0.52608  1.0000
  H   H29       1.0  0.08373999999999997  0.42238  0.47766  1.0000
  H   H30       1.0  0.14704000000000003  0.37348  0.40668  1.0000
  C   C38       1.0  0.44603  0.5215899999999998  0.28824  1.0000
  C   C39       1.0  0.49157999999999996  0.5354499999999998  0.2556  1.0000
  C   C40       1.0  0.5008  0.57678  0.23733  1.0000
  C   C41       1.0  0.46346999999999994  0.10453999999999997  0.25246  1.0000
  C   C42       1.0  0.4174400000000002  0.59144  0.28583  1.0000
  C   C43       1.0  0.37813  0.62163  0.29874  1.0000
  O   O14       1.0  0.33449  0.60586  0.34161  1.0000
  C   C44       1.0  0.29792  0.62668  0.34106  1.0000
  C   C45       1.0  0.29359  0.6264099999999998  0.28596  1.0000
  C   C46       1.0  0.25379  0.64331  0.28767  1.0000
  C   C47       1.0  0.21967999999999996  0.16214999999999993  0.34476  1.0000
  C   C48       1.0  0.21882  0.15517  0.40151  1.0000
  C   C49       1.0  0.2591  0.13912  0.39914  1.0000
  C   C50       1.0  0.4092999999999999  0.5495999999999998  0.30248  1.0000
  N   N13       1.0  0.43695  0.47821  0.30325  1.0000
  C   C51       1.0  0.45690000000000003  0.4639999999999999  0.34155  1.0000
  C   C52       1.0  0.44176  0.4911799999999999  0.40201000000000003  1.0000
  C   C53       1.0  0.47476  0.50703  0.41812000000000005  1.0000
  C   C54       1.0  0.46105  0.5314399999999998  0.4744  1.0000
  C   C55       1.0  0.41420999999999997  0.54059  0.51538  1.0000
  C   C56       1.0  0.3994900000000001  0.5681299999999998  0.57517  1.0000
  N   N14       1.0  0.39392  0.61253  0.56619  1.0000
  C   C57       1.0  0.38115999999999994  0.5249399999999997  0.49928  1.0000
  C   C58       1.0  0.39476  0.4999999999999999  0.44345  1.0000
  H   H31       1.0  0.51996  0.5135599999999998  0.24259  1.0000
  H   H32       1.0  0.47008000000000005  0.13646999999999995  0.23824  1.0000
  H   H33       1.0  0.38128  0.12681999999999993  0.25225  1.0000
  H   H34       1.0  0.38335  0.65212  0.31925  1.0000
  H   H35       1.0  0.31976  0.61034  0.24327  1.0000
  H   H36       1.0  0.19018  0.17746  0.34636  1.0000
  H   H37       1.0  0.25982  0.13385999999999995  0.44187  1.0000
  H   H38       1.0  0.37437  0.5383699999999998  0.32632  1.0000
  H   H39       1.0  0.40186000000000005  0.4714  0.32344  1.0000
  H   H40       1.0  0.4950800000000001  0.4618099999999999  0.31306  1.0000
  H   H41       1.0  0.44517999999999996  0.43156  0.35425  1.0000
  H   H42       1.0  0.51118  0.50039  0.3872900000000001  1.0000
  H   H43       1.0  0.48695000000000016  0.54315  0.48614  1.0000
  H   H44       1.0  0.42419  0.5641799999999998  0.59344  1.0000
  H   H45       1.0  0.36608  0.5570499999999998  0.61214  1.0000
  H   H46       1.0  0.39302  0.61692  0.52451  1.0000
  H   H47       1.0  0.34480999999999995  0.5318699999999997  0.53017  1.0000
  H   H48       1.0  0.3685399999999999  0.4877199999999999  0.43268  1.0000
  C   C59       1.0  0.10843999999999997  0.24058999999999994  0.9541  1.0000
  Mn  Mn4       1.0  0.07018000000000002  0.1543  0.99666  1.0000
  O   O15       1.0  0.11674999999999998  0.1872  0.64524  1.0000
  O   O16       1.0  0.16825  0.15659  0.01581  1.0000
  O   O17       1.0  0.0719  0.16653  0.07469  1.0000
  Mn  Mn5       1.0  0.11486000000000002  0.13829  0.59349  1.0000
  O   O18       1.0  0.59697  0.22749  0.07095  1.0000
  Mn  Mn6       1.0  0.14009  0.59444  0.69436  1.0000
  O   O19       1.0  0.11160000000000002  0.15087999999999993  0.72918  1.0000
  O   O20       1.0  0.5819299999999998  0.571  0.7059  1.0000
  O   O21       1.0  0.55821  0.6225  0.66725  1.0000
  C   C60       1.0  0.17252  0.15536  0.95872  1.0000
  H   H49       1.0  0.39578  0.66395  0.16296  1.0000
  O   O22       1.0  0.11489000000000002  0.5854099999999998  0.04869999999999999  1.0000
  O   O23       1.0  0.06693999999999999  0.59421  0.00654  1.0000
  H   H50       1.0  0.48044  0.68767  0.13559  1.0000
  O   O24       1.0  0.15813999999999998  0.6093599999999998  0.61061  1.0000
  H   H51       1.0  0.48781  0.11847  0.97772  1.0000
  O   O25       1.0  0.22804  0.61719  0.54985  1.0000
  H   H52       1.0  0.02093000000000002  0.20715  0.94682  1.0000
  H   H53       1.0  0.13245  0.28664  0.88326  1.0000
  H   H54       1.0  0.13951000000000002  0.23564999999999994  0.95712  1.0000
  C   C61       1.0  0.10892999999999997  0.18589999999999998  0.70399  1.0000
  C   C62       1.0  0.27033  0.11298  0.68091  1.0000
  C   C63       1.0  0.24336999999999998  0.09962  0.65458  1.0000
  C   C64       1.0  0.20092000000000007  0.63493  0.7413  1.0000
  H   H55       1.0  0.30596000000000007  0.10416  0.66295  1.0000
  C   C65       1.0  0.16487999999999997  0.5050299999999998  0.6948  1.0000
  H   H56       1.0  0.16958  0.6455  0.78297  1.0000
  C   C66       1.0  0.68492  0.51921  0.60026  1.0000
  H   H57       1.0  0.25413  0.07759999999999997  0.61398  1.0000
  C   C67       1.0  0.69056  0.4765599999999999  0.60092  1.0000
  H   H58       1.0  0.14847  0.50829  0.74568  1.0000
  H   H59       1.0  0.69939  0.4532499999999999  0.56216  1.0000
  H   H60       1.0  0.68883  0.5354399999999998  0.56046  1.0000
  C   C68       1.0  0.54931  0.5904700000000002  0.7015  1.0000
  C   C69       1.0  0.09118  0.57035  0.02199  1.0000
  N   N15       1.0  0.42945  0.13653999999999994  0.0676  1.0000
  N   N16       1.0  0.50027  0.15641  0.04405  1.0000
  N   N17       1.0  0.07174999999999991  0.21523  0.9761900000000002  1.0000
  N   N18       1.0  0.06695000000000002  0.25786  0.90997  1.0000
  N   N19       1.0  0.5662  0.20352999999999993  0.09309  1.0000
  C   C70       1.0  0.42683  0.65868  0.11824  1.0000
  C   C71       1.0  0.47082  0.67105  0.10362000000000002  1.0000
  C   C72       1.0  0.47408  0.13564  0.02318  1.0000
  N   N20       1.0  0.19989000000000004  0.11424999999999998  0.69204  1.0000
  N   N21       1.0  0.66873  0.5367599999999998  0.65934  1.0000
  N   N22       1.0  0.24351999999999993  0.6345799999999998  0.73642  1.0000
  N   N23       1.0  0.6782900000000001  0.46811999999999987  0.66031  1.0000
  N   N24       1.0  0.1925  0.6303599999999998  0.59277  1.0000
  O   O26       1.0  0.13736  0.15048  0.94736  1.0000
  C   C73       1.0  0.04708000000000004  0.22689  0.9489  1.0000
  C   C74       1.0  0.10482999999999996  0.2674699999999999  0.91493  1.0000
  C   C75       1.0  0.18073  0.37525999999999987  0.74225  1.0000
  C   C76       1.0  0.19653999999999994  0.40796  0.7015900000000002  1.0000
  C   C77       1.0  0.16659000000000002  0.42824  0.68624  1.0000
  C   C78       1.0  0.12162999999999997  0.41408  0.7075900000000002  1.0000
  C   C79       1.0  0.10527999999999996  0.3809499999999999  0.7473200000000001  1.0000
  C   C80       1.0  0.054679999999999965  0.36999  0.7769200000000002  1.0000
  O   O27       1.0  0.047099999999999996  0.33088  0.75234  1.0000
  C   C81       1.0  0.05926999999999996  0.2960699999999999  0.7731300000000001  1.0000
  C   C82       1.0  0.07848999999999999  0.26096999999999987  0.72988  1.0000
  C   C83       1.0  0.09205000000000003  0.22453999999999993  0.74673  1.0000
  C   C84       1.0  0.08739999999999999  0.22424999999999995  0.80697  1.0000
  C   C85       1.0  0.06719  0.25829  0.85111  1.0000
  C   C86       1.0  0.05101000000000001  0.2932  0.8356  1.0000
  C   C87       1.0  0.13513  0.36199  0.76478  1.0000
  N   N25       1.0  0.20941  0.35802  0.76541  1.0000
  C   C88       1.0  0.22506999999999994  0.3899499999999999  0.79735  1.0000
  C   C89       1.0  0.18663  0.42025  0.84237  1.0000
  C   C90       1.0  0.18779  0.46261  0.82942  1.0000
  C   C91       1.0  0.15154999999999996  0.49025999999999986  0.86929  1.0000
  C   C92       1.0  0.11343000000000004  0.4760399999999999  0.92264  1.0000
  C   C93       1.0  0.07684999999999997  0.5070599999999997  0.96836  1.0000
  N   N26       1.0  0.09309  0.52818  0.0092  1.0000
  C   C94       1.0  0.11239  0.43378  0.936  1.0000
  C   C95       1.0  0.14863  0.4060399999999999  0.8959700000000002  1.0000
  H   H61       1.0  0.23096  0.41975  0.68563  1.0000
  H   H62       1.0  0.59853  0.43099999999999994  0.6966200000000001  1.0000
  H   H63       1.0  0.035949999999999954  0.39398  0.7662700000000001  1.0000
  H   H64       1.0  0.037920000000000044  0.37363  0.82888  1.0000
  H   H65       1.0  0.08259999999999997  0.26239  0.68315  1.0000
  H   H66       1.0  0.09952999999999995  0.19745  0.82041  1.0000
  H   H67       1.0  0.03378999999999995  0.31791999999999987  0.8720800000000001  1.0000
  H   H68       1.0  0.12270000000000002  0.33859  0.79877  1.0000
  H   H69       1.0  0.19323  0.33369  0.7948200000000001  1.0000
  H   H70       1.0  0.2546299999999999  0.40683999999999987  0.7614800000000002  1.0000
  H   H71       1.0  0.23830000000000004  0.37357  0.82457  1.0000
  H   H72       1.0  0.21666000000000002  0.47427  0.78823  1.0000
  H   H73       1.0  0.15346  0.52293  0.85889  1.0000
  H   H74       1.0  0.04452000000000003  0.49051000000000006  0.99787  1.0000
  H   H75       1.0  0.06891999999999997  0.52979  0.94204  1.0000
  H   H76       1.0  0.11009999999999999  0.5097699999999997  0.026080000000000002  1.0000
  H   H77       1.0  0.08373999999999994  0.42237999999999987  0.9776600000000001  1.0000
  H   H78       1.0  0.14703999999999998  0.37348  0.9066800000000002  1.0000
  C   C96       1.0  0.44603  0.5215899999999998  0.78824  1.0000
  C   C97       1.0  0.49157999999999996  0.5354499999999998  0.7556000000000002  1.0000
  C   C98       1.0  0.5008000000000002  0.57678  0.73733  1.0000
  C   C99       1.0  0.46347  0.10453999999999997  0.75246  1.0000
  C   C100      1.0  0.4174400000000001  0.59144  0.7858300000000001  1.0000
  C   C101      1.0  0.37812999999999997  0.62163  0.79874  1.0000
  O   O28       1.0  0.33448999999999995  0.60586  0.8416100000000001  1.0000
  C   C102      1.0  0.29792  0.62668  0.84106  1.0000
  C   C103      1.0  0.29359  0.6264099999999998  0.78596  1.0000
  C   C104      1.0  0.25379  0.64331  0.78767  1.0000
  C   C105      1.0  0.21968000000000001  0.16214999999999993  0.84476  1.0000
  C   C106      1.0  0.21881999999999996  0.15517  0.90151  1.0000
  C   C107      1.0  0.25909999999999994  0.13911  0.89914  1.0000
  C   C108      1.0  0.40929999999999994  0.5495999999999999  0.80248  1.0000
  N   N27       1.0  0.43695  0.4782100000000001  0.8032500000000001  1.0000
  C   C109      1.0  0.4568999999999999  0.4639999999999999  0.84155  1.0000
  C   C110      1.0  0.44175  0.4911799999999999  0.90201  1.0000
  C   C111      1.0  0.47476000000000007  0.50703  0.91812  1.0000
  C   C112      1.0  0.46104999999999996  0.5314399999999998  0.9744000000000002  1.0000
  C   C113      1.0  0.41421  0.54059  0.015380000000000001  1.0000
  C   C114      1.0  0.39949  0.5681299999999998  0.07517  1.0000
  N   N28       1.0  0.39392  0.61253  0.06619  1.0000
  C   C115      1.0  0.3811599999999999  0.5249399999999997  0.9992800000000001  1.0000
  C   C116      1.0  0.39476000000000006  0.4999999999999999  0.94345  1.0000
  H   H79       1.0  0.5199599999999999  0.5135599999999998  0.74259  1.0000
  H   H80       1.0  0.47008  0.13646  0.73824  1.0000
  H   H81       1.0  0.38128  0.12681999999999993  0.75225  1.0000
  H   H82       1.0  0.38335  0.65212  0.81925  1.0000
  H   H83       1.0  0.31976  0.61034  0.7432700000000001  1.0000
  H   H84       1.0  0.19018  0.17746  0.84636  1.0000
  H   H85       1.0  0.25982000000000005  0.13385  0.94187  1.0000
  H   H86       1.0  0.37437  0.5383699999999998  0.8263200000000002  1.0000
  H   H87       1.0  0.40186  0.4714  0.82344  1.0000
  H   H88       1.0  0.4950800000000001  0.46180999999999994  0.8130600000000001  1.0000
  H   H89       1.0  0.4451800000000001  0.43156  0.85425  1.0000
  H   H90       1.0  0.51117  0.50039  0.88729  1.0000
  H   H91       1.0  0.48694999999999994  0.54315  0.98614  1.0000
  H   H92       1.0  0.42418  0.5641799999999998  0.09344  1.0000
  H   H93       1.0  0.36608  0.5570499999999998  0.11214  1.0000
  H   H94       1.0  0.3930199999999999  0.61692  0.024500000000000004  1.0000
  H   H95       1.0  0.34481  0.5318699999999997  0.030160000000000003  1.0000
  H   H96       1.0  0.36854000000000003  0.48772  0.93268  1.0000
  C   C117      1.0  0.10843999999999998  0.7405899999999997  0.45410000000000006  1.0000
  Mn  Mn7       1.0  0.07017999999999999  0.6542999999999998  0.49666000000000005  1.0000
  O   O29       1.0  0.11674999999999999  0.6871999999999998  0.14524  1.0000
  O   O30       1.0  0.16825  0.65659  0.51581  1.0000
  O   O31       1.0  0.07190000000000002  0.6665399999999998  0.57469  1.0000
  Mn  Mn8       1.0  0.11486000000000002  0.63829  0.09349  1.0000
  O   O32       1.0  0.59698  0.72749  0.5709500000000001  1.0000
  Mn  Mn9       1.0  0.14009  0.09444  0.19436  1.0000
  O   O33       1.0  0.11159999999999999  0.65088  0.22918  1.0000
  O   O34       1.0  0.58193  0.071  0.20591  1.0000
  O   O35       1.0  0.5582099999999999  0.12250000000000001  0.16725000000000004  1.0000
  C   C118      1.0  0.17252  0.65536  0.45872000000000007  1.0000
  H   H97       1.0  0.39578  0.16395  0.66296  1.0000
  O   O36       1.0  0.11488999999999999  0.08541  0.5487  1.0000
  O   O37       1.0  0.06694  0.09421  0.50653  1.0000
  H   H98       1.0  0.48044  0.18767  0.63559  1.0000
  O   O38       1.0  0.15815  0.10936  0.11061  1.0000
  H   H99       1.0  0.48781  0.6184699999999997  0.47772  1.0000
  O   O39       1.0  0.22804000000000002  0.11719  0.04985  1.0000
  H   H100      1.0  0.02093000000000001  0.70715  0.44682  1.0000
  H   H101      1.0  0.13245000000000004  0.7866399999999998  0.38326  1.0000
  H   H102      1.0  0.13950999999999997  0.73565  0.4571200000000001  1.0000
  C   C119      1.0  0.10893000000000001  0.6859099999999999  0.20399  1.0000
  C   C120      1.0  0.27033  0.61298  0.18091  1.0000
  C   C121      1.0  0.24336999999999998  0.59962  0.15458  1.0000
  C   C122      1.0  0.20092000000000002  0.13493  0.2413  1.0000
  H   H103      1.0  0.30596  0.6041599999999998  0.16295000000000004  1.0000
  C   C123      1.0  0.16487000000000002  0.00503  0.19481  1.0000
  H   H104      1.0  0.16958  0.14549999999999993  0.28297  1.0000
  C   C124      1.0  0.68492  0.01921  0.10026000000000002  1.0000
  H   H105      1.0  0.25413  0.5776099999999997  0.11398  1.0000
  C   C125      1.0  0.69056  0.97656  0.10092  1.0000
  H   H106      1.0  0.14846  0.008289999999999997  0.24568  1.0000
  H   H107      1.0  0.6994  0.9532499999999998  0.06216  1.0000
  H   H108      1.0  0.68884  0.03545  0.06046  1.0000
  C   C126      1.0  0.5493099999999999  0.09047  0.2015  1.0000
  C   C127      1.0  0.09118000000000001  0.07034999999999997  0.52199  1.0000
  N   N29       1.0  0.42945000000000005  0.63654  0.5676  1.0000
  N   N30       1.0  0.50027  0.6564099999999998  0.54405  1.0000
  N   N31       1.0  0.07174999999999995  0.71523  0.47619000000000006  1.0000
  N   N32       1.0  0.06695  0.75786  0.40997  1.0000
  N   N33       1.0  0.5662  0.7035299999999998  0.59309  1.0000
  C   C128      1.0  0.42683  0.15868  0.61824  1.0000
  C   C129      1.0  0.47082  0.17105  0.60362  1.0000
  C   C130      1.0  0.47408000000000006  0.63564  0.52318  1.0000
  N   N34       1.0  0.19988999999999998  0.61426  0.19204  1.0000
  N   N35       1.0  0.66873  0.03676  0.15934  1.0000
  N   N36       1.0  0.24352  0.13458  0.23642000000000002  1.0000
  N   N37       1.0  0.67829  0.9681199999999998  0.16031000000000004  1.0000
  N   N38       1.0  0.1925  0.13037  0.09277  1.0000
  O   O40       1.0  0.13735999999999998  0.65048  0.44736000000000004  1.0000
  C   C131      1.0  0.04707999999999997  0.7268899999999998  0.4489000000000001  1.0000
  C   C132      1.0  0.10482999999999999  0.76747  0.4149300000000001  1.0000
  C   C133      1.0  0.18072999999999997  0.8752599999999998  0.24224  1.0000
  C   C134      1.0  0.19654  0.9079599999999998  0.20159000000000002  1.0000
  C   C135      1.0  0.16659  0.92825  0.18624000000000002  1.0000
  C   C136      1.0  0.12163  0.9140799999999998  0.20759000000000002  1.0000
  C   C137      1.0  0.10528  0.8809499999999998  0.24732000000000004  1.0000
  C   C138      1.0  0.05467999999999998  0.86999  0.27692  1.0000
  O   O41       1.0  0.047099999999999996  0.83088  0.25234  1.0000
  C   C139      1.0  0.059269999999999996  0.79607  0.27313  1.0000
  C   C140      1.0  0.07848999999999999  0.76098  0.22988  1.0000
  C   C141      1.0  0.09204999999999999  0.7245399999999997  0.24673  1.0000
  C   C142      1.0  0.0874  0.7242499999999997  0.30697  1.0000
  C   C143      1.0  0.06719000000000001  0.75829  0.35111  1.0000
  C   C144      1.0  0.051009999999999986  0.7931999999999998  0.3356  1.0000
  C   C145      1.0  0.13513  0.8619899999999998  0.26478  1.0000
  N   N39       1.0  0.20940999999999999  0.85801  0.26541  1.0000
  C   C146      1.0  0.22507  0.88995  0.29735  1.0000
  C   C147      1.0  0.18663  0.92025  0.34237  1.0000
  C   C148      1.0  0.18779  0.9626099999999997  0.32942  1.0000
  C   C149      1.0  0.15155999999999997  0.9902599999999998  0.36928  1.0000
  C   C150      1.0  0.11343000000000003  0.97604  0.42263  1.0000
  C   C151      1.0  0.07684999999999999  0.007059999999999998  0.46835  1.0000
  N   N40       1.0  0.09309  0.028179999999999993  0.5092  1.0000
  C   C152      1.0  0.11238999999999999  0.9337799999999998  0.43599  1.0000
  C   C153      1.0  0.14862999999999996  0.9060399999999997  0.39597000000000004  1.0000
  H   H109      1.0  0.23096  0.9197499999999997  0.18563  1.0000
  H   H110      1.0  0.59853  0.9310099999999998  0.19661999999999996  1.0000
  H   H111      1.0  0.03595000000000002  0.89398  0.26627  1.0000
  H   H112      1.0  0.037919999999999995  0.87363  0.32888  1.0000
  H   H113      1.0  0.08259  0.76239  0.18315000000000003  1.0000
  H   H114      1.0  0.09952999999999998  0.69745  0.32041  1.0000
  H   H115      1.0  0.033789999999999994  0.8179199999999998  0.37208  1.0000
  H   H116      1.0  0.12270000000000002  0.83859  0.29876  1.0000
  H   H117      1.0  0.19323  0.8336899999999998  0.29482  1.0000
  H   H118      1.0  0.25463  0.90683  0.26148  1.0000
  H   H119      1.0  0.2383  0.87356  0.32457  1.0000
  H   H120      1.0  0.21666  0.9742699999999997  0.28823  1.0000
  H   H121      1.0  0.15346000000000004  0.02293  0.35889  1.0000
  H   H122      1.0  0.04452000000000002  0.99051  0.49786  1.0000
  H   H123      1.0  0.06892  0.02979  0.44203  1.0000
  H   H124      1.0  0.11009999999999999  0.00977  0.52608  1.0000
  H   H125      1.0  0.08374  0.9223799999999998  0.47766  1.0000
  H   H126      1.0  0.14703999999999998  0.87348  0.40667  1.0000
  C   C154      1.0  0.44603000000000004  0.02159  0.28824  1.0000
  C   C155      1.0  0.49157999999999996  0.03545  0.2556  1.0000
  C   C156      1.0  0.5008  0.07677999999999997  0.23733  1.0000
  C   C157      1.0  0.46347  0.6045399999999997  0.25246  1.0000
  C   C158      1.0  0.41744000000000003  0.09144  0.28583  1.0000
  C   C159      1.0  0.37813  0.12162999999999997  0.29874  1.0000
  O   O42       1.0  0.33449  0.10586  0.34161  1.0000
  C   C160      1.0  0.29792  0.12668  0.34106  1.0000
  C   C161      1.0  0.29359  0.12641  0.28596  1.0000
  C   C162      1.0  0.25379  0.14330999999999994  0.28767  1.0000
  C   C163      1.0  0.21967999999999996  0.66215  0.34476  1.0000
  C   C164      1.0  0.21882  0.6551699999999998  0.40151  1.0000
  C   C165      1.0  0.25909999999999994  0.6391199999999998  0.39914  1.0000
  C   C166      1.0  0.4093  0.0496  0.30248  1.0000
  N   N41       1.0  0.43695000000000006  0.9782099999999998  0.30325  1.0000
  C   C167      1.0  0.4569  0.964  0.34155  1.0000
  C   C168      1.0  0.44175999999999993  0.9911799999999997  0.40201000000000003  1.0000
  C   C169      1.0  0.47476  0.007029999999999999  0.41812000000000005  1.0000
  C   C170      1.0  0.46105000000000007  0.03144  0.4744  1.0000
  C   C171      1.0  0.41421  0.04059  0.51538  1.0000
  C   C172      1.0  0.3994900000000001  0.06812  0.57517  1.0000
  N   N42       1.0  0.39392  0.11253  0.56619  1.0000
  C   C173      1.0  0.38116  0.024939999999999993  0.49928  1.0000
  C   C174      1.0  0.39476000000000006  0.9999999999999998  0.44345  1.0000
  H   H127      1.0  0.51996  0.013559999999999996  0.24259  1.0000
  H   H128      1.0  0.47008  0.63647  0.23824  1.0000
  H   H129      1.0  0.38127999999999995  0.62682  0.25225  1.0000
  H   H130      1.0  0.3833500000000001  0.1521199999999999  0.31925  1.0000
  H   H131      1.0  0.31976  0.11033999999999997  0.24327  1.0000
  H   H132      1.0  0.19018  0.67746  0.34636  1.0000
  H   H133      1.0  0.25982  0.6338599999999998  0.44187  1.0000
  H   H134      1.0  0.37437000000000004  0.03837  0.32632  1.0000
  H   H135      1.0  0.40186  0.9713999999999998  0.32344  1.0000
  H   H136      1.0  0.4950800000000003  0.96181  0.31306  1.0000
  H   H137      1.0  0.44518  0.93156  0.35425  1.0000
  H   H138      1.0  0.5111799999999999  0.0003900000000000047  0.3872900000000001  1.0000
  H   H139      1.0  0.48694999999999994  0.04314999999999999  0.48614  1.0000
  H   H140      1.0  0.4241899999999999  0.06418  0.59344  1.0000
  H   H141      1.0  0.36608000000000007  0.05705  0.61214  1.0000
  H   H142      1.0  0.3930199999999999  0.11692  0.52451  1.0000
  H   H143      1.0  0.34481  0.03186999999999999  0.53017  1.0000
  H   H144      1.0  0.36854  0.98772  0.43268  1.0000
  C   C175      1.0  0.10844000000000001  0.7405899999999997  0.9541  1.0000
  Mn  Mn10      1.0  0.07018000000000002  0.6543  0.99666  1.0000
  O   O43       1.0  0.11674999999999996  0.6871999999999998  0.64524  1.0000
  O   O44       1.0  0.16825  0.65659  0.01581  1.0000
  O   O45       1.0  0.0719  0.6665399999999998  0.07469  1.0000
  Mn  Mn11      1.0  0.11486000000000002  0.63829  0.59349  1.0000
  O   O46       1.0  0.59697  0.72749  0.07095  1.0000
  Mn  Mn12      1.0  0.14009  0.09444  0.69436  1.0000
  O   O47       1.0  0.11160000000000002  0.65088  0.72918  1.0000
  O   O48       1.0  0.58193  0.071  0.7059  1.0000
  O   O49       1.0  0.55821  0.12250000000000001  0.66725  1.0000
  C   C176      1.0  0.17251999999999995  0.65536  0.95872  1.0000
  H   H145      1.0  0.39578  0.16395  0.16296  1.0000
  O   O50       1.0  0.11489  0.08541  0.04869999999999999  1.0000
  O   O51       1.0  0.06694  0.09421  0.00654  1.0000
  H   H146      1.0  0.48044  0.18767  0.13559  1.0000
  O   O52       1.0  0.15813999999999998  0.10936  0.61061  1.0000
  H   H147      1.0  0.48781  0.6184699999999997  0.97772  1.0000
  O   O53       1.0  0.22803999999999996  0.11719  0.54985  1.0000
  H   H148      1.0  0.02093000000000001  0.70715  0.94682  1.0000
  H   H149      1.0  0.13244999999999998  0.7866399999999998  0.88326  1.0000
  H   H150      1.0  0.13951000000000002  0.73565  0.95712  1.0000
  C   C177      1.0  0.10892999999999997  0.6859  0.70399  1.0000
  C   C178      1.0  0.27033000000000007  0.61298  0.68091  1.0000
  C   C179      1.0  0.24336999999999998  0.59962  0.65458  1.0000
  C   C180      1.0  0.20092000000000002  0.13493  0.7413  1.0000
  H   H151      1.0  0.30596  0.6041599999999998  0.66295  1.0000
  C   C181      1.0  0.16487999999999997  0.005029999999999992  0.6948  1.0000
  H   H152      1.0  0.16958  0.14549999999999993  0.78297  1.0000
  C   C182      1.0  0.68492  0.019209999999999998  0.60026  1.0000
  H   H153      1.0  0.25413  0.5776099999999997  0.61398  1.0000
  C   C183      1.0  0.69056  0.97656  0.60092  1.0000
  H   H154      1.0  0.14847000000000002  0.008289999999999994  0.74568  1.0000
  H   H155      1.0  0.69939  0.9532499999999998  0.56216  1.0000
  H   H156      1.0  0.68883  0.035439999999999985  0.56046  1.0000
  C   C184      1.0  0.54931  0.09047  0.7015  1.0000
  C   C185      1.0  0.09118  0.07034999999999997  0.02199  1.0000
  N   N43       1.0  0.42945  0.63654  0.0676  1.0000
  N   N44       1.0  0.50027  0.6564099999999998  0.04405  1.0000
  N   N45       1.0  0.07174999999999995  0.71523  0.9761900000000002  1.0000
  N   N46       1.0  0.06695000000000002  0.75786  0.90997  1.0000
  N   N47       1.0  0.5662  0.7035299999999998  0.09309  1.0000
  C   C186      1.0  0.42683  0.15868  0.11824  1.0000
  C   C187      1.0  0.47082  0.17104999999999995  0.10362000000000002  1.0000
  C   C188      1.0  0.47408  0.63564  0.02318  1.0000
  N   N48       1.0  0.19989  0.61426  0.69204  1.0000
  N   N49       1.0  0.66873  0.03676  0.65934  1.0000
  N   N50       1.0  0.24352  0.13458  0.73642  1.0000
  N   N51       1.0  0.6782900000000001  0.9681199999999998  0.66031  1.0000
  N   N52       1.0  0.19250000000000003  0.13035999999999995  0.59277  1.0000
  O   O54       1.0  0.13735999999999998  0.65048  0.94736  1.0000
  C   C189      1.0  0.047080000000000025  0.7268899999999998  0.9489  1.0000
  C   C190      1.0  0.10482999999999996  0.76747  0.91493  1.0000
  C   C191      1.0  0.18073  0.8752599999999998  0.74225  1.0000
  C   C192      1.0  0.19653999999999994  0.9079599999999998  0.7015900000000002  1.0000
  C   C193      1.0  0.16659  0.9282399999999997  0.68624  1.0000
  C   C194      1.0  0.12162999999999996  0.9140799999999998  0.7075900000000002  1.0000
  C   C195      1.0  0.10528  0.8809499999999998  0.7473200000000001  1.0000
  C   C196      1.0  0.05467999999999995  0.86999  0.7769200000000002  1.0000
  O   O55       1.0  0.04709999999999998  0.83088  0.75234  1.0000
  C   C197      1.0  0.059269999999999955  0.79607  0.7731300000000001  1.0000
  C   C198      1.0  0.07849000000000002  0.76098  0.72988  1.0000
  C   C199      1.0  0.09205000000000002  0.7245399999999997  0.74673  1.0000
  C   C200      1.0  0.08739999999999998  0.7242499999999997  0.80697  1.0000
  C   C201      1.0  0.06718999999999999  0.75829  0.85111  1.0000
  C   C202      1.0  0.05100999999999999  0.7931999999999998  0.8356  1.0000
  C   C203      1.0  0.13513  0.8619899999999998  0.76478  1.0000
  N   N53       1.0  0.20941  0.85802  0.76542  1.0000
  C   C204      1.0  0.22506999999999994  0.88995  0.7973600000000001  1.0000
  C   C205      1.0  0.18663  0.92025  0.84237  1.0000
  C   C206      1.0  0.18779  0.9626099999999997  0.82942  1.0000
  C   C207      1.0  0.15155  0.9902599999999998  0.86929  1.0000
  C   C208      1.0  0.11343000000000003  0.97604  0.92264  1.0000
  C   C209      1.0  0.07684999999999999  0.007060000000000001  0.96836  1.0000
  N   N54       1.0  0.09309  0.028179999999999993  0.0092  1.0000
  C   C210      1.0  0.11238999999999999  0.9337799999999998  0.936  1.0000
  C   C211      1.0  0.14863  0.9060399999999997  0.8959700000000002  1.0000
  H   H157      1.0  0.23096  0.9197499999999997  0.68563  1.0000
  H   H158      1.0  0.59854  0.9309999999999998  0.6966200000000001  1.0000
  H   H159      1.0  0.03594999999999994  0.89398  0.7662700000000001  1.0000
  H   H160      1.0  0.03792000000000004  0.87363  0.82888  1.0000
  H   H161      1.0  0.0826  0.76239  0.68315  1.0000
  H   H162      1.0  0.09953  0.69745  0.82041  1.0000
  H   H163      1.0  0.033789999999999945  0.8179199999999998  0.8720800000000001  1.0000
  H   H164      1.0  0.12269999999999999  0.83859  0.79877  1.0000
  H   H165      1.0  0.19323  0.8336899999999998  0.7948200000000001  1.0000
  H   H166      1.0  0.25462999999999997  0.9068399999999998  0.7614800000000002  1.0000
  H   H167      1.0  0.23829999999999998  0.8735699999999997  0.82457  1.0000
  H   H168      1.0  0.21665999999999994  0.9742699999999997  0.78824  1.0000
  H   H169      1.0  0.15345000000000003  0.02293  0.85889  1.0000
  H   H170      1.0  0.04452000000000002  0.99051  0.99787  1.0000
  H   H171      1.0  0.06891999999999997  0.02979  0.94204  1.0000
  H   H172      1.0  0.1101  0.00977  0.026080000000000002  1.0000
  H   H173      1.0  0.08373999999999994  0.9223799999999998  0.9776600000000001  1.0000
  H   H174      1.0  0.14703999999999998  0.87348  0.9066800000000002  1.0000
  C   C212      1.0  0.4460299999999999  0.021589999999999998  0.78824  1.0000
  C   C213      1.0  0.4915799999999999  0.03545  0.7556000000000002  1.0000
  C   C214      1.0  0.5008000000000002  0.07676999999999998  0.73733  1.0000
  C   C215      1.0  0.46346999999999994  0.6045399999999997  0.75246  1.0000
  C   C216      1.0  0.4174399999999999  0.09144000000000001  0.7858300000000001  1.0000
  C   C217      1.0  0.37813  0.12162999999999999  0.79874  1.0000
  O   O56       1.0  0.33448999999999995  0.10585999999999997  0.8416100000000001  1.0000
  C   C218      1.0  0.29792  0.12668  0.84106  1.0000
  C   C219      1.0  0.29359  0.12641  0.78596  1.0000
  C   C220      1.0  0.25378999999999996  0.14330999999999994  0.78767  1.0000
  C   C221      1.0  0.21967999999999996  0.66215  0.84476  1.0000
  C   C222      1.0  0.21882000000000001  0.6551699999999998  0.90151  1.0000
  C   C223      1.0  0.25909999999999994  0.6391199999999998  0.89914  1.0000
  C   C224      1.0  0.40929999999999994  0.0496  0.80248  1.0000
  N   N55       1.0  0.43694999999999995  0.9782099999999998  0.8032500000000001  1.0000
  C   C225      1.0  0.4569  0.964  0.84155  1.0000
  C   C226      1.0  0.4417499999999999  0.9911799999999997  0.90201  1.0000
  C   C227      1.0  0.47476000000000007  0.007030000000000002  0.91812  1.0000
  C   C228      1.0  0.46105  0.03144000000000001  0.9744000000000002  1.0000
  C   C229      1.0  0.41421  0.04059  0.015380000000000001  1.0000
  C   C230      1.0  0.39948  0.06813  0.07517  1.0000
  N   N56       1.0  0.39392  0.11253  0.06619  1.0000
  C   C231      1.0  0.38115999999999994  0.02494  0.9992800000000001  1.0000
  C   C232      1.0  0.39476  0.0  0.94345  1.0000
  H   H175      1.0  0.5199599999999999  0.013559999999999992  0.74259  1.0000
  H   H176      1.0  0.47007999999999994  0.63646  0.73824  1.0000
  H   H177      1.0  0.38128000000000006  0.62682  0.75225  1.0000
  H   H178      1.0  0.38335  0.15211  0.81925  1.0000
  H   H179      1.0  0.31975999999999993  0.11033  0.7432700000000001  1.0000
  H   H180      1.0  0.19018  0.67746  0.84636  1.0000
  H   H181      1.0  0.25982000000000005  0.6338599999999998  0.94187  1.0000
  H   H182      1.0  0.3743699999999999  0.03837000000000001  0.8263200000000002  1.0000
  H   H183      1.0  0.40186000000000005  0.9713999999999998  0.82344  1.0000
  H   H184      1.0  0.4950800000000001  0.96181  0.8130600000000001  1.0000
  H   H185      1.0  0.4451800000000001  0.93156  0.85425  1.0000
  H   H186      1.0  0.51117  0.0003899999999999977  0.88729  1.0000
  H   H187      1.0  0.48694999999999994  0.04314999999999999  0.98614  1.0000
  H   H188      1.0  0.42418  0.06418  0.09344  1.0000
  H   H189      1.0  0.36607999999999996  0.05705  0.11214  1.0000
  H   H190      1.0  0.39302  0.11692  0.02451  1.0000
  H   H191      1.0  0.34481  0.03186999999999999  0.030160000000000003  1.0000
  H   H192      1.0  0.36854  0.98772  0.93268  1.0000
  C   C233      1.0  0.60844  0.24058999999999994  0.45410000000000006  1.0000
  Mn  Mn13      1.0  0.57018  0.1543  0.49665  1.0000
  O   O57       1.0  0.61675  0.1872  0.14524  1.0000
  O   O58       1.0  0.66825  0.15659  0.51581  1.0000
  O   O59       1.0  0.5719  0.16654  0.57469  1.0000
  Mn  Mn14      1.0  0.61486  0.13829  0.09349  1.0000
  O   O60       1.0  0.09697999999999994  0.22749  0.5709500000000001  1.0000
  Mn  Mn15      1.0  0.64009  0.59444  0.19436  1.0000
  O   O61       1.0  0.6116  0.15087999999999988  0.22918  1.0000
  O   O62       1.0  0.08193  0.571  0.2059  1.0000
  O   O63       1.0  0.058209999999999984  0.6225  0.16725000000000004  1.0000
  C   C234      1.0  0.6725199999999999  0.15536  0.45872000000000007  1.0000
  H   H193      1.0  0.8957799999999999  0.66395  0.66296  1.0000
  O   O64       1.0  0.61489  0.5854099999999998  0.5487  1.0000
  O   O65       1.0  0.56694  0.59421  0.50653  1.0000
  H   H194      1.0  0.9804400000000001  0.68767  0.63559  1.0000
  O   O66       1.0  0.65814  0.6093599999999998  0.11061  1.0000
  H   H195      1.0  0.9878100000000002  0.11847  0.47772  1.0000
  O   O67       1.0  0.72804  0.61719  0.04985  1.0000
  H   H196      1.0  0.5209300000000001  0.20715  0.44682  1.0000
  H   H197      1.0  0.63245  0.28664  0.38326  1.0000
  H   H198      1.0  0.63951  0.23566  0.4571200000000001  1.0000
  C   C235      1.0  0.60893  0.18591  0.20399  1.0000
  C   C236      1.0  0.77034  0.11298  0.18091  1.0000
  C   C237      1.0  0.74337  0.09962  0.15458  1.0000
  C   C238      1.0  0.70092  0.63493  0.2413  1.0000
  H   H199      1.0  0.8059599999999999  0.10416  0.16295000000000004  1.0000
  C   C239      1.0  0.66488  0.5050299999999998  0.19479999999999997  1.0000
  H   H200      1.0  0.66958  0.6455  0.28297  1.0000
  C   C240      1.0  0.18491999999999997  0.51921  0.10026000000000002  1.0000
  H   H201      1.0  0.75413  0.07760999999999997  0.11398  1.0000
  C   C241      1.0  0.19056  0.4765599999999999  0.10092  1.0000
  H   H202      1.0  0.64847  0.50829  0.24568  1.0000
  H   H203      1.0  0.1994  0.4532499999999999  0.06216  1.0000
  H   H204      1.0  0.18884  0.5354399999999998  0.06046  1.0000
  C   C242      1.0  0.04931  0.59047  0.2015  1.0000
  C   C243      1.0  0.59118  0.57035  0.52199  1.0000
  N   N57       1.0  0.92945  0.13653999999999994  0.5676  1.0000
  N   N58       1.0  0.00027000000000000504  0.15641  0.54405  1.0000
  N   N59       1.0  0.5717499999999999  0.21523  0.47619000000000006  1.0000
  N   N60       1.0  0.56695  0.25786  0.40997  1.0000
  N   N61       1.0  0.06619999999999997  0.20353  0.59309  1.0000
  C   C244      1.0  0.9268299999999999  0.65868  0.61824  1.0000
  C   C245      1.0  0.97082  0.67105  0.60362  1.0000
  C   C246      1.0  0.97408  0.13564  0.52318  1.0000
  N   N62       1.0  0.69989  0.11425999999999997  0.19204  1.0000
  N   N63       1.0  0.16873  0.5367599999999998  0.15934  1.0000
  N   N64       1.0  0.7435199999999998  0.6345799999999998  0.23642000000000002  1.0000
  N   N65       1.0  0.17829000000000003  0.46811999999999987  0.16031000000000004  1.0000
  N   N66       1.0  0.6925  0.6303699999999998  0.09277  1.0000
  O   O68       1.0  0.63736  0.15049  0.44736000000000004  1.0000
  C   C247      1.0  0.54708  0.22689999999999994  0.4489000000000001  1.0000
  C   C248      1.0  0.6048299999999999  0.2674699999999999  0.4149300000000001  1.0000
  C   C249      1.0  0.68073  0.37525999999999987  0.24224  1.0000
  C   C250      1.0  0.6965399999999999  0.40796  0.20159000000000002  1.0000
  C   C251      1.0  0.66659  0.4282499999999999  0.18624000000000002  1.0000
  C   C252      1.0  0.62163  0.41408  0.20759000000000002  1.0000
  C   C253      1.0  0.60528  0.3809499999999999  0.24732000000000004  1.0000
  C   C254      1.0  0.55468  0.36999  0.27692  1.0000
  O   O69       1.0  0.5471  0.33088  0.25234  1.0000
  C   C255      1.0  0.55927  0.2960699999999999  0.27313  1.0000
  C   C256      1.0  0.57849  0.26098  0.22988  1.0000
  C   C257      1.0  0.59205  0.22453999999999993  0.24673  1.0000
  C   C258      1.0  0.5874  0.22424999999999995  0.30697  1.0000
  C   C259      1.0  0.56719  0.25829  0.35111  1.0000
  C   C260      1.0  0.55101  0.2932  0.3356  1.0000
  C   C261      1.0  0.63513  0.36199  0.26478  1.0000
  N   N67       1.0  0.70941  0.35802  0.26541  1.0000
  C   C262      1.0  0.72507  0.3899499999999999  0.29735  1.0000
  C   C263      1.0  0.6866300000000001  0.42025  0.34237  1.0000
  C   C264      1.0  0.68779  0.46261  0.32942  1.0000
  C   C265      1.0  0.65156  0.49025999999999986  0.36929  1.0000
  C   C266      1.0  0.6134300000000001  0.4760399999999999  0.42263  1.0000
  C   C267      1.0  0.5768499999999998  0.5070599999999997  0.46836000000000005  1.0000
  N   N68       1.0  0.59309  0.52818  0.5092  1.0000
  C   C268      1.0  0.61239  0.43378  0.43599  1.0000
  C   C269      1.0  0.64863  0.4060399999999999  0.39597000000000004  1.0000
  H   H205      1.0  0.73096  0.41975  0.18563  1.0000
  H   H206      1.0  0.09853000000000003  0.43101  0.19661999999999996  1.0000
  H   H207      1.0  0.53595  0.39398  0.26627  1.0000
  H   H208      1.0  0.53792  0.37363  0.32888  1.0000
  H   H209      1.0  0.5826  0.26239  0.18315000000000003  1.0000
  H   H210      1.0  0.59953  0.19745  0.32041  1.0000
  H   H211      1.0  0.53379  0.31791999999999987  0.37208  1.0000
  H   H212      1.0  0.6227  0.33859  0.29877000000000004  1.0000
  H   H213      1.0  0.69323  0.33369  0.29482  1.0000
  H   H214      1.0  0.75463  0.40683999999999987  0.26148  1.0000
  H   H215      1.0  0.7383  0.37357  0.32457  1.0000
  H   H216      1.0  0.71666  0.47427  0.28823  1.0000
  H   H217      1.0  0.65346  0.52293  0.35889  1.0000
  H   H218      1.0  0.54452  0.49051  0.49787000000000003  1.0000
  H   H219      1.0  0.56892  0.52979  0.44204000000000004  1.0000
  H   H220      1.0  0.6101  0.5097699999999997  0.52608  1.0000
  H   H221      1.0  0.58374  0.42238  0.47766  1.0000
  H   H222      1.0  0.6470400000000001  0.37348  0.40668  1.0000
  C   C270      1.0  0.9460300000000001  0.5215899999999998  0.28824  1.0000
  C   C271      1.0  0.9915800000000001  0.5354499999999998  0.2556  1.0000
  C   C272      1.0  0.0008000000000000094  0.57678  0.23733  1.0000
  C   C273      1.0  0.96347  0.10453999999999997  0.25246  1.0000
  C   C274      1.0  0.91744  0.59144  0.28583  1.0000
  C   C275      1.0  0.8781300000000001  0.62163  0.29874  1.0000
  O   O70       1.0  0.83449  0.60586  0.34161  1.0000
  C   C276      1.0  0.79792  0.62668  0.34106  1.0000
  C   C277      1.0  0.79359  0.6264099999999998  0.28596  1.0000
  C   C278      1.0  0.75379  0.64331  0.28767  1.0000
  C   C279      1.0  0.71968  0.16214999999999993  0.34476  1.0000
  C   C280      1.0  0.71882  0.15517  0.40151  1.0000
  C   C281      1.0  0.7591  0.13912  0.39914  1.0000
  C   C282      1.0  0.9093  0.5495999999999998  0.30248  1.0000
  N   N69       1.0  0.9369500000000001  0.47821  0.30325  1.0000
  C   C283      1.0  0.9569000000000001  0.4639999999999999  0.34155  1.0000
  C   C284      1.0  0.9417599999999998  0.4911799999999999  0.40201000000000003  1.0000
  C   C285      1.0  0.97476  0.50703  0.41812000000000005  1.0000
  C   C286      1.0  0.96105  0.5314399999999998  0.4744  1.0000
  C   C287      1.0  0.91421  0.54059  0.51538  1.0000
  C   C288      1.0  0.8994899999999999  0.5681299999999998  0.57517  1.0000
  N   N70       1.0  0.8939200000000002  0.61253  0.56619  1.0000
  C   C289      1.0  0.8811599999999999  0.5249399999999997  0.49928  1.0000
  C   C290      1.0  0.8947600000000002  0.4999999999999999  0.44345  1.0000
  H   H223      1.0  0.019960000000000012  0.5135599999999998  0.24259  1.0000
  H   H224      1.0  0.9700800000000002  0.13646999999999995  0.23824  1.0000
  H   H225      1.0  0.88128  0.12681999999999993  0.25225  1.0000
  H   H226      1.0  0.88335  0.65212  0.31925  1.0000
  H   H227      1.0  0.81976  0.61034  0.24327  1.0000
  H   H228      1.0  0.69018  0.17746  0.34636  1.0000
  H   H229      1.0  0.75982  0.13385999999999995  0.44187  1.0000
  H   H230      1.0  0.87437  0.5383699999999998  0.32632  1.0000
  H   H231      1.0  0.9018599999999999  0.4714  0.32344  1.0000
  H   H232      1.0  0.99508  0.4618099999999999  0.31306  1.0000
  H   H233      1.0  0.94518  0.43156  0.35425  1.0000
  H   H234      1.0  0.011179999999999983  0.50039  0.3872900000000001  1.0000
  H   H235      1.0  0.9869500000000001  0.54315  0.48614  1.0000
  H   H236      1.0  0.9241899999999998  0.5641799999999998  0.59344  1.0000
  H   H237      1.0  0.8660800000000001  0.5570499999999998  0.61214  1.0000
  H   H238      1.0  0.8930199999999998  0.61692  0.52451  1.0000
  H   H239      1.0  0.8448099999999998  0.5318699999999997  0.53017  1.0000
  H   H240      1.0  0.86854  0.4877199999999999  0.43268  1.0000
  C   C291      1.0  0.60844  0.24058999999999994  0.9541  1.0000
  Mn  Mn16      1.0  0.57018  0.1543  0.99666  1.0000
  O   O71       1.0  0.61675  0.1872  0.64524  1.0000
  O   O72       1.0  0.66825  0.15659  0.01581  1.0000
  O   O73       1.0  0.5719  0.16653  0.07469  1.0000
  Mn  Mn17      1.0  0.61486  0.13829  0.59349  1.0000
  O   O74       1.0  0.09697000000000001  0.22749  0.07095  1.0000
  Mn  Mn18      1.0  0.64009  0.59444  0.69436  1.0000
  O   O75       1.0  0.6116  0.15087999999999993  0.72918  1.0000
  O   O76       1.0  0.08193  0.571  0.7059  1.0000
  O   O77       1.0  0.05820999999999998  0.6225  0.66725  1.0000
  C   C292      1.0  0.6725199999999999  0.15536  0.95872  1.0000
  H   H241      1.0  0.89578  0.66395  0.16296  1.0000
  O   O78       1.0  0.61489  0.5854099999999998  0.04869999999999999  1.0000
  O   O79       1.0  0.56694  0.59421  0.00654  1.0000
  H   H242      1.0  0.9804400000000001  0.68767  0.13559  1.0000
  O   O80       1.0  0.65814  0.6093599999999998  0.61061  1.0000
  H   H243      1.0  0.98781  0.11847  0.97772  1.0000
  O   O81       1.0  0.72804  0.61719  0.54985  1.0000
  H   H244      1.0  0.52093  0.20715  0.94682  1.0000
  H   H245      1.0  0.63245  0.28664  0.88326  1.0000
  H   H246      1.0  0.63951  0.23564999999999994  0.95712  1.0000
  C   C293      1.0  0.60893  0.18589999999999998  0.70399  1.0000
  C   C294      1.0  0.77033  0.11298  0.68091  1.0000
  C   C295      1.0  0.7433699999999999  0.09962  0.65458  1.0000
  C   C296      1.0  0.70092  0.63493  0.7413  1.0000
  H   H247      1.0  0.80596  0.10416  0.66295  1.0000
  C   C297      1.0  0.66488  0.5050299999999998  0.6948  1.0000
  H   H248      1.0  0.66958  0.6455  0.78297  1.0000
  C   C298      1.0  0.18492  0.51921  0.60026  1.0000
  H   H249      1.0  0.75413  0.07759999999999997  0.61398  1.0000
  C   C299      1.0  0.19055999999999998  0.4765599999999999  0.60092  1.0000
  H   H250      1.0  0.6484700000000001  0.50829  0.74568  1.0000
  H   H251      1.0  0.19939  0.4532499999999999  0.56216  1.0000
  H   H252      1.0  0.18883  0.5354399999999998  0.56046  1.0000
  C   C300      1.0  0.04931  0.5904700000000002  0.7015  1.0000
  C   C301      1.0  0.59118  0.57035  0.02199  1.0000
  N   N71       1.0  0.92945  0.13653999999999994  0.0676  1.0000
  N   N72       1.0  0.00027000000000000006  0.15641  0.04405  1.0000
  N   N73       1.0  0.57175  0.21523  0.9761900000000002  1.0000
  N   N74       1.0  0.56695  0.25786  0.90997  1.0000
  N   N75       1.0  0.0662  0.20352999999999993  0.09309  1.0000
  C   C302      1.0  0.92683  0.65868  0.11824  1.0000
  C   C303      1.0  0.97082  0.67105  0.10362000000000002  1.0000
  C   C304      1.0  0.97408  0.13564  0.02318  1.0000
  N   N76       1.0  0.69989  0.11424999999999998  0.69204  1.0000
  N   N77       1.0  0.16872999999999996  0.5367599999999998  0.65934  1.0000
  N   N78       1.0  0.7435199999999998  0.6345799999999998  0.73642  1.0000
  N   N79       1.0  0.17829000000000003  0.46811999999999987  0.66031  1.0000
  N   N80       1.0  0.6925  0.6303599999999998  0.59277  1.0000
  O   O82       1.0  0.63736  0.15048  0.94736  1.0000
  C   C305      1.0  0.54708  0.22689  0.9489  1.0000
  C   C306      1.0  0.60483  0.2674699999999999  0.91493  1.0000
  C   C307      1.0  0.6807300000000001  0.37525999999999987  0.74225  1.0000
  C   C308      1.0  0.6965399999999999  0.40796  0.7015900000000002  1.0000
  C   C309      1.0  0.66659  0.42824  0.68624  1.0000
  C   C310      1.0  0.62163  0.41408  0.7075900000000002  1.0000
  C   C311      1.0  0.6052799999999999  0.3809499999999999  0.7473200000000001  1.0000
  C   C312      1.0  0.55468  0.36999  0.7769200000000002  1.0000
  O   O83       1.0  0.5470999999999999  0.33088  0.75234  1.0000
  C   C313      1.0  0.55927  0.2960699999999999  0.7731300000000001  1.0000
  C   C314      1.0  0.57849  0.26096999999999987  0.72988  1.0000
  C   C315      1.0  0.5920500000000001  0.22453999999999993  0.74673  1.0000
  C   C316      1.0  0.5873999999999999  0.22424999999999995  0.80697  1.0000
  C   C317      1.0  0.56719  0.25829  0.85111  1.0000
  C   C318      1.0  0.55101  0.2932  0.8356  1.0000
  C   C319      1.0  0.63513  0.36199  0.76478  1.0000
  N   N81       1.0  0.70941  0.35802  0.76541  1.0000
  C   C320      1.0  0.72507  0.3899499999999999  0.79735  1.0000
  C   C321      1.0  0.6866299999999996  0.42025  0.84237  1.0000
  C   C322      1.0  0.6877900000000001  0.46261  0.82942  1.0000
  C   C323      1.0  0.6515499999999999  0.49025999999999986  0.86929  1.0000
  C   C324      1.0  0.6134300000000001  0.4760399999999999  0.92264  1.0000
  C   C325      1.0  0.5768499999999998  0.5070599999999997  0.96836  1.0000
  N   N82       1.0  0.59309  0.52818  0.0092  1.0000
  C   C326      1.0  0.6123899999999999  0.43378  0.936  1.0000
  C   C327      1.0  0.64863  0.4060399999999999  0.8959700000000002  1.0000
  H   H253      1.0  0.73096  0.41975  0.68563  1.0000
  H   H254      1.0  0.09853  0.43099999999999994  0.6966200000000001  1.0000
  H   H255      1.0  0.5359499999999999  0.39398  0.7662700000000001  1.0000
  H   H256      1.0  0.53792  0.37363  0.82888  1.0000
  H   H257      1.0  0.5826  0.26239  0.68315  1.0000
  H   H258      1.0  0.5995299999999999  0.19745  0.82041  1.0000
  H   H259      1.0  0.53379  0.31791999999999987  0.8720800000000001  1.0000
  H   H260      1.0  0.6227  0.33859  0.79877  1.0000
  H   H261      1.0  0.6932299999999999  0.33369  0.7948200000000001  1.0000
  H   H262      1.0  0.7546299999999999  0.40683999999999987  0.7614800000000002  1.0000
  H   H263      1.0  0.7383  0.37357  0.82457  1.0000
  H   H264      1.0  0.71666  0.47427  0.78823  1.0000
  H   H265      1.0  0.65346  0.52293  0.85889  1.0000
  H   H266      1.0  0.54452  0.49051000000000006  0.99787  1.0000
  H   H267      1.0  0.5689199999999999  0.52979  0.94204  1.0000
  H   H268      1.0  0.6101  0.5097699999999997  0.026080000000000002  1.0000
  H   H269      1.0  0.58374  0.42237999999999987  0.9776600000000001  1.0000
  H   H270      1.0  0.6470399999999998  0.37348  0.9066800000000002  1.0000
  C   C328      1.0  0.94603  0.5215899999999998  0.78824  1.0000
  C   C329      1.0  0.9915800000000001  0.5354499999999998  0.7556000000000002  1.0000
  C   C330      1.0  0.0007999999999999826  0.57678  0.73733  1.0000
  C   C331      1.0  0.96347  0.10453999999999997  0.75246  1.0000
  C   C332      1.0  0.9174399999999999  0.59144  0.7858300000000001  1.0000
  C   C333      1.0  0.87813  0.62163  0.79874  1.0000
  O   O84       1.0  0.8344899999999997  0.60586  0.8416100000000001  1.0000
  C   C334      1.0  0.7979200000000001  0.62668  0.84106  1.0000
  C   C335      1.0  0.7935900000000001  0.6264099999999998  0.78596  1.0000
  C   C336      1.0  0.7537899999999998  0.64331  0.78767  1.0000
  C   C337      1.0  0.71968  0.16214999999999993  0.84476  1.0000
  C   C338      1.0  0.7188199999999999  0.15517  0.90151  1.0000
  C   C339      1.0  0.7591  0.13911  0.89914  1.0000
  C   C340      1.0  0.9092999999999999  0.5495999999999999  0.80248  1.0000
  N   N83       1.0  0.93695  0.4782100000000001  0.8032500000000001  1.0000
  C   C341      1.0  0.9569  0.4639999999999999  0.84155  1.0000
  C   C342      1.0  0.9417499999999999  0.4911799999999999  0.90201  1.0000
  C   C343      1.0  0.97476  0.50703  0.91812  1.0000
  C   C344      1.0  0.9610500000000001  0.5314399999999998  0.9744000000000002  1.0000
  C   C345      1.0  0.91421  0.54059  0.015380000000000001  1.0000
  C   C346      1.0  0.89949  0.5681299999999998  0.07517  1.0000
  N   N84       1.0  0.89392  0.61253  0.06619  1.0000
  C   C347      1.0  0.8811599999999998  0.5249399999999997  0.9992800000000001  1.0000
  C   C348      1.0  0.8947600000000002  0.4999999999999999  0.94345  1.0000
  H   H271      1.0  0.01995999999999997  0.5135599999999998  0.74259  1.0000
  H   H272      1.0  0.9700800000000002  0.13646  0.73824  1.0000
  H   H273      1.0  0.88128  0.12681999999999993  0.75225  1.0000
  H   H274      1.0  0.8833499999999999  0.65212  0.81925  1.0000
  H   H275      1.0  0.81976  0.61034  0.7432700000000001  1.0000
  H   H276      1.0  0.69018  0.17746  0.84636  1.0000
  H   H277      1.0  0.7598200000000002  0.13385  0.94187  1.0000
  H   H278      1.0  0.8743699999999999  0.5383699999999998  0.8263200000000002  1.0000
  H   H279      1.0  0.9018600000000001  0.4714  0.82344  1.0000
  H   H280      1.0  0.99508  0.46180999999999994  0.8130600000000001  1.0000
  H   H281      1.0  0.94518  0.43156  0.85425  1.0000
  H   H282      1.0  0.011169999999999994  0.50039  0.88729  1.0000
  H   H283      1.0  0.9869500000000001  0.54315  0.98614  1.0000
  H   H284      1.0  0.9241799999999999  0.5641799999999998  0.09344  1.0000
  H   H285      1.0  0.86608  0.5570499999999998  0.11214  1.0000
  H   H286      1.0  0.89302  0.61692  0.024500000000000004  1.0000
  H   H287      1.0  0.84481  0.5318699999999997  0.030160000000000003  1.0000
  H   H288      1.0  0.86854  0.48772  0.93268  1.0000
  C   C349      1.0  0.60844  0.7405899999999997  0.45410000000000006  1.0000
  Mn  Mn19      1.0  0.57018  0.6542999999999998  0.49666000000000005  1.0000
  O   O85       1.0  0.61675  0.6871999999999998  0.14524  1.0000
  O   O86       1.0  0.66825  0.65659  0.51581  1.0000
  O   O87       1.0  0.5718999999999999  0.6665399999999998  0.57469  1.0000
  Mn  Mn20      1.0  0.61486  0.63829  0.09349  1.0000
  O   O88       1.0  0.09697999999999998  0.72749  0.5709500000000001  1.0000
  Mn  Mn21      1.0  0.64009  0.09444  0.19436  1.0000
  O   O89       1.0  0.6116  0.65088  0.22918  1.0000
  O   O90       1.0  0.08193  0.071  0.20591  1.0000
  O   O91       1.0  0.05820999999999999  0.12250000000000001  0.16725000000000004  1.0000
  C   C350      1.0  0.67252  0.65536  0.45872000000000007  1.0000
  H   H289      1.0  0.89578  0.16395  0.66296  1.0000
  O   O92       1.0  0.61489  0.08541  0.5487  1.0000
  O   O93       1.0  0.56694  0.09421  0.50653  1.0000
  H   H290      1.0  0.9804400000000001  0.18767  0.63559  1.0000
  O   O94       1.0  0.65815  0.10936  0.11061  1.0000
  H   H291      1.0  0.98781  0.6184699999999997  0.47772  1.0000
  O   O95       1.0  0.72804  0.11719  0.04985  1.0000
  H   H292      1.0  0.5209300000000001  0.70715  0.44682  1.0000
  H   H293      1.0  0.63245  0.7866399999999998  0.38326  1.0000
  H   H294      1.0  0.63951  0.73565  0.4571200000000001  1.0000
  C   C351      1.0  0.60893  0.6859099999999999  0.20399  1.0000
  C   C352      1.0  0.77033  0.61298  0.18091  1.0000
  C   C353      1.0  0.74337  0.59962  0.15458  1.0000
  C   C354      1.0  0.70092  0.13493  0.2413  1.0000
  H   H295      1.0  0.8059599999999999  0.6041599999999998  0.16295000000000004  1.0000
  C   C355      1.0  0.66487  0.00503  0.19481  1.0000
  H   H296      1.0  0.66958  0.14549999999999993  0.28297  1.0000
  C   C356      1.0  0.18491999999999997  0.01921  0.10026000000000002  1.0000
  H   H297      1.0  0.75413  0.5776099999999997  0.11398  1.0000
  C   C357      1.0  0.19056  0.97656  0.10092  1.0000
  H   H298      1.0  0.64846  0.008289999999999997  0.24568  1.0000
  H   H299      1.0  0.1994  0.9532499999999998  0.06216  1.0000
  H   H300      1.0  0.18884  0.03545  0.06046  1.0000
  C   C358      1.0  0.04931  0.09047  0.2015  1.0000
  C   C359      1.0  0.59118  0.07034999999999997  0.52199  1.0000
  N   N85       1.0  0.9294500000000001  0.63654  0.5676  1.0000
  N   N86       1.0  0.00026999999999999377  0.6564099999999998  0.54405  1.0000
  N   N87       1.0  0.5717499999999999  0.71523  0.47619000000000006  1.0000
  N   N88       1.0  0.56695  0.75786  0.40997  1.0000
  N   N89       1.0  0.06620000000000001  0.7035299999999998  0.59309  1.0000
  C   C360      1.0  0.92683  0.15868  0.61824  1.0000
  C   C361      1.0  0.97082  0.17105  0.60362  1.0000
  C   C362      1.0  0.97408  0.63564  0.52318  1.0000
  N   N90       1.0  0.69989  0.61426  0.19204  1.0000
  N   N91       1.0  0.16873  0.03676  0.15934  1.0000
  N   N92       1.0  0.7435199999999998  0.13458  0.23642000000000002  1.0000
  N   N93       1.0  0.17829000000000003  0.9681199999999998  0.16031000000000004  1.0000
  N   N94       1.0  0.6925  0.13037  0.09277  1.0000
  O   O96       1.0  0.6373599999999999  0.65048  0.44736000000000004  1.0000
  C   C363      1.0  0.54708  0.7268899999999998  0.4489000000000001  1.0000
  C   C364      1.0  0.6048299999999999  0.76747  0.4149300000000001  1.0000
  C   C365      1.0  0.68073  0.8752599999999998  0.24224  1.0000
  C   C366      1.0  0.6965399999999997  0.9079599999999998  0.20159000000000002  1.0000
  C   C367      1.0  0.66659  0.92825  0.18624000000000002  1.0000
  C   C368      1.0  0.62163  0.9140799999999998  0.20759000000000002  1.0000
  C   C369      1.0  0.60528  0.8809499999999998  0.24732000000000004  1.0000
  C   C370      1.0  0.55468  0.86999  0.27692  1.0000
  O   O97       1.0  0.5471  0.83088  0.25234  1.0000
  C   C371      1.0  0.55927  0.79607  0.27313  1.0000
  C   C372      1.0  0.57849  0.76098  0.22988  1.0000
  C   C373      1.0  0.59205  0.7245399999999997  0.24673  1.0000
  C   C374      1.0  0.5874  0.7242499999999997  0.30697  1.0000
  C   C375      1.0  0.56719  0.75829  0.35111  1.0000
  C   C376      1.0  0.55101  0.7931999999999998  0.3356  1.0000
  C   C377      1.0  0.6351299999999999  0.8619899999999998  0.26478  1.0000
  N   N95       1.0  0.70941  0.85801  0.26541  1.0000
  C   C378      1.0  0.72507  0.88995  0.29735  1.0000
  C   C379      1.0  0.68663  0.92025  0.34237  1.0000
  C   C380      1.0  0.6877899999999999  0.9626099999999997  0.32942  1.0000
  C   C381      1.0  0.65156  0.9902599999999998  0.36928  1.0000
  C   C382      1.0  0.61343  0.97604  0.42263  1.0000
  C   C383      1.0  0.5768499999999999  0.007059999999999998  0.46835  1.0000
  N   N96       1.0  0.59309  0.028179999999999993  0.5092  1.0000
  C   C384      1.0  0.61239  0.9337799999999998  0.43599  1.0000
  C   C385      1.0  0.64863  0.9060399999999997  0.39597000000000004  1.0000
  H   H301      1.0  0.73096  0.9197499999999997  0.18563  1.0000
  H   H302      1.0  0.09853000000000002  0.9310099999999998  0.19661999999999996  1.0000
  H   H303      1.0  0.53595  0.89398  0.26627  1.0000
  H   H304      1.0  0.53792  0.87363  0.32888  1.0000
  H   H305      1.0  0.58259  0.76239  0.18315000000000003  1.0000
  H   H306      1.0  0.59953  0.69745  0.32041  1.0000
  H   H307      1.0  0.53379  0.8179199999999998  0.37208  1.0000
  H   H308      1.0  0.6227  0.83859  0.29876  1.0000
  H   H309      1.0  0.69323  0.8336899999999998  0.29482  1.0000
  H   H310      1.0  0.75463  0.90683  0.26148  1.0000
  H   H311      1.0  0.7383  0.87356  0.32457  1.0000
  H   H312      1.0  0.7166600000000001  0.9742699999999997  0.28823  1.0000
  H   H313      1.0  0.65346  0.02293  0.35889  1.0000
  H   H314      1.0  0.54452  0.99051  0.49786  1.0000
  H   H315      1.0  0.5689199999999999  0.02979  0.44203  1.0000
  H   H316      1.0  0.6101  0.00977  0.52608  1.0000
  H   H317      1.0  0.58374  0.9223799999999998  0.47766  1.0000
  H   H318      1.0  0.64704  0.87348  0.40667  1.0000
  C   C386      1.0  0.94603  0.02159  0.28824  1.0000
  C   C387      1.0  0.9915800000000001  0.03545  0.2556  1.0000
  C   C388      1.0  0.0008000000000000044  0.07677999999999997  0.23733  1.0000
  C   C389      1.0  0.9634699999999999  0.6045399999999997  0.25246  1.0000
  C   C390      1.0  0.9174399999999999  0.09144  0.28583  1.0000
  C   C391      1.0  0.8781300000000001  0.12162999999999997  0.29874  1.0000
  O   O98       1.0  0.8344900000000001  0.10586  0.34161  1.0000
  C   C392      1.0  0.79792  0.12668  0.34106  1.0000
  C   C393      1.0  0.79359  0.12641  0.28596  1.0000
  C   C394      1.0  0.7537899999999998  0.14330999999999994  0.28767  1.0000
  C   C395      1.0  0.71968  0.66215  0.34476  1.0000
  C   C396      1.0  0.71882  0.6551699999999998  0.40151  1.0000
  C   C397      1.0  0.7591  0.6391199999999998  0.39914  1.0000
  C   C398      1.0  0.9093  0.0496  0.30248  1.0000
  N   N97       1.0  0.9369500000000001  0.9782099999999998  0.30325  1.0000
  C   C399      1.0  0.9569000000000001  0.964  0.34155  1.0000
  C   C400      1.0  0.94176  0.9911799999999997  0.40201000000000003  1.0000
  C   C401      1.0  0.97476  0.007029999999999999  0.41812000000000005  1.0000
  C   C402      1.0  0.96105  0.03144  0.4744  1.0000
  C   C403      1.0  0.91421  0.04059  0.51538  1.0000
  C   C404      1.0  0.89949  0.06812  0.57517  1.0000
  N   N98       1.0  0.8939200000000002  0.11253  0.56619  1.0000
  C   C405      1.0  0.8811599999999999  0.024939999999999993  0.49928  1.0000
  C   C406      1.0  0.8947600000000002  0.9999999999999998  0.44345  1.0000
  H   H319      1.0  0.01996  0.013559999999999996  0.24259  1.0000
  H   H320      1.0  0.9700800000000002  0.63647  0.23824  1.0000
  H   H321      1.0  0.88128  0.62682  0.25225  1.0000
  H   H322      1.0  0.88335  0.1521199999999999  0.31925  1.0000
  H   H323      1.0  0.81976  0.11033999999999997  0.24327  1.0000
  H   H324      1.0  0.69018  0.67746  0.34636  1.0000
  H   H325      1.0  0.7598200000000002  0.6338599999999998  0.44187  1.0000
  H   H326      1.0  0.8743700000000001  0.03837  0.32632  1.0000
  H   H327      1.0  0.90186  0.9713999999999998  0.32344  1.0000
  H   H328      1.0  0.99508  0.96181  0.31306  1.0000
  H   H329      1.0  0.94518  0.93156  0.35425  1.0000
  H   H330      1.0  0.011179999999999966  0.0003900000000000047  0.3872900000000001  1.0000
  H   H331      1.0  0.9869500000000001  0.04314999999999999  0.48614  1.0000
  H   H332      1.0  0.92419  0.06418  0.59344  1.0000
  H   H333      1.0  0.86608  0.05705  0.61214  1.0000
  H   H334      1.0  0.89302  0.11692  0.52451  1.0000
  H   H335      1.0  0.84481  0.03186999999999999  0.53017  1.0000
  H   H336      1.0  0.86854  0.98772  0.43268  1.0000
  C   C407      1.0  0.60844  0.7405899999999997  0.9541  1.0000
  Mn  Mn22      1.0  0.57018  0.6543  0.99666  1.0000
  O   O99       1.0  0.61675  0.6871999999999998  0.64524  1.0000
  O   O100      1.0  0.66825  0.65659  0.01581  1.0000
  O   O101      1.0  0.5718999999999999  0.6665399999999998  0.07469  1.0000
  Mn  Mn23      1.0  0.61486  0.63829  0.59349  1.0000
  O   O102      1.0  0.09697  0.72749  0.07095  1.0000
  Mn  Mn24      1.0  0.64009  0.09444  0.69436  1.0000
  O   O103      1.0  0.6116  0.65088  0.72918  1.0000
  O   O104      1.0  0.08193000000000002  0.071  0.7059  1.0000
  O   O105      1.0  0.058209999999999984  0.12250000000000001  0.66725  1.0000
  C   C408      1.0  0.67252  0.65536  0.95872  1.0000
  H   H337      1.0  0.89578  0.16395  0.16296  1.0000
  O   O106      1.0  0.61489  0.08541  0.04869999999999999  1.0000
  O   O107      1.0  0.56694  0.09421  0.00654  1.0000
  H   H338      1.0  0.9804400000000001  0.18767  0.13559  1.0000
  O   O108      1.0  0.6581399999999998  0.10936  0.61061  1.0000
  H   H339      1.0  0.98781  0.6184699999999997  0.97772  1.0000
  O   O109      1.0  0.72804  0.11719  0.54985  1.0000
  H   H340      1.0  0.52093  0.70715  0.94682  1.0000
  H   H341      1.0  0.63245  0.7866399999999998  0.88326  1.0000
  H   H342      1.0  0.6395100000000001  0.73565  0.95712  1.0000
  C   C409      1.0  0.60893  0.6859  0.70399  1.0000
  C   C410      1.0  0.77033  0.61298  0.68091  1.0000
  C   C411      1.0  0.74337  0.59962  0.65458  1.0000
  C   C412      1.0  0.70092  0.13493  0.7413  1.0000
  H   H343      1.0  0.8059600000000001  0.6041599999999998  0.66295  1.0000
  C   C413      1.0  0.66488  0.005029999999999992  0.6948  1.0000
  H   H344      1.0  0.66958  0.14549999999999993  0.78297  1.0000
  C   C414      1.0  0.18492  0.019209999999999998  0.60026  1.0000
  H   H345      1.0  0.75413  0.5776099999999997  0.61398  1.0000
  C   C415      1.0  0.19055999999999998  0.97656  0.60092  1.0000
  H   H346      1.0  0.6484700000000001  0.008289999999999994  0.74568  1.0000
  H   H347      1.0  0.19938999999999998  0.9532499999999998  0.56216  1.0000
  H   H348      1.0  0.18882999999999997  0.035439999999999985  0.56046  1.0000
  C   C416      1.0  0.049310000000000014  0.09047  0.7015  1.0000
  C   C417      1.0  0.59118  0.07034999999999997  0.02199  1.0000
  N   N99       1.0  0.92945  0.63654  0.0676  1.0000
  N   N100      1.0  0.0002699999999999971  0.6564099999999998  0.04405  1.0000
  N   N101      1.0  0.5717499999999999  0.71523  0.9761900000000002  1.0000
  N   N102      1.0  0.56695  0.75786  0.90997  1.0000
  N   N103      1.0  0.0662  0.7035299999999998  0.09309  1.0000
  C   C418      1.0  0.92683  0.15868  0.11824  1.0000
  C   C419      1.0  0.97082  0.17104999999999995  0.10362000000000002  1.0000
  C   C420      1.0  0.97408  0.63564  0.02318  1.0000
  N   N104      1.0  0.69989  0.61426  0.69204  1.0000
  N   N105      1.0  0.16872999999999996  0.03676  0.65934  1.0000
  N   N106      1.0  0.74352  0.13458  0.73642  1.0000
  N   N107      1.0  0.17829000000000003  0.9681199999999998  0.66031  1.0000
  N   N108      1.0  0.6925  0.13035999999999995  0.59277  1.0000
  O   O110      1.0  0.63736  0.65048  0.94736  1.0000
  C   C421      1.0  0.54708  0.7268899999999998  0.9489  1.0000
  C   C422      1.0  0.60483  0.76747  0.91493  1.0000
  C   C423      1.0  0.6807300000000001  0.8752599999999998  0.74225  1.0000
  C   C424      1.0  0.6965399999999997  0.9079599999999998  0.7015900000000002  1.0000
  C   C425      1.0  0.66659  0.9282399999999997  0.68624  1.0000
  C   C426      1.0  0.62163  0.9140799999999998  0.7075900000000002  1.0000
  C   C427      1.0  0.60528  0.8809499999999998  0.7473200000000001  1.0000
  C   C428      1.0  0.55468  0.86999  0.7769200000000002  1.0000
  O   O111      1.0  0.5471  0.83088  0.75234  1.0000
  C   C429      1.0  0.5592699999999999  0.79607  0.7731300000000001  1.0000
  C   C430      1.0  0.57849  0.76098  0.72988  1.0000
  C   C431      1.0  0.5920500000000001  0.7245399999999997  0.74673  1.0000
  C   C432      1.0  0.5873999999999999  0.7242499999999997  0.80697  1.0000
  C   C433      1.0  0.56719  0.75829  0.85111  1.0000
  C   C434      1.0  0.5510099999999999  0.7931999999999998  0.8356  1.0000
  C   C435      1.0  0.63513  0.8619899999999998  0.76478  1.0000
  N   N109      1.0  0.7094099999999999  0.85802  0.76542  1.0000
  C   C436      1.0  0.72507  0.88995  0.7973600000000001  1.0000
  C   C437      1.0  0.6866299999999999  0.92025  0.84237  1.0000
  C   C438      1.0  0.6877900000000002  0.9626099999999997  0.82942  1.0000
  C   C439      1.0  0.6515499999999999  0.9902599999999998  0.86929  1.0000
  C   C440      1.0  0.61343  0.97604  0.92264  1.0000
  C   C441      1.0  0.5768499999999999  0.007060000000000001  0.96836  1.0000
  N   N110      1.0  0.59309  0.028179999999999993  0.0092  1.0000
  C   C442      1.0  0.61239  0.9337799999999998  0.936  1.0000
  C   C443      1.0  0.64863  0.9060399999999997  0.8959700000000002  1.0000
  H   H349      1.0  0.73096  0.9197499999999997  0.68563  1.0000
  H   H350      1.0  0.09853999999999996  0.9309999999999998  0.6966200000000001  1.0000
  H   H351      1.0  0.5359499999999999  0.89398  0.7662700000000001  1.0000
  H   H352      1.0  0.53792  0.87363  0.82888  1.0000
  H   H353      1.0  0.5826  0.76239  0.68315  1.0000
  H   H354      1.0  0.59953  0.69745  0.82041  1.0000
  H   H355      1.0  0.53379  0.8179199999999998  0.8720800000000001  1.0000
  H   H356      1.0  0.6227  0.83859  0.79877  1.0000
  H   H357      1.0  0.69323  0.8336899999999998  0.7948200000000001  1.0000
  H   H358      1.0  0.7546299999999999  0.9068399999999998  0.7614800000000002  1.0000
  H   H359      1.0  0.7383  0.8735699999999997  0.82457  1.0000
  H   H360      1.0  0.71666  0.9742699999999997  0.78824  1.0000
  H   H361      1.0  0.65345  0.02293  0.85889  1.0000
  H   H362      1.0  0.54452  0.99051  0.99787  1.0000
  H   H363      1.0  0.5689199999999999  0.02979  0.94204  1.0000
  H   H364      1.0  0.6101  0.00977  0.026080000000000002  1.0000
  H   H365      1.0  0.5837399999999999  0.9223799999999998  0.9776600000000001  1.0000
  H   H366      1.0  0.6470399999999998  0.87348  0.9066800000000002  1.0000
  C   C444      1.0  0.9460299999999999  0.021589999999999998  0.78824  1.0000
  C   C445      1.0  0.9915800000000001  0.03545  0.7556000000000002  1.0000
  C   C446      1.0  0.0007999999999999992  0.07676999999999998  0.73733  1.0000
  C   C447      1.0  0.9634699999999999  0.6045399999999997  0.75246  1.0000
  C   C448      1.0  0.91744  0.09144000000000001  0.7858300000000001  1.0000
  C   C449      1.0  0.87813  0.12162999999999999  0.79874  1.0000
  O   O112      1.0  0.8344899999999998  0.10585999999999997  0.8416100000000001  1.0000
  C   C450      1.0  0.79792  0.12668  0.84106  1.0000
  C   C451      1.0  0.7935900000000001  0.12641  0.78596  1.0000
  C   C452      1.0  0.75379  0.14330999999999994  0.78767  1.0000
  C   C453      1.0  0.71968  0.66215  0.84476  1.0000
  C   C454      1.0  0.71882  0.6551699999999998  0.90151  1.0000
  C   C455      1.0  0.7591  0.6391199999999998  0.89914  1.0000
  C   C456      1.0  0.9092999999999999  0.0496  0.80248  1.0000
  N   N111      1.0  0.93695  0.9782099999999998  0.8032500000000001  1.0000
  C   C457      1.0  0.9569  0.964  0.84155  1.0000
  C   C458      1.0  0.9417500000000001  0.9911799999999997  0.90201  1.0000
  C   C459      1.0  0.97476  0.007030000000000002  0.91812  1.0000
  C   C460      1.0  0.9610500000000001  0.03144000000000001  0.9744000000000002  1.0000
  C   C461      1.0  0.91421  0.04059  0.015380000000000001  1.0000
  C   C462      1.0  0.89948  0.06813  0.07517  1.0000
  N   N112      1.0  0.89392  0.11253  0.06619  1.0000
  C   C463      1.0  0.8811599999999998  0.02494  0.9992800000000001  1.0000
  C   C464      1.0  0.89476  0.0  0.94345  1.0000
  H   H367      1.0  0.019959999999999985  0.013559999999999992  0.74259  1.0000
  H   H368      1.0  0.9700799999999997  0.63646  0.73824  1.0000
  H   H369      1.0  0.8812800000000001  0.62682  0.75225  1.0000
  H   H370      1.0  0.8833499999999999  0.15211  0.81925  1.0000
  H   H371      1.0  0.81976  0.11033  0.7432700000000001  1.0000
  H   H372      1.0  0.69018  0.67746  0.84636  1.0000
  H   H373      1.0  0.75982  0.6338599999999998  0.94187  1.0000
  H   H374      1.0  0.87437  0.03837000000000001  0.8263200000000002  1.0000
  H   H375      1.0  0.90186  0.9713999999999998  0.82344  1.0000
  H   H376      1.0  0.9950799999999997  0.96181  0.8130600000000001  1.0000
  H   H377      1.0  0.94518  0.93156  0.85425  1.0000
  H   H378      1.0  0.011170000000000001  0.0003899999999999977  0.88729  1.0000
  H   H379      1.0  0.9869500000000001  0.04314999999999999  0.98614  1.0000
  H   H380      1.0  0.92418  0.06418  0.09344  1.0000
  H   H381      1.0  0.86608  0.05705  0.11214  1.0000
  H   H382      1.0  0.89302  0.11692  0.02451  1.0000
  H   H383      1.0  0.84481  0.03186999999999999  0.030160000000000003  1.0000
  H   H384      1.0  0.86854  0.98772  0.93268  1.0000
