data_image0
_chemical_formula_structural       COFe2O3Fe2O3C6O5CO6C34H30C34H30COFe2O3Fe2O3C6O5CO6C34H30C34H30COFe2O3Fe2O3C6O5CO6C34H30C34H30COFe2O3Fe2O3C6O5CO6C34H30C34H30COFe2O3Fe2O3C6O5CO6C34H30C34H30COFe2O3Fe2O3C6O5CO6C34H30C34H30COFe2O3Fe2O3C6O5CO6C34H30C34H30COFe2O3Fe2O3C6O5CO6C34H30C34H30COFe2O3Fe2O3C6O5CO6C34H30C34H30COFe2O3Fe2O3C6O5CO6C34H30C34H30COFe2O3Fe2O3C6O5CO6C34H30C34H30COFe2O3Fe2O3C6O5CO6C34H30C34H30
_chemical_formula_sum              "C912 O216 Fe48 H720"
_cell_length_a       29.007
_cell_length_b       29.0135
_cell_length_c       33.9621
_cell_angle_alpha    80.589
_cell_angle_beta     114.85099999999998
_cell_angle_gamma    91.809

_symmetry_space_group_name_H-M    'P 1'
_symmetry_Int_Tables_number       1

loop_
  _symmetry_equiv_pos_as_xyz
  'x,y,z'

loop_
  _atom_site_type_symbol
  _atom_site_label
  _atom_site_symmetry_multiplicity
  _atom_site_fract_x
  _atom_site_fract_y
  _atom_site_fract_z
  _atom_site_occupancy
  C   C1        1.0  0.22107  0.21914999999999998  0.39026  1.0000
  O   O1        1.0  0.21579  0.55832  0.37549  1.0000
  Fe  Fe1       1.0  0.66469  0.08177999999999999  0.4415  1.0000
  Fe  Fe2       1.0  0.20491  0.12247  0.37297  1.0000
  O   O2        1.0  0.24393999999999996  0.5115899999999999  0.4448  1.0000
  O   O3        1.0  0.31082  0.07451  0.22692  1.0000
  O   O4        1.0  0.31873  0.02765  0.18343  1.0000
  Fe  Fe3       1.0  0.26958  0.06701  0.13716  1.0000
  Fe  Fe4       1.0  0.24062999999999996  0.062369999999999995  0.21866  1.0000
  O   O5        1.0  0.61675  0.08223  0.141  1.0000
  O   O6        1.0  0.6503799999999998  0.53862  0.20179  1.0000
  O   O7        1.0  0.22055999999999992  0.05331  0.16025  1.0000
  C   C2        1.0  0.25654  0.48419999999999996  0.28259  1.0000
  C   C3        1.0  0.22661  0.51671  0.4017  1.0000
  C   C4        1.0  0.1964  0.15800999999999998  0.16127  1.0000
  C   C5        1.0  0.33996999999999994  0.05458  0.21232  1.0000
  C   C6        1.0  0.61626  0.07884999999999999  0.33681  1.0000
  C   C7        1.0  0.62926  0.07112  0.18621  1.0000
  O   O8        1.0  0.24656999999999996  0.52991  0.26582  1.0000
  O   O9        1.0  0.24801  0.52902  0.26884  1.0000
  O   O10       1.0  0.22084  0.12975  0.19924  1.0000
  O   O11       1.0  0.17482  0.14525999999999997  0.12276  1.0000
  O   O12       1.0  0.63556  0.10484  0.36635  1.0000
  C   C8        1.0  0.3171999999999999  0.11855000000000002  0.41705  1.0000
  O   O13       1.0  0.62612  0.1039  0.37129  1.0000
  O   O14       1.0  0.31871  0.08232000000000003  0.44651  1.0000
  O   O15       1.0  0.27463  0.13909999999999997  0.38544  1.0000
  O   O16       1.0  0.2191599999999999  0.10070000000000001  0.4286599999999999  1.0000
  O   O17       1.0  0.18774  0.18715  0.37452  1.0000
  O   O18       1.0  0.26397  0.20571999999999996  0.42357  1.0000
  C   C9        1.0  0.15502  0.326  0.30577  1.0000
  C   C10       1.0  0.17648  0.28031  0.3233  1.0000
  C   C11       1.0  0.16458999999999996  0.24383999999999997  0.29378  1.0000
  C   C12       1.0  0.21072999999999997  0.26967  0.36855  1.0000
  C   C13       1.0  0.23741  0.30813  0.3891  1.0000
  C   C14       1.0  0.28508  0.30166  0.43179  1.0000
  C   C15       1.0  0.21740999999999994  0.35429000000000005  0.36888  1.0000
  C   C16       1.0  0.24856999999999996  0.39679  0.3775  1.0000
  C   C17       1.0  0.26592  0.41585  0.34474  1.0000
  C   C18       1.0  0.29751  0.38650000000000007  0.3319699999999999  1.0000
  C   C19       1.0  0.25061999999999995  0.4624500000000001  0.32319999999999993  1.0000
  C   C20       1.0  0.22113  0.48597  0.33737  1.0000
  C   C21       1.0  0.17521999999999993  0.51385  0.30492  1.0000
  C   C22       1.0  0.22844  0.4759799999999999  0.38098  1.0000
  C   C23       1.0  0.23826  0.4284399999999999  0.4009  1.0000
  C   C24       1.0  0.7312399999999998  0.41058  0.44176  1.0000
  C   C25       1.0  0.16938999999999999  0.36011  0.33267  1.0000
  C   C26       1.0  0.13813999999999996  0.40533  0.31661  1.0000
  C   C27       1.0  0.13067  0.34307  0.25785  1.0000
  C   C28       1.0  0.07829999999999995  0.34166  0.23286  1.0000
  C   C29       1.0  0.55778  0.35794  0.18624  1.0000
  C   C30       1.0  0.08953  0.37537  0.16727  1.0000
  C   C31       1.0  0.07909999999999998  0.36275  0.12544  1.0000
  C   C32       1.0  0.5946699999999999  0.33338  0.11155  1.0000
  C   C33       1.0  0.6189  0.2878899999999999  0.12226999999999999  1.0000
  C   C34       1.0  0.16376  0.28328  0.11823  1.0000
  C   C35       1.0  0.69483  0.24322  0.13614  1.0000
  C   C36       1.0  0.68106  0.20608  0.16027  1.0000
  C   C37       1.0  0.63682  0.21042  0.16629  1.0000
  C   C38       1.0  0.60574  0.25101  0.14796  1.0000
  C   C39       1.0  0.55949  0.25344  0.15704  1.0000
  C   C40       1.0  0.14086  0.38312  0.1935  1.0000
  C   C41       1.0  0.17680999999999997  0.40130999999999994  0.17341999999999994  1.0000
  C   C42       1.0  0.16115  0.36534  0.23833  1.0000
  H   H1        1.0  0.19807  0.21974  0.30404  1.0000
  H   H2        1.0  0.13241  0.22415999999999997  0.29587  1.0000
  H   H3        1.0  0.15478  0.2589400000000001  0.25897  1.0000
  H   H4        1.0  0.30845  0.33295  0.43525  1.0000
  H   H5        1.0  0.2749500000000001  0.29555  0.46015  1.0000
  H   H6        1.0  0.27378  0.28736  0.10602  1.0000
  H   H7        1.0  0.28014  0.3868  0.29605  1.0000
  H   H8        1.0  0.30251999999999996  0.34982  0.34919  1.0000
  H   H9        1.0  0.3357  0.4013  0.34129  1.0000
  H   H10       1.0  0.18982  0.54781  0.30009  1.0000
  H   H11       1.0  0.15814999999999996  0.50032  0.27352  1.0000
  H   H12       1.0  0.14539  0.5147000000000002  0.31717  1.0000
  H   H13       1.0  0.26848  0.40977  0.47111  1.0000
  H   H14       1.0  0.70256  0.43258  0.44446  1.0000
  H   H15       1.0  0.71797  0.37437  0.44249  1.0000
  H   H16       1.0  0.09706000000000001  0.39826  0.30131  1.0000
  H   H17       1.0  0.14339999999999997  0.42429  0.34377  1.0000
  H   H18       1.0  0.14747  0.42651  0.29108  1.0000
  H   H19       1.0  0.55406  0.32596  0.2466  1.0000
  H   H20       1.0  0.51843  0.35153  0.16642  1.0000
  H   H21       1.0  0.17581  0.31234  0.10096  1.0000
  H   H22       1.0  0.22768  0.2385  0.1309  1.0000
  H   H23       1.0  0.62378  0.18054  0.18181999999999995  1.0000
  H   H24       1.0  0.5421499999999998  0.21882  0.15687  1.0000
  H   H25       1.0  0.53014  0.27909999999999996  0.13205  1.0000
  H   H26       1.0  0.5709  0.26281999999999994  0.19005  1.0000
  H   H27       1.0  0.2074  0.42078  0.196  1.0000
  H   H28       1.0  0.19439  0.37155  0.16704  1.0000
  H   H29       1.0  0.15639  0.42553  0.14201  1.0000
  H   H30       1.0  0.20135  0.3673299999999999  0.25797  1.0000
  C   C43       1.0  0.41491  0.15433  0.23336  1.0000
  C   C44       1.0  0.37274  0.13366000000000003  0.20524  1.0000
  C   C45       1.0  0.32134  0.15951  0.18486999999999995  1.0000
  C   C46       1.0  0.37887  0.0852  0.20568  1.0000
  C   C47       1.0  0.4272399999999999  0.06835  0.20997  1.0000
  C   C48       1.0  0.43459  0.01921  0.20433  1.0000
  C   C49       1.0  0.4689699999999999  0.09803  0.22635  1.0000
  C   C50       1.0  0.52352  0.09559  0.22966  1.0000
  C   C51       1.0  0.55694  0.11955000000000002  0.26238  1.0000
  C   C52       1.0  0.55302  0.17234  0.25377  1.0000
  C   C53       1.0  0.6039  0.09920000000000001  0.28768  1.0000
  C   C54       1.0  0.62913  0.09072  0.26059  1.0000
  C   C55       1.0  0.67637  0.11829000000000002  0.27028  1.0000
  C   C56       1.0  0.59949  0.08195  0.2146  1.0000
  C   C57       1.0  0.54511  0.07877  0.20235  1.0000
  C   C58       1.0  0.52734  0.52084  0.19981  1.0000
  C   C59       1.0  0.46056  0.12798999999999994  0.25201  1.0000
  C   C60       1.0  0.48365  0.11274000000000003  0.30137  1.0000
  C   C61       1.0  0.40781  0.19077  0.2558  1.0000
  C   C62       1.0  0.38032  0.18078  0.28132  1.0000
  C   C63       1.0  0.37716  0.69359  0.33036  1.0000
  C   C64       1.0  0.41304  0.24861999999999998  0.3147  1.0000
  C   C65       1.0  0.43714  0.25766  0.35887  1.0000
  C   C66       1.0  0.45158  0.72956  0.41027  1.0000
  C   C67       1.0  0.44628  0.691  0.44016  1.0000
  C   C68       1.0  0.4158499999999999  0.20908  0.44829  1.0000
  C   C69       1.0  0.36898  0.6766999999999999  0.44807  1.0000
  C   C70       1.0  0.36446  0.63431  0.43254  1.0000
  C   C71       1.0  0.40451999999999994  0.61723  0.42576  1.0000
  C   C72       1.0  0.44608  0.64564  0.42951  1.0000
  C   C73       1.0  0.48533  0.63082  0.4154  1.0000
  C   C74       1.0  0.4343000000000001  0.26294  0.28468  1.0000
  C   C75       1.0  0.45995  0.3086099999999999  0.2848699999999999  1.0000
  C   C76       1.0  0.43227  0.23311  0.25543  1.0000
  H   H31       1.0  0.32505  0.19731  0.17514  1.0000
  H   H32       1.0  0.29502  0.14539  0.15542  1.0000
  H   H33       1.0  0.30471999999999994  0.15768  0.20885  1.0000
  H   H34       1.0  0.41977999999999993  0.01723  0.16877  1.0000
  H   H35       1.0  0.4752  0.0074299999999999965  0.22146  1.0000
  H   H36       1.0  0.40565  0.9912799999999998  0.54112  1.0000
  H   H37       1.0  0.55978  0.18535  0.28464  1.0000
  H   H38       1.0  0.51541  0.18661000000000003  0.22817  1.0000
  H   H39       1.0  0.58103  0.18611  0.24105  1.0000
  H   H40       1.0  0.66567  0.15475  0.25311  1.0000
  H   H41       1.0  0.19740999999999997  0.1208  0.30582  1.0000
  H   H42       1.0  0.7030999999999998  0.10409  0.26018  1.0000
  H   H43       1.0  0.47346  0.07036999999999999  0.14901  1.0000
  H   H44       1.0  0.56164  0.49754000000000004  0.21078  1.0000
  H   H45       1.0  0.50241  0.50081  0.21309  1.0000
  H   H46       1.0  0.45385  0.09617999999999999  0.31064  1.0000
  H   H47       1.0  0.51403  0.08509000000000003  0.3129299999999999  1.0000
  H   H48       1.0  0.49899999999999994  0.14300999999999997  0.31839  1.0000
  H   H49       1.0  0.36332999999999993  0.624  0.31574  1.0000
  H   H50       1.0  0.35788  0.68855  0.35184  1.0000
  H   H51       1.0  0.41855999999999993  0.24212000000000003  0.45995  1.0000
  H   H52       1.0  0.35042  0.19335999999999995  0.458  1.0000
  H   H53       1.0  0.4016  0.58398  0.4144099999999999  1.0000
  H   H54       1.0  0.48232  0.59346  0.41153  1.0000
  H   H55       1.0  0.52395  0.63591  0.44046  1.0000
  H   H56       1.0  0.48038999999999993  0.6517199999999999  0.38346  1.0000
  H   H57       1.0  0.4695799999999999  0.31706  0.25622  1.0000
  H   H58       1.0  0.43346999999999997  0.33686  0.28255  1.0000
  H   H59       1.0  0.49503999999999987  0.30739  0.31571  1.0000
  H   H60       1.0  0.4514099999999999  0.24165000000000003  0.23399  1.0000
  C   C77       1.0  0.20499999999999993  0.22521  0.71942  1.0000
  O   O19       1.0  0.21737  0.5647  0.69493  1.0000
  Fe  Fe5       1.0  0.66281  0.06902  0.77343  1.0000
  Fe  Fe6       1.0  0.19995000000000004  0.12473000000000001  0.70859  1.0000
  O   O20       1.0  0.24836999999999995  0.51898  0.76385  1.0000
  O   O21       1.0  0.3114999999999999  0.07365999999999999  0.55896  1.0000
  O   O22       1.0  0.31887  0.02549000000000001  0.51632  1.0000
  Fe  Fe7       1.0  0.2692799999999999  0.06401000000000001  0.47005  1.0000
  Fe  Fe8       1.0  0.24220000000000003  0.06192999999999999  0.552  1.0000
  O   O23       1.0  0.6162099999999998  0.07712999999999999  0.4753  1.0000
  O   O24       1.0  0.67102  0.5480799999999998  0.55205  1.0000
  O   O25       1.0  0.22125  0.05058000000000001  0.4942  1.0000
  C   C78       1.0  0.24168999999999993  0.4609  0.59778  1.0000
  C   C79       1.0  0.23305000000000003  0.52399  0.72116  1.0000
  C   C80       1.0  0.19504999999999995  0.15602  0.49305  1.0000
  C   C81       1.0  0.3402599999999999  0.05281999999999998  0.54471  1.0000
  C   C82       1.0  0.61726  0.07577999999999999  0.66979  1.0000
  C   C83       1.0  0.62996  0.06860000000000001  0.5208  1.0000
  O   O26       1.0  0.2632  0.49397  0.58004  1.0000
  O   O27       1.0  0.26513  0.4910399999999999  0.58092  1.0000
  O   O28       1.0  0.22195  0.1291  0.53125  1.0000
  O   O29       1.0  0.17274  0.14174  0.45521  1.0000
  O   O30       1.0  0.6329  0.10150000000000002  0.70034  1.0000
  C   C84       1.0  0.31112999999999996  0.12747000000000006  0.7527299999999998  1.0000
  O   O31       1.0  0.62527  0.09790999999999998  0.70525  1.0000
  O   O32       1.0  0.31483  0.09113999999999998  0.78267  1.0000
  O   O33       1.0  0.26773  0.14636  0.72133  1.0000
  O   O34       1.0  0.21411999999999995  0.10484999999999997  0.76633  1.0000
  O   O35       1.0  0.17626000000000006  0.18866  0.70776  1.0000
  O   O36       1.0  0.2524499999999999  0.21776999999999996  0.74736  1.0000
  C   C85       1.0  0.12745  0.32839  0.63151  1.0000
  C   C86       1.0  0.14970000000000006  0.28292  0.65195  1.0000
  C   C87       1.0  0.14030000000000006  0.24434999999999998  0.62506  1.0000
  C   C88       1.0  0.1855699999999999  0.27477  0.6969199999999999  1.0000
  C   C89       1.0  0.20896  0.31502  0.71573  1.0000
  C   C90       1.0  0.25741  0.31123  0.75744  1.0000
  C   C91       1.0  0.18970999999999993  0.3603  0.69184  1.0000
  C   C92       1.0  0.22343  0.40071  0.69389  1.0000
  C   C93       1.0  0.24457000000000004  0.40703  0.66279  1.0000
  C   C94       1.0  0.2652999999999999  0.36569  0.65216  1.0000
  C   C95       1.0  0.2522  0.45229  0.64529  1.0000
  C   C96       1.0  0.2570899999999999  0.48857000000000006  0.66943  1.0000
  C   C97       1.0  0.2884899999999999  0.5296599999999999  0.66415  1.0000
  C   C98       1.0  0.23738999999999996  0.48308000000000006  0.70172  1.0000
  C   C99       1.0  0.21899999999999992  0.43924  0.71296  1.0000
  C   C100      1.0  0.69454  0.43759000000000003  0.7443  1.0000
  C   C101      1.0  0.14238  0.3654  0.65532  1.0000
  C   C102      1.0  0.11633999999999993  0.41344000000000003  0.6345799999999999  1.0000
  C   C103      1.0  0.10474000000000001  0.34202  0.58308  1.0000
  C   C104      1.0  0.053349999999999995  0.33722  0.55655  1.0000
  C   C105      1.0  0.53537  0.35142  0.51134  1.0000
  C   C106      1.0  0.06807999999999993  0.36611  0.49166  1.0000
  C   C107      1.0  0.06055  0.35239  0.45082  1.0000
  C   C108      1.0  0.57945  0.3257  0.43987  1.0000
  C   C109      1.0  0.60717  0.28181  0.45166  1.0000
  C   C110      1.0  0.15325  0.2790999999999999  0.44704  1.0000
  C   C111      1.0  0.6861299999999999  0.24205  0.46631  1.0000
  C   C112      1.0  0.67466  0.20341  0.4904  1.0000
  C   C113      1.0  0.63036  0.205  0.49685  1.0000
  C   C114      1.0  0.59699  0.24415  0.4786199999999999  1.0000
  C   C115      1.0  0.55184  0.24468  0.48943  1.0000
  C   C116      1.0  0.11821000000000001  0.37638  0.51881  1.0000
  C   C117      1.0  0.15609999999999996  0.39254999999999995  0.5004  1.0000
  C   C118      1.0  0.13619  0.36292  0.56403  1.0000
  H   H61       1.0  0.17671999999999993  0.22609999999999997  0.6322  1.0000
  H   H62       1.0  0.11521000000000002  0.21976  0.63378  1.0000
  H   H63       1.0  0.12268999999999995  0.25648  0.58926  1.0000
  H   H64       1.0  0.29017  0.30362  0.75033  1.0000
  H   H65       1.0  0.26413  0.34412  0.77137  1.0000
  H   H66       1.0  0.31069  0.27332  0.43354  1.0000
  H   H67       1.0  0.26531  0.3728999999999999  0.61908  1.0000
  H   H68       1.0  0.24367999999999992  0.33384  0.65316  1.0000
  H   H69       1.0  0.30526999999999993  0.3579  0.6766399999999999  1.0000
  H   H70       1.0  0.3040099999999999  0.54715  0.69348  1.0000
  H   H71       1.0  0.32194  0.51767  0.6601  1.0000
  H   H72       1.0  0.2661399999999999  0.55508  0.63494  1.0000
  H   H73       1.0  0.22538999999999992  0.43282000000000004  0.77896  1.0000
  H   H74       1.0  0.66662  0.46682000000000007  0.7363  1.0000
  H   H75       1.0  0.67381  0.40493  0.74457  1.0000
  H   H76       1.0  0.07539  0.41044  0.61343  1.0000
  H   H77       1.0  0.11806999999999998  0.43355000000000005  0.6601499999999999  1.0000
  H   H78       1.0  0.13448000000000004  0.43320999999999993  0.61433  1.0000
  H   H79       1.0  0.5286  0.32491  0.57163  1.0000
  H   H80       1.0  0.4969399999999999  0.34302  0.4909  1.0000
  H   H81       1.0  0.1629  0.30856  0.42831  1.0000
  H   H82       1.0  0.22195  0.23978999999999998  0.46352  1.0000
  H   H83       1.0  0.61954  0.17425  0.51317  1.0000
  H   H84       1.0  0.5371900000000001  0.20906000000000002  0.4919  1.0000
  H   H85       1.0  0.52051  0.2682  0.46421  1.0000
  H   H86       1.0  0.56332  0.25665  0.52132  1.0000
  H   H87       1.0  0.18499  0.41409  0.522  1.0000
  H   H88       1.0  0.17584  0.36164  0.498  1.0000
  H   H89       1.0  0.13677999999999996  0.41418  0.4673599999999999  1.0000
  H   H90       1.0  0.17561  0.36727  0.58445  1.0000
  C   C119      1.0  0.41904999999999987  0.14521000000000003  0.57481  1.0000
  C   C120      1.0  0.37695  0.12988  0.54183  1.0000
  C   C121      1.0  0.32706  0.15832  0.52174  1.0000
  C   C122      1.0  0.37984  0.08222000000000002  0.53835  1.0000
  C   C123      1.0  0.42739  0.06337  0.54323  1.0000
  C   C124      1.0  0.4312299999999999  0.01580000000000001  0.5325  1.0000
  C   C125      1.0  0.4711600000000001  0.08831999999999998  0.56558  1.0000
  C   C126      1.0  0.52459  0.08828999999999998  0.56614  1.0000
  C   C127      1.0  0.55634  0.11556  0.5962  1.0000
  C   C128      1.0  0.5469099999999998  0.1679  0.58409  1.0000
  C   C129      1.0  0.60476  0.09870000000000001  0.62146  1.0000
  C   C130      1.0  0.62963  0.09055  0.59417  1.0000
  C   C131      1.0  0.67471  0.12102  0.60226  1.0000
  C   C132      1.0  0.60011  0.07898  0.54916  1.0000
  C   C133      1.0  0.54632  0.07254000000000001  0.53831  1.0000
  C   C134      1.0  0.51274  0.5462500000000002  0.50574  1.0000
  C   C135      1.0  0.46296  0.11633  0.59325  1.0000
  C   C136      1.0  0.4911  0.10475  0.64279  1.0000
  C   C137      1.0  0.41214  0.18137  0.59748  1.0000
  C   C138      1.0  0.38235  0.17203999999999997  0.62098  1.0000
  C   C139      1.0  0.37684  0.71912  0.63664  1.0000
  C   C140      1.0  0.40251  0.24656  0.64508  1.0000
  C   C141      1.0  0.42155  0.26171  0.6869  1.0000
  C   C142      1.0  0.45073  0.74637  0.7217  1.0000
  C   C143      1.0  0.43750000000000006  0.71061  0.74931  1.0000
  C   C144      1.0  0.40751  0.21997  0.78139  1.0000
  C   C145      1.0  0.35727  0.69862  0.75299  1.0000
  C   C146      1.0  0.35538  0.65373  0.74269  1.0000
  C   C147      1.0  0.39825  0.63475  0.74133  1.0000
  C   C148      1.0  0.43932999999999994  0.66332  0.74378  1.0000
  C   C149      1.0  0.48447  0.64301  0.74067  1.0000
  C   C150      1.0  0.42586999999999997  0.25922999999999996  0.61637  1.0000
  C   C151      1.0  0.44255  0.3082  0.60957  1.0000
  C   C152      1.0  0.43162  0.22572  0.5931  1.0000
  H   H91       1.0  0.33337999999999995  0.19582  0.51335  1.0000
  H   H92       1.0  0.30002999999999996  0.14527  0.49189  1.0000
  H   H93       1.0  0.30960999999999994  0.15691000000000002  0.54516  1.0000
  H   H94       1.0  0.42027  0.018489999999999996  0.4967  1.0000
  H   H95       1.0  0.46998999999999996  0.99983  0.55214  1.0000
  H   H96       1.0  0.41562  0.99549  0.88477  1.0000
  H   H97       1.0  0.54673  0.18212000000000003  0.61235  1.0000
  H   H98       1.0  0.5097  0.17806000000000002  0.55564  1.0000
  H   H99       1.0  0.57636  0.18402  0.57428  1.0000
  H   H100      1.0  0.66126  0.15753  0.58649  1.0000
  H   H101      1.0  0.19667000000000007  0.12110000000000001  0.63832  1.0000
  H   H102      1.0  0.70081  0.11017  0.5898  1.0000
  H   H103      1.0  0.47715  0.06657  0.48169  1.0000
  H   H104      1.0  0.52749  0.54966  0.48028  1.0000
  H   H105      1.0  0.51675  0.50875  0.52049  1.0000
  H   H106      1.0  0.4634799999999999  0.09600999999999998  0.65739  1.0000
  H   H107      1.0  0.5166099999999999  0.07321000000000001  0.6528099999999999  1.0000
  H   H108      1.0  0.51313  0.13469  0.65651  1.0000
  H   H109      1.0  0.3571099999999999  0.6542800000000001  0.6139199999999999  1.0000
  H   H110      1.0  0.36042  0.70988  0.66006  1.0000
  H   H111      1.0  0.40948  0.25368  0.79168  1.0000
  H   H112      1.0  0.34042  0.20520000000000002  0.78967  1.0000
  H   H113      1.0  0.39829  0.59909  0.73563  1.0000
  H   H114      1.0  0.5132599999999998  0.62933  0.7743199999999998  1.0000
  H   H115      1.0  0.5019  0.6695  0.72427  1.0000
  H   H116      1.0  0.47322  0.61368  0.72173  1.0000
  H   H117      1.0  0.45323  0.31425  0.58147  1.0000
  H   H118      1.0  0.41051  0.33313  0.60194  1.0000
  H   H119      1.0  0.47497999999999996  0.31562  0.63946  1.0000
  H   H120      1.0  0.45125  0.23388  0.57199  1.0000
  C   C153      1.0  0.22095  0.2314  0.04763  1.0000
  O   O37       1.0  0.22446  0.57392  0.01935  1.0000
  Fe  Fe9       1.0  0.66649  0.08656  0.10822  1.0000
  Fe  Fe10      1.0  0.20747  0.12878  0.0409  1.0000
  O   O38       1.0  0.22982  0.52356  0.08037  1.0000
  O   O39       1.0  0.3086399999999999  0.07356000000000004  0.8912299999999997  1.0000
  O   O40       1.0  0.32038999999999984  0.02773000000000003  0.8489799999999997  1.0000
  Fe  Fe11      1.0  0.26671  0.06536999999999998  0.80526  1.0000
  Fe  Fe12      1.0  0.23905  0.05877  0.88373  1.0000
  O   O41       1.0  0.62311  0.08931000000000004  0.8102799999999998  1.0000
  O   O42       1.0  0.69399  0.5608  0.88637  1.0000
  O   O43       1.0  0.21974999999999986  0.04091000000000003  0.8277699999999999  1.0000
  C   C154      1.0  0.28945  0.4615699999999999  0.93994  1.0000
  C   C155      1.0  0.23013  0.531  0.04130999999999999  1.0000
  C   C156      1.0  0.20245999999999995  0.14688000000000004  0.81752  1.0000
  C   C157      1.0  0.33992  0.05462000000000001  0.87823  1.0000
  C   C158      1.0  0.61991  0.08768  0.00316  1.0000
  C   C159      1.0  0.63031  0.07262999999999999  0.85362  1.0000
  O   O44       1.0  0.2804499999999999  0.49514  0.90457  1.0000
  O   O45       1.0  0.28073  0.49388  0.90644  1.0000
  O   O46       1.0  0.215  0.12447  0.8579  1.0000
  O   O47       1.0  0.19989999999999994  0.12487000000000001  0.78498  1.0000
  O   O48       1.0  0.6392699999999999  0.1134  0.03321  1.0000
  C   C160      1.0  0.31919999999999993  0.12102  0.08537  1.0000
  O   O49       1.0  0.62996  0.11177  0.03824  1.0000
  O   O50       1.0  0.3198  0.08473999999999998  0.11437  1.0000
  O   O51       1.0  0.27734999999999993  0.14303  0.05456  1.0000
  O   O52       1.0  0.22008  0.10442  0.09586  1.0000
  O   O53       1.0  0.19227  0.19393  0.046  1.0000
  O   O54       1.0  0.26945  0.2262  0.05801  1.0000
  C   C161      1.0  0.13673999999999994  0.32892  0.95795  1.0000
  C   C162      1.0  0.15971999999999997  0.28421  0.98059  1.0000
  C   C163      1.0  0.15064  0.24300000000000002  0.95651  1.0000
  C   C164      1.0  0.19691  0.2792  0.02493  1.0000
  C   C165      1.0  0.21944  0.32093  0.04105  1.0000
  C   C166      1.0  0.26817  0.31979  0.08218  1.0000
  C   C167      1.0  0.19868  0.36512  0.01508  1.0000
  C   C168      1.0  0.22996  0.40748  0.0163  1.0000
  C   C169      1.0  0.25642  0.4136  0.98901  1.0000
  C   C170      1.0  0.2766299999999998  0.37144  0.97873  1.0000
  C   C171      1.0  0.26709999999999995  0.45904  0.9729  1.0000
  C   C172      1.0  0.26285999999999987  0.49682  0.9927699999999998  1.0000
  C   C173      1.0  0.29111  0.5402  0.98697  1.0000
  C   C174      1.0  0.23827  0.49084999999999995  0.02211  1.0000
  C   C175      1.0  0.22092  0.44604  0.03295  1.0000
  C   C176      1.0  0.6972999999999998  0.43841  0.06474  1.0000
  C   C177      1.0  0.15084  0.36777  0.97945  1.0000
  C   C178      1.0  0.12241999999999995  0.41472000000000003  0.9571199999999997  1.0000
  C   C179      1.0  0.11415999999999998  0.33986  0.90943  1.0000
  C   C180      1.0  0.06590999999999998  0.32606000000000007  0.88298  1.0000
  C   C181      1.0  0.54924  0.33607  0.83783  1.0000
  C   C182      1.0  0.07846  0.36015  0.81806  1.0000
  C   C183      1.0  0.07599  0.34704  0.77858  1.0000
  C   C184      1.0  0.58851  0.31694  0.76481  1.0000
  C   C185      1.0  0.62171  0.27863  0.77033  1.0000
  C   C186      1.0  0.17158000000000007  0.27422  0.80756  1.0000
  C   C187      1.0  0.698  0.23251000000000002  0.82182  1.0000
  C   C188      1.0  0.6765199999999998  0.19319  0.80351  1.0000
  C   C189      1.0  0.62858  0.19696  0.76792  1.0000
  C   C190      1.0  0.6016399999999998  0.23960999999999996  0.75025  1.0000
  C   C191      1.0  0.54836  0.24028  0.71602  1.0000
  C   C192      1.0  0.12368000000000001  0.37944  0.84466  1.0000
  C   C193      1.0  0.15679999999999997  0.40701000000000004  0.82609  1.0000
  C   C194      1.0  0.14210000000000003  0.36725  0.88997  1.0000
  H   H121      1.0  0.18749  0.22656000000000004  0.96235  1.0000
  H   H122      1.0  0.12929999999999997  0.21716999999999997  0.96909  1.0000
  H   H123      1.0  0.12969999999999998  0.25203  0.92045  1.0000
  H   H124      1.0  0.30105  0.32318  0.07343  1.0000
  H   H125      1.0  0.2675  0.34917  0.09923  1.0000
  H   H126      1.0  0.25547000000000003  0.28383  0.78337  1.0000
  H   H127      1.0  0.26607  0.37452  0.94301  1.0000
  H   H128      1.0  0.26298  0.3376  0.98859  1.0000
  H   H129      1.0  0.3187499999999999  0.3694000000000001  0.99646  1.0000
  H   H130      1.0  0.30035  0.56061  0.01366  1.0000
  H   H131      1.0  0.32827  0.53084  0.98768  1.0000
  H   H132      1.0  0.26897  0.56243  0.95533  1.0000
  H   H133      1.0  0.22068  0.43875  0.09727  1.0000
  H   H134      1.0  0.6659399999999998  0.4648199999999999  0.05508  1.0000
  H   H135      1.0  0.67965  0.40405  0.06503  1.0000
  H   H136      1.0  0.08266999999999994  0.41013  0.93382  1.0000
  H   H137      1.0  0.11964000000000001  0.43404  0.98155  1.0000
  H   H138      1.0  0.14181999999999997  0.43631  0.93892  1.0000
  H   H139      1.0  0.54635  0.30625  0.89905  1.0000
  H   H140      1.0  0.51452  0.32023  0.81837  1.0000
  H   H141      1.0  0.18725999999999998  0.30321  0.82474  1.0000
  H   H142      1.0  0.2351  0.22772  0.85125  1.0000
  H   H143      1.0  0.61167  0.16623999999999997  0.75393  1.0000
  H   H144      1.0  0.54325  0.21293  0.69532  1.0000
  H   H145      1.0  0.53795  0.27461  0.69442  1.0000
  H   H146      1.0  0.52377  0.23361  0.73355  1.0000
  H   H147      1.0  0.17433  0.43551999999999996  0.84515  1.0000
  H   H148      1.0  0.18755999999999998  0.38372  0.82804  1.0000
  H   H149      1.0  0.13401  0.42336000000000007  0.7915  1.0000
  H   H150      1.0  0.17889999999999995  0.3789  0.9103399999999999  1.0000
  C   C195      1.0  0.4178999999999999  0.15286000000000002  0.9067199999999997  1.0000
  C   C196      1.0  0.37556  0.13339000000000004  0.8776  1.0000
  C   C197      1.0  0.3248  0.16024999999999998  0.85733  1.0000
  C   C198      1.0  0.38097  0.08549  0.87535  1.0000
  C   C199      1.0  0.4295199999999998  0.06924000000000004  0.8792199999999998  1.0000
  C   C200      1.0  0.43632999999999994  0.021179999999999987  0.871  1.0000
  C   C201      1.0  0.47191  0.09799000000000001  0.89749  1.0000
  C   C202      1.0  0.52599  0.09815000000000002  0.89863  1.0000
  C   C203      1.0  0.55843  0.12535000000000002  0.92877  1.0000
  C   C204      1.0  0.54962  0.17778  0.91672  1.0000
  C   C205      1.0  0.6072299999999998  0.10855999999999999  0.95394  1.0000
  C   C206      1.0  0.63149  0.09780999999999998  0.92654  1.0000
  C   C207      1.0  0.68063  0.12156999999999998  0.93492  1.0000
  C   C208      1.0  0.60146  0.08728  0.88151  1.0000
  C   C209      1.0  0.54728  0.08250000000000002  0.87054  1.0000
  C   C210      1.0  0.5467199999999998  0.5242200000000002  0.8534599999999998  1.0000
  C   C211      1.0  0.46357  0.12677999999999998  0.9242  1.0000
  C   C212      1.0  0.49169  0.11513999999999998  0.97371  1.0000
  C   C213      1.0  0.4118  0.19035000000000002  0.92867  1.0000
  C   C214      1.0  0.38276000000000004  0.18274999999999997  0.95301  1.0000
  C   C215      1.0  0.37286  0.68233  0.973  1.0000
  C   C216      1.0  0.41832  0.25002  0.98658  1.0000
  C   C217      1.0  0.44322999999999996  0.25829  0.03102999999999999  1.0000
  C   C218      1.0  0.4554999999999999  0.70743  0.05785  1.0000
  C   C219      1.0  0.45143  0.67315  0.09146  1.0000
  C   C220      1.0  0.41733  0.2112  0.11753  1.0000
  C   C221      1.0  0.3747099999999999  0.68124  0.10088  1.0000
  C   C222      1.0  0.35401  0.64499  0.0768  1.0000
  C   C223      1.0  0.38623  0.61648  0.06908  1.0000
  C   C224      1.0  0.4363199999999999  0.6291499999999999  0.07869999999999998  1.0000
  C   C225      1.0  0.4699699999999999  0.5983  0.0697  1.0000
  C   C226      1.0  0.44082999999999994  0.26239000000000007  0.95721  1.0000
  C   C227      1.0  0.46932  0.30651  0.95813  1.0000
  C   C228      1.0  0.4380199999999999  0.23169999999999996  0.92844  1.0000
  H   H151      1.0  0.3298  0.19825000000000007  0.85006  1.0000
  H   H152      1.0  0.29964  0.14855  0.82625  1.0000
  H   H153      1.0  0.30613  0.1564  0.88006  1.0000
  H   H154      1.0  0.42131  0.02126  0.83507  1.0000
  H   H155      1.0  0.4768699999999999  0.009089999999999999  0.8876  1.0000
  H   H156      1.0  0.41398  0.9944599999999999  0.21901  1.0000
  H   H157      1.0  0.5545099999999998  0.19280000000000003  0.94617  1.0000
  H   H158      1.0  0.51089  0.18829  0.89081  1.0000
  H   H159      1.0  0.57621  0.19294999999999998  0.90287  1.0000
  H   H160      1.0  0.67227  0.15633999999999998  0.91345  1.0000
  H   H161      1.0  0.19978999999999994  0.12823999999999997  0.96917  1.0000
  H   H162      1.0  0.7062899999999999  0.10139000000000002  0.92743  1.0000
  H   H163      1.0  0.47526  0.07603  0.81666  1.0000
  H   H164      1.0  0.5802699999999998  0.5030699999999999  0.8578  1.0000
  H   H165      1.0  0.52607  0.49982  0.86805  1.0000
  H   H166      1.0  0.4640799999999999  0.10439999999999999  0.98794  1.0000
  H   H167      1.0  0.5187  0.08469  0.98398  1.0000
  H   H168      1.0  0.5121599999999998  0.14574000000000006  0.9874299999999999  1.0000
  H   H169      1.0  0.37534  0.6150999999999998  0.95555  1.0000
  H   H170      1.0  0.35200999999999993  0.67011  0.99224  1.0000
  H   H171      1.0  0.41945999999999994  0.24457  0.12848  1.0000
  H   H172      1.0  0.34829  0.19732999999999998  0.12279  1.0000
  H   H173      1.0  0.3730999999999999  0.58461  0.056109999999999986  1.0000
  H   H174      1.0  0.46955999999999987  0.56171  0.08558999999999997  1.0000
  H   H175      1.0  0.50975  0.60954  0.08261  1.0000
  H   H176      1.0  0.45516  0.59902  0.0339  1.0000
  H   H177      1.0  0.47904999999999986  0.31419  0.92949  1.0000
  H   H178      1.0  0.4448099999999999  0.33616000000000007  0.95639  1.0000
  H   H179      1.0  0.50464  0.30352  0.98899  1.0000
  H   H180      1.0  0.4578899999999999  0.23885000000000003  0.90747  1.0000
  C   C229      1.0  0.21983999999999998  0.72518  0.3781399999999999  1.0000
  O   O55       1.0  0.22135  0.06021000000000001  0.36649  1.0000
  Fe  Fe13      1.0  0.6625299999999997  0.58367  0.44645999999999997  1.0000
  Fe  Fe14      1.0  0.20494  0.62256  0.38096  1.0000
  O   O56       1.0  0.25058  0.014219999999999998  0.4359  1.0000
  O   O57       1.0  0.28753999999999985  0.56252  0.21009  1.0000
  O   O58       1.0  0.29738  0.54037  0.15475  1.0000
  Fe  Fe15      1.0  0.23757  0.57412  0.11112  1.0000
  Fe  Fe16      1.0  0.21774  0.5478500000000002  0.2007  1.0000
  O   O59       1.0  0.60591  0.59901  0.14855  1.0000
  O   O60       1.0  0.67287  0.04943999999999997  0.21302  1.0000
  O   O61       1.0  0.19192  0.55521  0.13748  1.0000
  C   C230      1.0  0.23887  0.96779  0.26425  1.0000
  C   C231      1.0  0.23781  0.019870000000000002  0.39314  1.0000
  C   C232      1.0  0.19715  0.65075  0.16433  1.0000
  C   C233      1.0  0.31767  0.55414  0.19204  1.0000
  C   C234      1.0  0.60941  0.58724  0.34039  1.0000
  C   C235      1.0  0.61607  0.5733  0.18888  1.0000
  O   O62       1.0  0.26337  0.9955399999999999  0.24487999999999993  1.0000
  O   O63       1.0  0.26543  0.99221  0.24623  1.0000
  O   O64       1.0  0.20782999999999993  0.6156399999999997  0.19804  1.0000
  O   O65       1.0  0.18051999999999999  0.64496  0.12312  1.0000
  O   O66       1.0  0.63252  0.61025  0.37196  1.0000
  C   C236      1.0  0.31676  0.61038  0.42312  1.0000
  O   O67       1.0  0.62248  0.60981  0.37688  1.0000
  O   O68       1.0  0.31685  0.5749499999999999  0.45265  1.0000
  O   O69       1.0  0.27517  0.63346  0.3933  1.0000
  O   O70       1.0  0.21840999999999994  0.5999  0.43551  1.0000
  O   O71       1.0  0.19404999999999997  0.68843  0.38578  1.0000
  O   O72       1.0  0.2611  0.7192  0.37251  1.0000
  C   C237      1.0  0.13247  0.8270799999999998  0.29945  1.0000
  C   C238      1.0  0.15377999999999994  0.78118  0.31876  1.0000
  C   C239      1.0  0.14071  0.74283  0.29122  1.0000
  C   C240      1.0  0.19474  0.77295  0.36141  1.0000
  C   C241      1.0  0.21955999999999995  0.81241  0.38009  1.0000
  C   C242      1.0  0.27011  0.8076899999999999  0.41985  1.0000
  C   C243      1.0  0.19867999999999986  0.85789  0.35859999999999986  1.0000
  C   C244      1.0  0.23144999999999996  0.89895  0.36152999999999996  1.0000
  C   C245      1.0  0.25092  0.9083399999999999  0.3292  1.0000
  C   C246      1.0  0.27193  0.86946  0.31591  1.0000
  C   C247      1.0  0.25729  0.95451  0.3131  1.0000
  C   C248      1.0  0.26215  0.98868  0.33938  1.0000
  C   C249      1.0  0.28925  0.03247  0.3328  1.0000
  C   C250      1.0  0.24421  0.98016  0.37302  1.0000
  C   C251      1.0  0.22731  0.9353  0.38316  1.0000
  C   C252      1.0  0.70342  0.92664  0.41513  1.0000
  C   C253      1.0  0.14987999999999996  0.86359  0.32367  1.0000
  C   C254      1.0  0.12361999999999998  0.91173  0.30443  1.0000
  C   C255      1.0  0.10984000000000001  0.8414399999999999  0.25103  1.0000
  C   C256      1.0  0.05852000000000003  0.83672  0.22407  1.0000
  C   C257      1.0  0.5399  0.8508499999999999  0.17671  1.0000
  C   C258      1.0  0.07467999999999997  0.86489  0.15973  1.0000
  C   C259      1.0  0.06865  0.84974  0.1199  1.0000
  C   C260      1.0  0.58889  0.82214  0.11021  1.0000
  C   C261      1.0  0.61659  0.778  0.12492  1.0000
  C   C262      1.0  0.16516  0.77518  0.12535  1.0000
  C   C263      1.0  0.6968899999999998  0.7362199999999999  0.14714  1.0000
  C   C264      1.0  0.68059  0.6977299999999997  0.16781  1.0000
  C   C265      1.0  0.6335999999999998  0.70111  0.16955  1.0000
  C   C266      1.0  0.6013  0.74061  0.14832  1.0000
  C   C267      1.0  0.55092  0.74144  0.15108  1.0000
  C   C268      1.0  0.12437  0.87585  0.18722  1.0000
  C   C269      1.0  0.16273999999999994  0.8925  0.16938  1.0000
  C   C270      1.0  0.14165  0.86247  0.23238  1.0000
  H   H181      1.0  0.17412  0.73494  0.28517  1.0000
  H   H182      1.0  0.13112  0.71114  0.30881  1.0000
  H   H183      1.0  0.10800999999999998  0.75211  0.25901  1.0000
  H   H184      1.0  0.30094  0.81816  0.40943999999999997  1.0000
  H   H185      1.0  0.26945  0.83089  0.44261  1.0000
  H   H186      1.0  0.26861  0.78493  0.1143  1.0000
  H   H187      1.0  0.26948  0.87906  0.28209  1.0000
  H   H188      1.0  0.2522  0.83642  0.31715  1.0000
  H   H189      1.0  0.31267  0.86279  0.33879  1.0000
  H   H190      1.0  0.30835  0.04708  0.36367  1.0000
  H   H191      1.0  0.31954  0.024899999999999995  0.32265  1.0000
  H   H192      1.0  0.2622999999999999  0.05872  0.30717  1.0000
  H   H193      1.0  0.23403  0.92661  0.44961  1.0000
  H   H194      1.0  0.67386  0.95434  0.40727  1.0000
  H   H195      1.0  0.68457  0.8929  0.41509  1.0000
  H   H196      1.0  0.08239000000000002  0.90884  0.28409  1.0000
  H   H197      1.0  0.12642999999999996  0.93106  0.3307899999999999  1.0000
  H   H198      1.0  0.14060999999999996  0.93219  0.28358  1.0000
  H   H199      1.0  0.5310699999999999  0.8241899999999998  0.23611  1.0000
  H   H200      1.0  0.50188  0.84211  0.15562  1.0000
  H   H201      1.0  0.17816999999999994  0.80518  0.11003  1.0000
  H   H202      1.0  0.23293  0.73293  0.14392  1.0000
  H   H203      1.0  0.61914  0.67097  0.18304  1.0000
  H   H204      1.0  0.53769  0.7054399999999997  0.15533  1.0000
  H   H205      1.0  0.52136  0.76152  0.12074  1.0000
  H   H206      1.0  0.5551099999999999  0.75712  0.17988  1.0000
  H   H207      1.0  0.19096  0.91438  0.19113  1.0000
  H   H208      1.0  0.18331999999999998  0.86192  0.16741  1.0000
  H   H209      1.0  0.1437  0.9139600000000001  0.13625  1.0000
  H   H210      1.0  0.18086999999999998  0.86693  0.25307  1.0000
  C   C271      1.0  0.41069  0.62338  0.26225  1.0000
  C   C272      1.0  0.36808  0.61859  0.22435  1.0000
  C   C273      1.0  0.32353  0.65364  0.20504  1.0000
  C   C274      1.0  0.36696  0.57887  0.20594  1.0000
  C   C275      1.0  0.41419  0.5653  0.20574  1.0000
  C   C276      1.0  0.41272  0.55996  0.16258  1.0000
  C   C277      1.0  0.46117  0.57585  0.24084  1.0000
  C   C278      1.0  0.5145  0.58467  0.24013  1.0000
  C   C279      1.0  0.5416499999999997  0.6174899999999998  0.2668  1.0000
  C   C280      1.0  0.52153  0.66704  0.25557  1.0000
  C   C281      1.0  0.59299  0.61012  0.29093  1.0000
  C   C282      1.0  0.61736  0.60429  0.26224  1.0000
  C   C283      1.0  0.66538  0.63029  0.2712  1.0000
  C   C284      1.0  0.59068  0.58365  0.22147  1.0000
  C   C285      1.0  0.54205  0.56513  0.21836  1.0000
  C   C286      1.0  0.5132  0.05676  0.1633  1.0000
  C   C287      1.0  0.45329  0.59289  0.27506  1.0000
  C   C288      1.0  0.48965999999999993  0.58096  0.32284  1.0000
  C   C289      1.0  0.40981  0.66096  0.28605  1.0000
  C   C290      1.0  0.38138  0.65637  0.31087999999999993  1.0000
  C   C291      1.0  0.38106  0.21074999999999994  0.30915  1.0000
  C   C292      1.0  0.4067699999999999  0.73268  0.3297  1.0000
  C   C293      1.0  0.4356  0.7455  0.37193  1.0000
  C   C294      1.0  0.44711999999999996  0.24003  0.39611  1.0000
  C   C295      1.0  0.44374  0.20002  0.42567  1.0000
  C   C296      1.0  0.41205  0.70244  0.45618  1.0000
  C   C297      1.0  0.37533999999999995  0.18140999999999993  0.4460199999999999  1.0000
  C   C298      1.0  0.36508999999999997  0.14211999999999997  0.42502  1.0000
  C   C299      1.0  0.4008799999999999  0.12671999999999994  0.41223  1.0000
  C   C300      1.0  0.44101  0.1556  0.41288  1.0000
  C   C301      1.0  0.47757  0.14020999999999997  0.39653  1.0000
  C   C302      1.0  0.42592  0.7414  0.29792  1.0000
  C   C303      1.0  0.44590999999999986  0.78829  0.2886  1.0000
  C   C304      1.0  0.42647  0.70532  0.27547  1.0000
  H   H211      1.0  0.3371  0.68966  0.2022  1.0000
  H   H212      1.0  0.2973299999999999  0.6487  0.17123  1.0000
  H   H213      1.0  0.3028199999999999  0.65029  0.22630999999999998  1.0000
  H   H214      1.0  0.43281  0.58984  0.15334  1.0000
  H   H215      1.0  0.42949999999999994  0.5264899999999998  0.16324  1.0000
  H   H216      1.0  0.41837  0.51052  0.51229  1.0000
  H   H217      1.0  0.52218  0.67834  0.28547  1.0000
  H   H218      1.0  0.4827  0.67071  0.22859  1.0000
  H   H219      1.0  0.54546  0.69027  0.24343  1.0000
  H   H220      1.0  0.65589  0.66691  0.25486  1.0000
  H   H221      1.0  0.1903499999999999  0.62956  0.3073299999999999  1.0000
  H   H222      1.0  0.69062  0.61422  0.26026  1.0000
  H   H223      1.0  0.5099099999999998  0.52868  0.1634  1.0000
  H   H224      1.0  0.52736  0.06428  0.13748999999999997  1.0000
  H   H225      1.0  0.5150099999999999  0.01828  0.17334  1.0000
  H   H226      1.0  0.4679  0.56824  0.34234  1.0000
  H   H227      1.0  0.51675  0.55206  0.32789  1.0000
  H   H228      1.0  0.51048  0.61199  0.33524  1.0000
  H   H229      1.0  0.36188  0.14784  0.2826299999999999  1.0000
  H   H230      1.0  0.36306  0.2  0.33124  1.0000
  H   H231      1.0  0.41202  0.73665  0.46507  1.0000
  H   H232      1.0  0.33745  0.69191  0.4508  1.0000
  H   H233      1.0  0.39582999999999996  0.09428000000000003  0.39922999999999986  1.0000
  H   H234      1.0  0.50486  0.11336999999999998  0.42181  1.0000
  H   H235      1.0  0.49948  0.1694  0.38861  1.0000
  H   H236      1.0  0.45595  0.12475  0.36682  1.0000
  H   H237      1.0  0.45338  0.79145  0.2588  1.0000
  H   H238      1.0  0.41698999999999997  0.81597  0.28256999999999993  1.0000
  H   H239      1.0  0.4815400000000001  0.79378  0.31708  1.0000
  H   H240      1.0  0.43889  0.71229  0.24946  1.0000
  C   C305      1.0  0.20711  0.7245199999999999  0.71969  1.0000
  O   O73       1.0  0.22206  0.06442  0.70185  1.0000
  Fe  Fe17      1.0  0.66824  0.58608  0.77509  1.0000
  Fe  Fe18      1.0  0.19845  0.62655  0.70222  1.0000
  O   O74       1.0  0.2519899999999999  0.017270000000000008  0.7697199999999998  1.0000
  O   O75       1.0  0.30815  0.57461  0.5651  1.0000
  O   O76       1.0  0.31640999999999997  0.52402  0.52464  1.0000
  Fe  Fe19      1.0  0.26733  0.56207  0.4771  1.0000
  Fe  Fe20      1.0  0.2387  0.5609600000000001  0.55785  1.0000
  O   O77       1.0  0.6136299999999999  0.5796699999999999  0.47949  1.0000
  O   O78       1.0  0.67498  0.050210000000000005  0.5482199999999999  1.0000
  O   O79       1.0  0.21842999999999999  0.55222  0.50019  1.0000
  C   C306      1.0  0.24065  0.96887  0.59891  1.0000
  C   C307      1.0  0.23894999999999986  0.023680000000000045  0.7272799999999998  1.0000
  C   C308      1.0  0.19434999999999997  0.65646  0.5004  1.0000
  C   C309      1.0  0.33743  0.55313  0.55161  1.0000
  C   C310      1.0  0.61097  0.58008  0.67189  1.0000
  C   C311      1.0  0.6265  0.56838  0.52467  1.0000
  O   O80       1.0  0.26544  0.99571  0.57938  1.0000
  O   O81       1.0  0.2676699999999999  0.9923399999999999  0.58081  1.0000
  O   O82       1.0  0.217  0.62839  0.539  1.0000
  O   O83       1.0  0.17482999999999999  0.64308  0.46219999999999994  1.0000
  O   O84       1.0  0.6298199999999999  0.60687  0.7005  1.0000
  C   C312      1.0  0.30949  0.62724  0.73668  1.0000
  O   O85       1.0  0.62204  0.60563  0.70611  1.0000
  O   O86       1.0  0.31469999999999987  0.5884999999999999  0.76497  1.0000
  O   O87       1.0  0.26495  0.64813  0.70954  1.0000
  O   O88       1.0  0.22009999999999988  0.60617  0.759  1.0000
  O   O89       1.0  0.17724  0.69062  0.7029  1.0000
  O   O90       1.0  0.24773999999999982  0.7130600000000001  0.7560899999999998  1.0000
  C   C313      1.0  0.13720000000000004  0.82994  0.63157  1.0000
  C   C314      1.0  0.16008  0.78451  0.65099  1.0000
  C   C315      1.0  0.15274999999999989  0.74759  0.62263  1.0000
  C   C316      1.0  0.19428  0.77518  0.69647  1.0000
  C   C317      1.0  0.21990000000000007  0.81501  0.71502  1.0000
  C   C318      1.0  0.26917999999999986  0.81088  0.75618  1.0000
  C   C319      1.0  0.19942000000000004  0.86069  0.69269  1.0000
  C   C320      1.0  0.23189000000000007  0.90216  0.69562  1.0000
  C   C321      1.0  0.25242000000000003  0.91096  0.66409  1.0000
  C   C322      1.0  0.27318  0.87162  0.65106  1.0000
  C   C323      1.0  0.25863999999999987  0.95694  0.64762  1.0000
  C   C324      1.0  0.26246  0.9919599999999998  0.67296  1.0000
  C   C325      1.0  0.28823999999999994  0.036280000000000014  0.66532  1.0000
  C   C326      1.0  0.2445  0.9839  0.70655  1.0000
  C   C327      1.0  0.22737999999999994  0.93894  0.71675  1.0000
  C   C328      1.0  0.7017699999999999  0.9326700000000001  0.7479399999999998  1.0000
  C   C329      1.0  0.15168  0.86603  0.65649  1.0000
  C   C330      1.0  0.12477000000000002  0.9138700000000001  0.63701  1.0000
  C   C331      1.0  0.11358  0.8449  0.58327  1.0000
  C   C332      1.0  0.06129999999999999  0.84361  0.55757  1.0000
  C   C333      1.0  0.54256  0.85879  0.50933  1.0000
  C   C334      1.0  0.07487000000000002  0.87306  0.49213  1.0000
  C   C335      1.0  0.06604999999999998  0.85831  0.4514  1.0000
  C   C336      1.0  0.58617  0.82957  0.43978  1.0000
  C   C337      1.0  0.61272  0.78485  0.4536099999999999  1.0000
  C   C338      1.0  0.15613  0.77962  0.44998  1.0000
  C   C339      1.0  0.69042  0.74115  0.47037  1.0000
  C   C340      1.0  0.6769399999999999  0.70449  0.49534  1.0000
  C   C341      1.0  0.63133  0.70851  0.49924  1.0000
  C   C342      1.0  0.60011  0.74882  0.4803  1.0000
  C   C343      1.0  0.55468  0.75201  0.49031999999999987  1.0000
  C   C344      1.0  0.12590999999999997  0.88111  0.51886  1.0000
  C   C345      1.0  0.16316  0.89715  0.49963  1.0000
  C   C346      1.0  0.14493  0.86518  0.56384  1.0000
  H   H241      1.0  0.18832999999999994  0.72604  0.63388  1.0000
  H   H242      1.0  0.12235000000000006  0.72551  0.62492  1.0000
  H   H243      1.0  0.14306999999999995  0.76209  0.58781  1.0000
  H   H244      1.0  0.29289  0.8415  0.75595  1.0000
  H   H245      1.0  0.2612799999999999  0.80882  0.7855  1.0000
  H   H246      1.0  0.27911  0.77171  0.4386  1.0000
  H   H247      1.0  0.27175  0.8811  0.61756  1.0000
  H   H248      1.0  0.25263  0.83898  0.65164  1.0000
  H   H249      1.0  0.31362  0.86417  0.67445  1.0000
  H   H250      1.0  0.30695  0.05182999999999999  0.69573  1.0000
  H   H251      1.0  0.31873  0.02906999999999999  0.65529  1.0000
  H   H252      1.0  0.26045999999999997  0.06164  0.63924  1.0000
  H   H253      1.0  0.23373999999999995  0.92955  0.78312  1.0000
  H   H254      1.0  0.67311  0.96105  0.74053  1.0000
  H   H255      1.0  0.68155  0.8996  0.74681  1.0000
  H   H256      1.0  0.08361999999999999  0.91044  0.61685  1.0000
  H   H257      1.0  0.12731999999999993  0.93333  0.66321  1.0000
  H   H258      1.0  0.14149  0.9344599999999997  0.61599  1.0000
  H   H259      1.0  0.53663  0.83068  0.56968  1.0000
  H   H260      1.0  0.50367  0.85144  0.48904  1.0000
  H   H261      1.0  0.16641  0.80774  0.43049  1.0000
  H   H262      1.0  0.22204999999999991  0.73662  0.46493999999999996  1.0000
  H   H263      1.0  0.61687  0.67837  0.5129  1.0000
  H   H264      1.0  0.53848  0.7171500000000001  0.49282  1.0000
  H   H265      1.0  0.52439  0.77627  0.46465  1.0000
  H   H266      1.0  0.56674  0.76372  0.52245  1.0000
  H   H267      1.0  0.1937  0.9168799999999999  0.5219  1.0000
  H   H268      1.0  0.18085  0.86631  0.49491  1.0000
  H   H269      1.0  0.14366  0.92051  0.46757  1.0000
  H   H270      1.0  0.18493  0.8671699999999999  0.58365  1.0000
  C   C347      1.0  0.4094  0.65556  0.56457  1.0000
  C   C348      1.0  0.36795  0.63223  0.53885  1.0000
  C   C349      1.0  0.31590999999999997  0.6569300000000001  0.51722  1.0000
  C   C350      1.0  0.37544999999999995  0.58321  0.5429299999999999  1.0000
  C   C351      1.0  0.42427  0.56594  0.54881  1.0000
  C   C352      1.0  0.43288  0.51566  0.54708  1.0000
  C   C353      1.0  0.46522  0.59667  0.56315  1.0000
  C   C354      1.0  0.51974  0.59348  0.56654  1.0000
  C   C355      1.0  0.55239  0.6197  0.59728  1.0000
  C   C356      1.0  0.54782  0.6722999999999999  0.58481  1.0000
  C   C357      1.0  0.59958  0.60033  0.62323  1.0000
  C   C358      1.0  0.62533  0.59157  0.59679  1.0000
  C   C359      1.0  0.67001  0.6221600000000002  0.6032199999999999  1.0000
  C   C360      1.0  0.5962499999999998  0.57961  0.55225  1.0000
  C   C361      1.0  0.54223  0.5742900000000001  0.54083  1.0000
  C   C362      1.0  0.51536  0.04925000000000001  0.49981  1.0000
  C   C363      1.0  0.45558  0.63003  0.58555  1.0000
  C   C364      1.0  0.47943  0.6212  0.63547  1.0000
  C   C365      1.0  0.40116  0.69482  0.5835  1.0000
  C   C366      1.0  0.37487  0.68713  0.61017  1.0000
  C   C367      1.0  0.37567999999999996  0.20538000000000006  0.6430399999999998  1.0000
  C   C368      1.0  0.4092199999999999  0.75651  0.6398699999999999  1.0000
  C   C369      1.0  0.4385199999999999  0.76418  0.68407  1.0000
  C   C370      1.0  0.43285  0.2479599999999999  0.72522  1.0000
  C   C371      1.0  0.43578  0.21003999999999998  0.75927  1.0000
  C   C372      1.0  0.3989599999999998  0.7257200000000001  0.7588299999999999  1.0000
  C   C373      1.0  0.36663999999999997  0.19261  0.77896  1.0000
  C   C374      1.0  0.35781  0.15228  0.75951  1.0000
  C   C375      1.0  0.3948  0.13574  0.7486  1.0000
  C   C376      1.0  0.43538  0.16412999999999997  0.74974  1.0000
  C   C377      1.0  0.47419  0.14743999999999996  0.7361  1.0000
  C   C378      1.0  0.42736  0.76931  0.6075  1.0000
  C   C379      1.0  0.44849  0.8165699999999999  0.60244  1.0000
  C   C380      1.0  0.4242399999999999  0.7374100000000001  0.57962  1.0000
  H   H271      1.0  0.3184899999999999  0.69436  0.50519  1.0000
  H   H272      1.0  0.2902  0.64065  0.48911  1.0000
  H   H273      1.0  0.29936  0.65684  0.54105  1.0000
  H   H274      1.0  0.4737  0.50478  0.56503  1.0000
  H   H275      1.0  0.41275  0.49228000000000005  0.56329  1.0000
  H   H276      1.0  0.38991  0.52913  0.80459  1.0000
  H   H277      1.0  0.55353  0.68808  0.61406  1.0000
  H   H278      1.0  0.5103099999999999  0.6851999999999999  0.5581099999999999  1.0000
  H   H279      1.0  0.57615  0.68444  0.57196  1.0000
  H   H280      1.0  0.65769  0.65541  0.58047  1.0000
  H   H281      1.0  0.18872  0.62928  0.63853  1.0000
  H   H282      1.0  0.70025  0.60544  0.59913  1.0000
  H   H283      1.0  0.4723799999999999  0.55785  0.48971  1.0000
  H   H284      1.0  0.53288  0.051070000000000004  0.4764  1.0000
  H   H285      1.0  0.51347  0.01156  0.51125  1.0000
  H   H286      1.0  0.44980999999999993  0.60967  0.64715  1.0000
  H   H287      1.0  0.5086799999999999  0.5922399999999999  0.6495699999999999  1.0000
  H   H288      1.0  0.4962299999999999  0.65337  0.64846  1.0000
  H   H289      1.0  0.36582999999999993  0.13825999999999997  0.62356  1.0000
  H   H290      1.0  0.35559  0.19592999999999997  0.66363  1.0000
  H   H291      1.0  0.39674  0.76156  0.76344  1.0000
  H   H292      1.0  0.32594999999999996  0.71376  0.7554699999999999  1.0000
  H   H293      1.0  0.39067  0.10241000000000001  0.73718  1.0000
  H   H294      1.0  0.47043  0.10982  0.73308  1.0000
  H   H295      1.0  0.5129599999999997  0.15189  0.76128  1.0000
  H   H296      1.0  0.46985  0.16727999999999998  0.704  1.0000
  H   H297      1.0  0.45931  0.82184  0.57443  1.0000
  H   H298      1.0  0.41852999999999996  0.84365  0.59534  1.0000
  H   H299      1.0  0.48196999999999995  0.82109  0.63304  1.0000
  H   H300      1.0  0.44154  0.74458  0.55665  1.0000
  C   C381      1.0  0.21356  0.7290499999999999  0.0511  1.0000
  O   O91       1.0  0.22242  0.06633000000000001  0.0328  1.0000
  Fe  Fe21      1.0  0.63533  0.5982  0.10101  1.0000
  Fe  Fe22      1.0  0.20642  0.63306  0.03253  1.0000
  O   O92       1.0  0.24977999999999997  0.0187  0.10181  1.0000
  O   O93       1.0  0.32405  0.57704  0.88388  1.0000
  O   O94       1.0  0.325  0.52941  0.83844  1.0000
  Fe  Fe23      1.0  0.27246  0.56897  0.79627  1.0000
  Fe  Fe24      1.0  0.25716  0.5634  0.88446  1.0000
  O   O95       1.0  0.62686  0.57512  0.8144  1.0000
  O   O96       1.0  0.6703499999999999  0.045120000000000014  0.8789099999999997  1.0000
  O   O97       1.0  0.23055  0.55403  0.82624  1.0000
  C   C382      1.0  0.24131000000000005  0.9684899999999999  0.93476  1.0000
  C   C383      1.0  0.23705  0.0252  0.05904  1.0000
  C   C384      1.0  0.2025899999999999  0.65613  0.8294  1.0000
  C   C385      1.0  0.3494  0.55678  0.86577  1.0000
  C   C386      1.0  0.60821  0.59735  0.9997499999999999  1.0000
  C   C387      1.0  0.64526  0.5712  0.86016  1.0000
  O   O98       1.0  0.2659899999999999  0.9947499999999998  0.91511  1.0000
  O   O99       1.0  0.26861  0.99156  0.91672  1.0000
  O   O100      1.0  0.23544999999999994  0.6306  0.86662  1.0000
  O   O101      1.0  0.17687999999999995  0.6413499999999999  0.79204  1.0000
  O   O102      1.0  0.64667  0.60475  0.03724  1.0000
  C   C388      1.0  0.30091  0.63403  0.06476  1.0000
  O   O103      1.0  0.6455899999999999  0.60349  0.04123999999999999  1.0000
  O   O104      1.0  0.2906299999999999  0.60085  0.09155  1.0000
  O   O105      1.0  0.2648  0.65812  0.03041  1.0000
  O   O106      1.0  0.17524  0.5995  0.06548  1.0000
  O   O107      1.0  0.18385  0.69364  0.03878  1.0000
  O   O108      1.0  0.2620299999999999  0.72058  0.07591  1.0000
  C   C389      1.0  0.13606999999999997  0.83137  0.96343  1.0000
  C   C390      1.0  0.15922999999999998  0.7861599999999999  0.98339  1.0000
  C   C391      1.0  0.15179999999999988  0.74826  0.95558  1.0000
  C   C392      1.0  0.19444  0.77812  0.02868  1.0000
  C   C393      1.0  0.2168  0.81805  0.04822  1.0000
  C   C394      1.0  0.26624  0.81498  0.08917  1.0000
  C   C395      1.0  0.19632  0.86301  0.02511  1.0000
  C   C396      1.0  0.22939999999999997  0.9035799999999999  0.02883  1.0000
  C   C397      1.0  0.25227  0.91098  0.99899  1.0000
  C   C398      1.0  0.27147  0.8710900000000001  0.98534  1.0000
  C   C399      1.0  0.26031000000000004  0.9563900000000001  0.98317  1.0000
  C   C400      1.0  0.26378  0.99166  0.00797  1.0000
  C   C401      1.0  0.29289  0.03447  0.00267  1.0000
  C   C402      1.0  0.24257999999999996  0.98502  0.03926  1.0000
  C   C403      1.0  0.22375  0.9409  0.04877  1.0000
  C   C404      1.0  0.70044  0.93456  0.08162  1.0000
  C   C405      1.0  0.14979  0.86808  0.9877  1.0000
  C   C406      1.0  0.12321000000000008  0.91597  0.9673  1.0000
  C   C407      1.0  0.11102  0.84485  0.91509  1.0000
  C   C408      1.0  0.06061999999999996  0.8347699999999999  0.89027  1.0000
  C   C409      1.0  0.5397  0.84996  0.84764  1.0000
  C   C410      1.0  0.07034999999999997  0.86544  0.82338  1.0000
  C   C411      1.0  0.06367000000000005  0.85016  0.78348  1.0000
  C   C412      1.0  0.58003  0.82775  0.7739  1.0000
  C   C413      1.0  0.6094199999999997  0.7848099999999999  0.78604  1.0000
  C   C414      1.0  0.16263  0.78007  0.78982  1.0000
  C   C415      1.0  0.6922  0.74885  0.80579  1.0000
  C   C416      1.0  0.6787  0.70763  0.82504  1.0000
  C   C417      1.0  0.63162  0.70638  0.82731  1.0000
  C   C418      1.0  0.59781  0.74517  0.80992  1.0000
  C   C419      1.0  0.55165  0.7436599999999998  0.81956  1.0000
  C   C420      1.0  0.11896999999999987  0.88084  0.8485499999999998  1.0000
  C   C421      1.0  0.15383  0.90057  0.82783  1.0000
  C   C422      1.0  0.13914999999999997  0.8692999999999999  0.89417  1.0000
  H   H301      1.0  0.18876999999999997  0.7298099999999998  0.96481  1.0000
  H   H302      1.0  0.12457999999999994  0.7231600000000001  0.96068  1.0000
  H   H303      1.0  0.13786999999999994  0.76161  0.9199199999999998  1.0000
  H   H304      1.0  0.29874  0.81284  0.0803  1.0000
  H   H305      1.0  0.27012  0.84607  0.10535999999999997  1.0000
  H   H306      1.0  0.29372999999999994  0.78116  0.75929  1.0000
  H   H307      1.0  0.26781  0.87988  0.95111  1.0000
  H   H308      1.0  0.25147999999999987  0.83841  0.98722  1.0000
  H   H309      1.0  0.31245  0.8640499999999998  0.00735  1.0000
  H   H310      1.0  0.31367  0.0468  0.03458  1.0000
  H   H311      1.0  0.32199999999999995  0.02665999999999998  0.99126  1.0000
  H   H312      1.0  0.26698  0.06267000000000003  0.97882  1.0000
  H   H313      1.0  0.22629999999999992  0.93266  0.11386999999999999  1.0000
  H   H314      1.0  0.67162  0.96318  0.07299  1.0000
  H   H315      1.0  0.68022  0.90147  0.0809  1.0000
  H   H316      1.0  0.08257999999999988  0.9127700000000001  0.9452999999999998  1.0000
  H   H317      1.0  0.12364999999999997  0.93522  0.99299  1.0000
  H   H318      1.0  0.14194000000000004  0.93672  0.94805  1.0000
  H   H319      1.0  0.53782  0.8208400000000001  0.90942  1.0000
  H   H320      1.0  0.5017499999999999  0.8392700000000001  0.8285799999999999  1.0000
  H   H321      1.0  0.17511999999999991  0.81165  0.7761299999999999  1.0000
  H   H322      1.0  0.23492  0.74328  0.81392  1.0000
  H   H323      1.0  0.61957  0.67394  0.84012  1.0000
  H   H324      1.0  0.53663  0.7079899999999999  0.81956  1.0000
  H   H325      1.0  0.5208  0.7682800000000001  0.79524  1.0000
  H   H326      1.0  0.5624799999999998  0.75334  0.85239  1.0000
  H   H327      1.0  0.1805  0.92481  0.84775  1.0000
  H   H328      1.0  0.17633  0.8715600000000001  0.82571  1.0000
  H   H329      1.0  0.13166999999999998  0.9203299999999999  0.79434  1.0000
  H   H330      1.0  0.17791999999999988  0.87757  0.9134399999999998  1.0000
  C   C423      1.0  0.42615  0.63456  0.905  1.0000
  C   C424      1.0  0.38800999999999997  0.6312799999999998  0.86379  1.0000
  C   C425      1.0  0.34161  0.66428  0.84262  1.0000
  C   C426      1.0  0.38562  0.58653  0.85357  1.0000
  C   C427      1.0  0.43213999999999997  0.56681  0.85794  1.0000
  C   C428      1.0  0.42967  0.53425  0.82733  1.0000
  C   C429      1.0  0.47767999999999994  0.5794199999999999  0.8924  1.0000
  C   C430      1.0  0.53175  0.58709  0.89446  1.0000
  C   C431      1.0  0.55738  0.62064  0.92105  1.0000
  C   C432      1.0  0.53622  0.66979  0.91309  1.0000
  C   C433      1.0  0.60621  0.60982  0.95187  1.0000
  C   C434      1.0  0.6371799999999997  0.6002600000000001  0.9294299999999998  1.0000
  C   C435      1.0  0.67339  0.63882  0.9304  1.0000
  C   C436      1.0  0.61399  0.5797  0.88797  1.0000
  C   C437      1.0  0.56277  0.5648  0.87762  1.0000
  C   C438      1.0  0.51481  0.06160999999999999  0.83084  1.0000
  C   C439      1.0  0.4666399999999999  0.60056  0.9228999999999998  1.0000
  C   C440      1.0  0.49172999999999983  0.5823  0.9712499999999998  1.0000
  C   C441      1.0  0.41688  0.66605  0.93033  1.0000
  C   C442      1.0  0.38726  0.65083  0.95318  1.0000
  C   C443      1.0  0.38424  0.2137  0.98036  1.0000
  C   C444      1.0  0.3961  0.7253099999999999  0.97649  1.0000
  C   C445      1.0  0.4334  0.7261399999999998  0.020339999999999997  1.0000
  C   C446      1.0  0.45329  0.24072  0.06833  1.0000
  C   C447      1.0  0.44735  0.2011  0.09697  1.0000
  C   C448      1.0  0.42477  0.69321  0.11076  1.0000
  C   C449      1.0  0.37584000000000006  0.18426  0.11371  1.0000
  C   C450      1.0  0.36712999999999996  0.14425  0.09391  1.0000
  C   C451      1.0  0.40344  0.12864  0.08174  1.0000
  C   C452      1.0  0.44479999999999975  0.1566  0.08425  1.0000
  C   C453      1.0  0.48228  0.14164  0.06846  1.0000
  C   C454      1.0  0.41039  0.74458  0.94324  1.0000
  C   C455      1.0  0.4086599999999999  0.79657  0.93064  1.0000
  C   C456      1.0  0.42410000000000003  0.7141299999999999  0.92162  1.0000
  H   H331      1.0  0.3530399999999999  0.70017  0.83475  1.0000
  H   H332      1.0  0.31365  0.65319  0.81216  1.0000
  H   H333      1.0  0.3222899999999999  0.6649799999999999  0.86456  1.0000
  H   H334      1.0  0.44817  0.54967  0.8061  1.0000
  H   H335      1.0  0.44547999999999993  0.49919  0.84604  1.0000
  H   H336      1.0  0.3734199999999999  0.56087  0.13720999999999997  1.0000
  H   H337      1.0  0.52999  0.67651  0.94177  1.0000
  H   H338      1.0  0.50037  0.67654  0.88263  1.0000
  H   H339      1.0  0.56353  0.69486  0.90823  1.0000
  H   H340      1.0  0.65133  0.67227  0.91379  1.0000
  H   H341      1.0  0.19264999999999988  0.64125  0.9654599999999998  1.0000
  H   H342      1.0  0.6976999999999998  0.63372  0.9138199999999999  1.0000
  H   H343      1.0  0.52554  0.53667  0.81775  1.0000
  H   H344      1.0  0.52897  0.06977999999999998  0.805  1.0000
  H   H345      1.0  0.51601  0.023050000000000032  0.8398999999999998  1.0000
  H   H346      1.0  0.4628799999999999  0.5644999999999999  0.98105  1.0000
  H   H347      1.0  0.52189  0.55539  0.97889  1.0000
  H   H348      1.0  0.50748  0.6112  0.99018  1.0000
  H   H349      1.0  0.36259  0.15079000000000004  0.95394  1.0000
  H   H350      1.0  0.36539  0.20444  0.00201  1.0000
  H   H351      1.0  0.4375299999999999  0.72514  0.12403  1.0000
  H   H352      1.0  0.3521399999999999  0.7016999999999999  0.11061  1.0000
  H   H353      1.0  0.39821  0.09643  0.06835  1.0000
  H   H354      1.0  0.47916999999999993  0.10407  0.06521  1.0000
  H   H355      1.0  0.52153  0.14705  0.09227999999999999  1.0000
  H   H356      1.0  0.47543  0.16239999999999996  0.03609  1.0000
  H   H357      1.0  0.40902  0.80653  0.89781  1.0000
  H   H358      1.0  0.37255  0.81131  0.92853  1.0000
  H   H359      1.0  0.44114  0.81159  0.95578  1.0000
  H   H360      1.0  0.43804  0.7276999999999999  0.89718  1.0000
  C   C457      1.0  0.71998  0.21916999999999998  0.38923  1.0000
  O   O109      1.0  0.71321  0.5579  0.37356  1.0000
  Fe  Fe25      1.0  0.16603999999999997  0.08089  0.44248  1.0000
  Fe  Fe26      1.0  0.70386  0.12273  0.37189  1.0000
  O   O110      1.0  0.7408  0.5114099999999998  0.44289  1.0000
  O   O111      1.0  0.8107  0.07474000000000001  0.22713  1.0000
  O   O112      1.0  0.81839  0.027810000000000005  0.18364  1.0000
  Fe  Fe27      1.0  0.7699799999999998  0.06779999999999999  0.13745  1.0000
  Fe  Fe28      1.0  0.74033  0.06302  0.2184  1.0000
  O   O113      1.0  0.11675  0.08086999999999998  0.14186  1.0000
  O   O114      1.0  0.14997  0.53966  0.20199  1.0000
  O   O115      1.0  0.72057  0.054310000000000004  0.16001  1.0000
  C   C458      1.0  0.7569  0.48478000000000004  0.28314  1.0000
  C   C459      1.0  0.7236899999999999  0.51634  0.39991  1.0000
  C   C460      1.0  0.69714  0.15901  0.16126  1.0000
  C   C461      1.0  0.83981  0.05447  0.21271  1.0000
  C   C462      1.0  0.1172  0.07841000000000002  0.33789  1.0000
  C   C463      1.0  0.12962  0.07008  0.18716  1.0000
  O   O116      1.0  0.74634  0.53041  0.2667  1.0000
  O   O117      1.0  0.7476  0.5295400000000002  0.26968  1.0000
  O   O118      1.0  0.72101  0.13055  0.19922  1.0000
  O   O119      1.0  0.67564  0.1464  0.12269  1.0000
  O   O120      1.0  0.13657999999999995  0.10446000000000001  0.36741  1.0000
  C   C464      1.0  0.8161  0.1189  0.41594  1.0000
  O   O121      1.0  0.12721999999999994  0.1034  0.37239  1.0000
  O   O122      1.0  0.81746  0.08264999999999999  0.44536  1.0000
  O   O123      1.0  0.77354  0.1395  0.38439  1.0000
  O   O124      1.0  0.7178899999999999  0.10130000000000002  0.42757  1.0000
  O   O125      1.0  0.68661  0.18739000000000003  0.37309999999999993  1.0000
  O   O126      1.0  0.76205  0.20566999999999996  0.42346  1.0000
  C   C465      1.0  0.6549699999999998  0.32584  0.30448  1.0000
  C   C466      1.0  0.6765099999999997  0.28023  0.32206  1.0000
  C   C467      1.0  0.66526  0.24381999999999998  0.29258  1.0000
  C   C468      1.0  0.71026  0.26959  0.36739  1.0000
  C   C469      1.0  0.73697  0.30795  0.38799  1.0000
  C   C470      1.0  0.78529  0.30121  0.43011  1.0000
  C   C471      1.0  0.71683  0.35409  0.36793  1.0000
  C   C472      1.0  0.74789  0.39657  0.37684  1.0000
  C   C473      1.0  0.76536  0.41588  0.34426  1.0000
  C   C474      1.0  0.79692  0.38686  0.33118  1.0000
  C   C475      1.0  0.7498299999999998  0.4624  0.32285  1.0000
  C   C476      1.0  0.71922  0.48535  0.33631  1.0000
  C   C477      1.0  0.67327  0.51296  0.30353  1.0000
  C   C478      1.0  0.72609  0.47547  0.37969  1.0000
  C   C479      1.0  0.7370599999999999  0.42811  0.40006  1.0000
  C   C480      1.0  0.23136999999999996  0.41092  0.4421599999999999  1.0000
  C   C481      1.0  0.6689399999999998  0.35985  0.33149  1.0000
  C   C482      1.0  0.6374099999999999  0.40486  0.31532  1.0000
  C   C483      1.0  0.63073  0.3428899999999999  0.25656  1.0000
  C   C484      1.0  0.57835  0.34161  0.23155  1.0000
  C   C485      1.0  0.05770999999999997  0.35791  0.18753  1.0000
  C   C486      1.0  0.58962  0.37538  0.16601  1.0000
  C   C487      1.0  0.57898  0.36309  0.124  1.0000
  C   C488      1.0  0.09499  0.33294  0.11324  1.0000
  C   C489      1.0  0.11898  0.28739  0.12366999999999999  1.0000
  C   C490      1.0  0.66383  0.28386  0.11703  1.0000
  C   C491      1.0  0.19430999999999998  0.24233  0.13667999999999994  1.0000
  C   C492      1.0  0.18029  0.20503  0.16041  1.0000
  C   C493      1.0  0.13625  0.20942999999999995  0.16672  1.0000
  C   C494      1.0  0.10564  0.25035  0.14908  1.0000
  C   C495      1.0  0.05985999999999999  0.25311000000000006  0.15875  1.0000
  C   C496      1.0  0.64101  0.38294  0.19226  1.0000
  C   C497      1.0  0.67696  0.40112  0.17219  1.0000
  C   C498      1.0  0.66128  0.36507  0.23708  1.0000
  H   H361      1.0  0.69894  0.21989  0.30313  1.0000
  H   H362      1.0  0.63317  0.22397  0.29453  1.0000
  H   H363      1.0  0.65559  0.25893  0.2578  1.0000
  H   H364      1.0  0.8084099999999999  0.33267  0.43373  1.0000
  H   H365      1.0  0.77615  0.29405  0.45899  1.0000
  H   H366      1.0  0.77591  0.28901  0.10601  1.0000
  H   H367      1.0  0.7799  0.38811  0.29511  1.0000
  H   H368      1.0  0.80121  0.34989000000000003  0.34751  1.0000
  H   H369      1.0  0.83536  0.40123  0.3412  1.0000
  H   H370      1.0  0.6875399999999999  0.54708  0.29871  1.0000
  H   H371      1.0  0.65685  0.49931  0.27222  1.0000
  H   H372      1.0  0.64309  0.51366  0.3154199999999999  1.0000
  H   H373      1.0  0.76831  0.41131  0.47039  1.0000
  H   H374      1.0  0.20379  0.43392000000000003  0.44532  1.0000
  H   H375      1.0  0.21605  0.37547  0.44182  1.0000
  H   H376      1.0  0.59639  0.39756  0.3  1.0000
  H   H377      1.0  0.64242  0.42386000000000007  0.34238  1.0000
  H   H378      1.0  0.64663  0.42594  0.2897  1.0000
  H   H379      1.0  0.054060000000000004  0.32594  0.24792  1.0000
  H   H380      1.0  0.018399999999999996  0.35138  0.16771  1.0000
  H   H381      1.0  0.67566  0.31273  0.09935  1.0000
  H   H382      1.0  0.7283  0.23948  0.13044  1.0000
  H   H383      1.0  0.12313  0.1795  0.1821  1.0000
  H   H384      1.0  0.04260000000000001  0.2185  0.15922  1.0000
  H   H385      1.0  0.03032  0.27859  0.13373  1.0000
  H   H386      1.0  0.07178  0.26297  0.19164  1.0000
  H   H387      1.0  0.7076899999999998  0.42041  0.19485  1.0000
  H   H388      1.0  0.69436  0.37138  0.16561  1.0000
  H   H389      1.0  0.65659  0.4255099999999999  0.14089  1.0000
  H   H390      1.0  0.7015199999999999  0.3669  0.25672  1.0000
  C   C499      1.0  0.91623  0.15238  0.23575  1.0000
  C   C500      1.0  0.87391  0.13291000000000006  0.20661  1.0000
  C   C501      1.0  0.82296  0.15960999999999997  0.18616  1.0000
  C   C502      1.0  0.87917  0.08455999999999998  0.20638  1.0000
  C   C503      1.0  0.92733  0.06711999999999997  0.21074  1.0000
  C   C504      1.0  0.9335799999999999  0.01835000000000002  0.20365999999999995  1.0000
  C   C505      1.0  0.9696999999999997  0.09578  0.22842  1.0000
  C   C506      1.0  0.024069999999999953  0.09387  0.23115999999999995  1.0000
  C   C507      1.0  0.057289999999999994  0.11840999999999999  0.26347  1.0000
  C   C508      1.0  0.05249  0.1712  0.25448  1.0000
  C   C509      1.0  0.10456000000000003  0.09870999999999999  0.2887  1.0000
  C   C510      1.0  0.12965  0.09024  0.2615  1.0000
  C   C511      1.0  0.17651999999999995  0.11828  0.27078  1.0000
  C   C512      1.0  0.09996999999999998  0.08094  0.21569  1.0000
  C   C513      1.0  0.045689999999999974  0.07717  0.20377  1.0000
  C   C514      1.0  0.021679999999999994  0.52722  0.20255  1.0000
  C   C515      1.0  0.96142  0.12537  0.25449  1.0000
  C   C516      1.0  0.98516  0.11062000000000002  0.30392  1.0000
  C   C517      1.0  0.90931  0.18883999999999995  0.2581  1.0000
  C   C518      1.0  0.88158  0.17918  0.28341  1.0000
  C   C519      1.0  0.87688  0.70135  0.33541  1.0000
  C   C520      1.0  0.91207  0.24864999999999998  0.31459  1.0000
  C   C521      1.0  0.93642  0.25812  0.35858  1.0000
  C   C522      1.0  0.9598200000000001  0.72453  0.41564  1.0000
  C   C523      1.0  0.948  0.6865  0.44213  1.0000
  C   C524      1.0  0.9141300000000001  0.21002  0.44705  1.0000
  C   C525      1.0  0.8670500000000001  0.67588  0.44445  1.0000
  C   C526      1.0  0.86261  0.63288  0.4300299999999999  1.0000
  C   C527      1.0  0.90369  0.61412  0.42572  1.0000
  C   C528      1.0  0.9465499999999994  0.6412599999999999  0.43096  1.0000
  C   C529      1.0  0.98614  0.62533  0.41785  1.0000
  C   C530      1.0  0.9333399999999996  0.26246999999999987  0.2845  1.0000
  C   C531      1.0  0.9571499999999998  0.30894  0.28299  1.0000
  C   C532      1.0  0.9325599999999997  0.23166  0.25646  1.0000
  H   H391      1.0  0.8275399999999999  0.19733999999999996  0.17692  1.0000
  H   H392      1.0  0.79652  0.1461  0.15638  1.0000
  H   H393      1.0  0.80603  0.15788999999999995  0.20993  1.0000
  H   H394      1.0  0.91953  0.017670000000000005  0.16791  1.0000
  H   H395      1.0  0.9738200000000001  0.005480000000000007  0.22132  1.0000
  H   H396      1.0  0.89734  0.9942  0.5275  1.0000
  H   H397      1.0  0.058669999999999944  0.1844  0.28511999999999993  1.0000
  H   H398      1.0  0.01475  0.18484  0.22862  1.0000
  H   H399      1.0  0.08056000000000002  0.18543  0.24199  1.0000
  H   H400      1.0  0.1653  0.15477  0.25385  1.0000
  H   H401      1.0  0.6968  0.12109  0.30527999999999994  1.0000
  H   H402      1.0  0.20297  0.1046  0.26009  1.0000
  H   H403      1.0  0.97445  0.06883  0.15006  1.0000
  H   H404      1.0  0.04413000000000001  0.49731  0.22765  1.0000
  H   H405      1.0  0.98138  0.52314  0.19634999999999997  1.0000
  H   H406      1.0  0.9553499999999999  0.09593  0.31415  1.0000
  H   H407      1.0  0.014440000000000014  0.08196  0.31501  1.0000
  H   H408      1.0  0.0021300000000000047  0.14078  0.32053  1.0000
  H   H409      1.0  0.86245  0.63036  0.32498  1.0000
  H   H410      1.0  0.85621  0.69914  0.35567999999999994  1.0000
  H   H411      1.0  0.91631  0.24326999999999996  0.45826  1.0000
  H   H412      1.0  0.8481299999999999  0.1945  0.45572  1.0000
  H   H413      1.0  0.90065  0.58053  0.41495  1.0000
  H   H414      1.0  0.98225  0.58805  0.4137899999999999  1.0000
  H   H415      1.0  0.024640000000000016  0.62973  0.44339  1.0000
  H   H416      1.0  0.9823299999999999  0.64632  0.38628  1.0000
  H   H417      1.0  0.96745  0.31642  0.25466  1.0000
  H   H418      1.0  0.9291899999999998  0.33672  0.27886  1.0000
  H   H419      1.0  0.9916  0.30976  0.31395  1.0000
  H   H420      1.0  0.95146  0.23999  0.23479999999999995  1.0000
  C   C533      1.0  0.70521  0.22765  0.72041  1.0000
  O   O127      1.0  0.71306  0.5693599999999999  0.69072  1.0000
  Fe  Fe29      1.0  0.16383  0.06741  0.77404  1.0000
  Fe  Fe30      1.0  0.70001  0.12705000000000002  0.7090499999999997  1.0000
  O   O128      1.0  0.7442499999999997  0.52444  0.7595699999999997  1.0000
  O   O129      1.0  0.81051  0.07506  0.55744  1.0000
  O   O130      1.0  0.81716  0.02609  0.5153  1.0000
  Fe  Fe31      1.0  0.7679  0.06461000000000001  0.4689799999999999  1.0000
  Fe  Fe32      1.0  0.7412499999999999  0.06344000000000001  0.5508899999999999  1.0000
  O   O131      1.0  0.11748  0.07596  0.47609  1.0000
  O   O132      1.0  0.1718  0.54566  0.5532  1.0000
  O   O133      1.0  0.71994  0.051579999999999994  0.49322  1.0000
  C   C534      1.0  0.74011  0.46208  0.59651  1.0000
  C   C535      1.0  0.72901  0.52877  0.71711  1.0000
  C   C536      1.0  0.69388  0.15730000000000002  0.49162999999999996  1.0000
  C   C537      1.0  0.839  0.053720000000000004  0.54324  1.0000
  C   C538      1.0  0.11698000000000004  0.07358  0.67008  1.0000
  C   C539      1.0  0.13111999999999993  0.06726999999999998  0.52153  1.0000
  O   O134      1.0  0.7613  0.4945500000000001  0.57788  1.0000
  O   O135      1.0  0.76311  0.49161  0.5786999999999998  1.0000
  O   O136      1.0  0.7210599999999998  0.13057  0.52986  1.0000
  O   O137      1.0  0.6713499999999999  0.1428  0.4539199999999999  1.0000
  O   O138      1.0  0.13310999999999995  0.09916  0.70071  1.0000
  C   C540      1.0  0.8109599999999999  0.12854  0.75432  1.0000
  O   O139      1.0  0.12544999999999995  0.0957  0.70567  1.0000
  O   O140      1.0  0.81386  0.09120000000000004  0.7829699999999998  1.0000
  O   O141      1.0  0.7680299999999999  0.14838000000000004  0.7229899999999998  1.0000
  O   O142      1.0  0.71351  0.10623000000000002  0.76647  1.0000
  O   O143      1.0  0.67645  0.191  0.70882  1.0000
  O   O144      1.0  0.75268  0.22025  0.74839  1.0000
  C   C541      1.0  0.62775  0.33062  0.63205  1.0000
  C   C542      1.0  0.6500399999999998  0.28521999999999986  0.6527  1.0000
  C   C543      1.0  0.64063  0.24647  0.62597  1.0000
  C   C544      1.0  0.68587  0.27728000000000014  0.6976599999999997  1.0000
  C   C545      1.0  0.70933  0.31777000000000005  0.71615  1.0000
  C   C546      1.0  0.75791  0.31416  0.7577  1.0000
  C   C547      1.0  0.6899099999999998  0.36305  0.69208  1.0000
  C   C548      1.0  0.72333  0.40380999999999995  0.69374  1.0000
  C   C549      1.0  0.74459  0.40971  0.66274  1.0000
  C   C550      1.0  0.76611  0.36814  0.65308  1.0000
  C   C551      1.0  0.7510299999999999  0.45482999999999996  0.64404  1.0000
  C   C552      1.0  0.75445  0.49207  0.66676  1.0000
  C   C553      1.0  0.78501  0.5334899999999998  0.66059  1.0000
  C   C554      1.0  0.73436  0.48727  0.69872  1.0000
  C   C555      1.0  0.7176699999999998  0.44304000000000004  0.71152  1.0000
  C   C556      1.0  0.19513  0.43366000000000005  0.74525  1.0000
  C   C557      1.0  0.64252  0.36783999999999994  0.65561  1.0000
  C   C558      1.0  0.61625  0.41576  0.63453  1.0000
  C   C559      1.0  0.60516  0.34396  0.58362  1.0000
  C   C560      1.0  0.55366  0.33958  0.55712  1.0000
  C   C561      1.0  0.03497999999999999  0.34929  0.51078  1.0000
  C   C562      1.0  0.56861  0.36768  0.4922  1.0000
  C   C563      1.0  0.5606  0.3541  0.4512  1.0000
  C   C564      1.0  0.07990999999999995  0.32397  0.43991999999999987  1.0000
  C   C565      1.0  0.10801999999999999  0.28022  0.45225  1.0000
  C   C566      1.0  0.65212  0.28058000000000005  0.4460199999999999  1.0000
  C   C567      1.0  0.1874  0.24068  0.46768  1.0000
  C   C568      1.0  0.17586999999999994  0.20211999999999994  0.49182  1.0000
  C   C569      1.0  0.13134999999999997  0.20367  0.49793  1.0000
  C   C570      1.0  0.09772999999999998  0.24262  0.47921  1.0000
  C   C571      1.0  0.05203000000000001  0.24282999999999996  0.4893  1.0000
  C   C572      1.0  0.61894  0.37746  0.51932  1.0000
  C   C573      1.0  0.65691  0.39303  0.50085  1.0000
  C   C574      1.0  0.63686  0.36421  0.56456  1.0000
  H   H421      1.0  0.67702  0.22806  0.63328  1.0000
  H   H422      1.0  0.6154299999999999  0.22204999999999997  0.63471  1.0000
  H   H423      1.0  0.62311  0.25843  0.59012  1.0000
  H   H424      1.0  0.79052  0.30617  0.75055  1.0000
  H   H425      1.0  0.7648299999999999  0.34725  0.77133  1.0000
  H   H426      1.0  0.8106  0.2733  0.43061  1.0000
  H   H427      1.0  0.76682  0.37489  0.62025  1.0000
  H   H428      1.0  0.74454  0.33626  0.65407  1.0000
  H   H429      1.0  0.8059  0.36066  0.67805  1.0000
  H   H430      1.0  0.80004  0.55181  0.68941  1.0000
  H   H431      1.0  0.8187599999999999  0.52175  0.65685  1.0000
  H   H432      1.0  0.76214  0.55807  0.63092  1.0000
  H   H433      1.0  0.7252  0.43699999999999994  0.7778  1.0000
  H   H434      1.0  0.16734  0.46307  0.73704  1.0000
  H   H435      1.0  0.1741399999999999  0.4011100000000001  0.7451999999999998  1.0000
  H   H436      1.0  0.57538  0.41257  0.61325  1.0000
  H   H437      1.0  0.61757  0.43599  0.65988  1.0000
  H   H438      1.0  0.63446  0.4355  0.61433  1.0000
  H   H439      1.0  0.02851999999999999  0.32195  0.57102  1.0000
  H   H440      1.0  0.9966899999999999  0.34056  0.49033  1.0000
  H   H441      1.0  0.6617499999999998  0.31009  0.42732  1.0000
  H   H442      1.0  0.72059  0.24125  0.46205  1.0000
  H   H443      1.0  0.12043999999999996  0.17291999999999996  0.51417  1.0000
  H   H444      1.0  0.03730000000000002  0.20719  0.49118  1.0000
  H   H445      1.0  0.020979999999999985  0.26656  0.46404  1.0000
  H   H446      1.0  0.06286000000000001  0.25437  0.52128  1.0000
  H   H447      1.0  0.6862  0.41429000000000005  0.52242  1.0000
  H   H448      1.0  0.6761499999999999  0.36185  0.49832  1.0000
  H   H449      1.0  0.6377  0.41479  0.46787  1.0000
  H   H450      1.0  0.67639  0.36821  0.58498  1.0000
  C   C575      1.0  0.9199  0.14365000000000003  0.57465  1.0000
  C   C576      1.0  0.87734  0.12995  0.54098  1.0000
  C   C577      1.0  0.82819  0.15947  0.52144  1.0000
  C   C578      1.0  0.87875  0.08257  0.5363299999999999  1.0000
  C   C579      1.0  0.92572  0.06309  0.5404  1.0000
  C   C580      1.0  0.9273899999999998  0.01742999999999999  0.52552  1.0000
  C   C581      1.0  0.97057  0.08615000000000002  0.56434  1.0000
  C   C582      1.0  0.024460000000000006  0.08594  0.56548  1.0000
  C   C583      1.0  0.05597999999999999  0.11312  0.59595  1.0000
  C   C584      1.0  0.04634000000000001  0.16547  0.58408  1.0000
  C   C585      1.0  0.10447999999999995  0.09649000000000002  0.62165  1.0000
  C   C586      1.0  0.12987999999999994  0.08883  0.59465  1.0000
  C   C587      1.0  0.17489000000000005  0.11946000000000001  0.60311  1.0000
  C   C588      1.0  0.10088999999999994  0.07725  0.54961  1.0000
  C   C589      1.0  0.04718999999999998  0.07009  0.53833  1.0000
  C   C590      1.0  0.014579999999999975  0.54341  0.5074  1.0000
  C   C591      1.0  0.9627999999999999  0.11340000000000004  0.5927599999999997  1.0000
  C   C592      1.0  0.99035  0.10019000000000004  0.6421599999999997  1.0000
  C   C593      1.0  0.9139299999999999  0.17947  0.59804  1.0000
  C   C594      1.0  0.8840299999999998  0.17016999999999996  0.62141  1.0000
  C   C595      1.0  0.8660699999999999  0.7196  0.62718  1.0000
  C   C596      1.0  0.9047799999999996  0.24428000000000002  0.64613  1.0000
  C   C597      1.0  0.92362  0.2595399999999999  0.68785  1.0000
  C   C598      1.0  0.93409  0.75916  0.7072  1.0000
  C   C599      1.0  0.92713  0.72268  0.73818  1.0000
  C   C600      1.0  0.90867  0.21982999999999997  0.7822  1.0000
  C   C601      1.0  0.85064  0.70732  0.74773  1.0000
  C   C602      1.0  0.84803  0.6631499999999999  0.73556  1.0000
  C   C603      1.0  0.88939  0.64616  0.73055  1.0000
  C   C604      1.0  0.9295799999999999  0.67565  0.73228  1.0000
  C   C605      1.0  0.9744999999999998  0.65684  0.72786  1.0000
  C   C606      1.0  0.9279899999999999  0.25714  0.61736  1.0000
  C   C607      1.0  0.94402  0.30632  0.61045  1.0000
  C   C608      1.0  0.93343  0.22386  0.59374  1.0000
  H   H451      1.0  0.83553  0.19679999999999995  0.51351  1.0000
  H   H452      1.0  0.8006  0.14706  0.49146  1.0000
  H   H453      1.0  0.81077  0.15825  0.5449  1.0000
  H   H454      1.0  0.92128  0.023869999999999992  0.49058  1.0000
  H   H455      1.0  0.96356  0.99762  0.54726  1.0000
  H   H456      1.0  0.90813  0.9937199999999999  0.87764  1.0000
  H   H457      1.0  0.04620999999999995  0.17943  0.6125  1.0000
  H   H458      1.0  0.009090000000000006  0.17565000000000003  0.55567  1.0000
  H   H459      1.0  0.07560000000000004  0.18178  0.57413  1.0000
  H   H460      1.0  0.16139000000000006  0.15595  0.58733  1.0000
  H   H461      1.0  0.69684  0.12264000000000003  0.63743  1.0000
  H   H462      1.0  0.20127999999999996  0.10870999999999999  0.59091  1.0000
  H   H463      1.0  0.98126  0.06522  0.47889  1.0000
  H   H464      1.0  0.030240000000000013  0.54582  0.4826  1.0000
  H   H465      1.0  0.01794000000000001  0.50608  0.5225  1.0000
  H   H466      1.0  0.9623199999999997  0.08922  0.65581  1.0000
  H   H467      1.0  0.01678000000000002  0.06947  0.65154  1.0000
  H   H468      1.0  0.011269999999999971  0.13006  0.65713  1.0000
  H   H469      1.0  0.85822  0.6501100000000001  0.6134  1.0000
  H   H470      1.0  0.8486  0.71143  0.64993  1.0000
  H   H471      1.0  0.9111899999999996  0.25389000000000006  0.7919299999999998  1.0000
  H   H472      1.0  0.84114  0.20687000000000003  0.79042  1.0000
  H   H473      1.0  0.88895  0.6113599999999999  0.72279  1.0000
  H   H474      1.0  0.006149999999999975  0.64761  0.761  1.0000
  H   H475      1.0  0.9873099999999998  0.68289  0.70723  1.0000
  H   H476      1.0  0.9650999999999997  0.62457  0.71306  1.0000
  H   H477      1.0  0.95725  0.31193  0.58391  1.0000
  H   H478      1.0  0.9107799999999996  0.33069  0.60034  1.0000
  H   H479      1.0  0.9744  0.31478  0.64116  1.0000
  H   H480      1.0  0.9526700000000001  0.23225  0.57234  1.0000
  C   C609      1.0  0.72362  0.23273  0.04794  1.0000
  O   O145      1.0  0.72272  0.57589  0.02033  1.0000
  Fe  Fe33      1.0  0.16596  0.08524  0.10854  1.0000
  Fe  Fe34      1.0  0.7088999999999999  0.13001  0.04114  1.0000
  O   O146      1.0  0.7308699999999999  0.52531  0.08217  1.0000
  O   O147      1.0  0.80742  0.07312999999999999  0.89091  1.0000
  O   O148      1.0  0.81816  0.027140000000000008  0.84835  1.0000
  Fe  Fe35      1.0  0.76532  0.06584  0.80508  1.0000
  Fe  Fe36      1.0  0.73758  0.05909  0.88323  1.0000
  O   O149      1.0  0.12383999999999999  0.0871  0.811  1.0000
  O   O150      1.0  0.19327  0.5506799999999998  0.88746  1.0000
  O   O151      1.0  0.71803  0.041630000000000014  0.82713  1.0000
  C   C610      1.0  0.78614  0.46820999999999996  0.93548  1.0000
  C   C611      1.0  0.72929  0.53294  0.04224  1.0000
  C   C612      1.0  0.70319  0.14782000000000003  0.81797  1.0000
  C   C613      1.0  0.8383099999999999  0.05362999999999997  0.87784  1.0000
  C   C614      1.0  0.11898999999999997  0.08616  0.00319  1.0000
  C   C615      1.0  0.13157  0.07087  0.85459  1.0000
  O   O152      1.0  0.78022  0.50316  0.90153  1.0000
  O   O153      1.0  0.78012  0.5020499999999998  0.90371  1.0000
  O   O154      1.0  0.7145499999999999  0.12507000000000004  0.8580099999999998  1.0000
  O   O155      1.0  0.7005099999999999  0.12577  0.78534  1.0000
  O   O156      1.0  0.13821  0.11168  0.03336  1.0000
  C   C616      1.0  0.82057  0.12121  0.08619  1.0000
  O   O157      1.0  0.12905  0.11012  0.03841  1.0000
  O   O158      1.0  0.82065  0.08509  0.11512999999999998  1.0000
  O   O159      1.0  0.77903  0.14358  0.05523  1.0000
  O   O160      1.0  0.721  0.10572  0.09605  1.0000
  O   O161      1.0  0.69435  0.19557  0.04603  1.0000
  O   O162      1.0  0.77225  0.22687999999999997  0.05925  1.0000
  C   C617      1.0  0.64031  0.33019  0.95764  1.0000
  C   C618      1.0  0.66351  0.2856  0.98035  1.0000
  C   C619      1.0  0.6551499999999998  0.2444  0.95633  1.0000
  C   C620      1.0  0.70041  0.28079  0.02473  1.0000
  C   C621      1.0  0.72312  0.3226899999999999  0.04056  1.0000
  C   C622      1.0  0.7709799999999998  0.32153  0.08237  1.0000
  C   C623      1.0  0.70257  0.36694  0.01428  1.0000
  C   C624      1.0  0.73301  0.4102  0.01606  1.0000
  C   C625      1.0  0.7584199999999999  0.41854  0.98788  1.0000
  C   C626      1.0  0.78093  0.37763  0.97801  1.0000
  C   C627      1.0  0.76525  0.46488999999999997  0.97003  1.0000
  C   C628      1.0  0.75754  0.50218  0.98916  1.0000
  C   C629      1.0  0.77671  0.54952  0.97943  1.0000
  C   C630      1.0  0.73707  0.4936  0.02161  1.0000
  C   C631      1.0  0.72319  0.44766  0.03359  1.0000
  C   C632      1.0  0.19306  0.43888  0.06267  1.0000
  C   C633      1.0  0.65466  0.36927999999999994  0.97879  1.0000
  C   C634      1.0  0.62574  0.41599  0.95664  1.0000
  C   C635      1.0  0.61655  0.34068  0.9091499999999998  1.0000
  C   C636      1.0  0.56803  0.3266499999999999  0.8836499999999999  1.0000
  C   C637      1.0  0.048439999999999886  0.33560000000000006  0.83726  1.0000
  C   C638      1.0  0.57829  0.3606  0.81761  1.0000
  C   C639      1.0  0.57456  0.34707000000000005  0.7779  1.0000
  C   C640      1.0  0.09078000000000003  0.31756  0.7654  1.0000
  C   C641      1.0  0.12409999999999993  0.27930999999999995  0.77101  1.0000
  C   C642      1.0  0.67039  0.27515  0.80534  1.0000
  C   C643      1.0  0.19824999999999995  0.23110000000000003  0.82346  1.0000
  C   C644      1.0  0.17674999999999985  0.19276000000000001  0.8033199999999999  1.0000
  C   C645      1.0  0.12973999999999988  0.19809000000000002  0.7664799999999998  1.0000
  C   C646      1.0  0.10436000000000005  0.24156  0.74891  1.0000
  C   C647      1.0  0.05329999999999998  0.24544  0.71084  1.0000
  C   C648      1.0  0.62388  0.3800299999999999  0.84337  1.0000
  C   C649      1.0  0.65593  0.40778  0.82376  1.0000
  C   C650      1.0  0.6435899999999999  0.36796  0.8887499999999999  1.0000
  H   H481      1.0  0.6922899999999997  0.22842999999999994  0.96231  1.0000
  H   H482      1.0  0.6341799999999997  0.21815  0.96888  1.0000
  H   H483      1.0  0.6341999999999999  0.25332  0.92025  1.0000
  H   H484      1.0  0.8045499999999998  0.32505  0.07459  1.0000
  H   H485      1.0  0.76946  0.3508  0.09923  1.0000
  H   H486      1.0  0.7560099999999997  0.28704999999999997  0.78386  1.0000
  H   H487      1.0  0.7666099999999998  0.37843  0.94211  1.0000
  H   H488      1.0  0.77314  0.34299  0.99233  1.0000
  H   H489      1.0  0.8229299999999998  0.38  0.99213  1.0000
  H   H490      1.0  0.80325  0.5608399999999999  0.01036  1.0000
  H   H491      1.0  0.79631  0.5512399999999997  0.95801  1.0000
  H   H492      1.0  0.74489  0.57482  0.96201  1.0000
  H   H493      1.0  0.72569  0.43914  0.09892  1.0000
  H   H494      1.0  0.16293  0.46676  0.05219  1.0000
  H   H495      1.0  0.17337999999999998  0.40556999999999993  0.062269999999999985  1.0000
  H   H496      1.0  0.5858  0.41107000000000005  0.93394  1.0000
  H   H497      1.0  0.62356  0.4353100000000001  0.98132  1.0000
  H   H498      1.0  0.64441  0.43762999999999996  0.93782  1.0000
  H   H499      1.0  0.043520000000000024  0.30565  0.89762  1.0000
  H   H500      1.0  0.014000000000000032  0.31986  0.81714  1.0000
  H   H501      1.0  0.6863099999999998  0.3050300000000001  0.82102  1.0000
  H   H502      1.0  0.73561  0.23028999999999997  0.8485499999999998  1.0000
  H   H503      1.0  0.11267999999999999  0.16808  0.75122  1.0000
  H   H504      1.0  0.04685999999999992  0.21556  0.6927  1.0000
  H   H505      1.0  0.049819999999999975  0.27813  0.68769  1.0000
  H   H506      1.0  0.024620000000000038  0.24622  0.72405  1.0000
  H   H507      1.0  0.67404  0.43623  0.84273  1.0000
  H   H508      1.0  0.6863099999999998  0.38465  0.82485  1.0000
  H   H509      1.0  0.6321799999999997  0.42422  0.7894  1.0000
  H   H510      1.0  0.68067  0.37966  0.90847  1.0000
  C   C651      1.0  0.91976  0.14812  0.90991  1.0000
  C   C652      1.0  0.8768499999999998  0.13102  0.87927  1.0000
  C   C653      1.0  0.82717  0.15962999999999994  0.8593  1.0000
  C   C654      1.0  0.88035  0.0834  0.87549  1.0000
  C   C655      1.0  0.92831  0.066  0.87896  1.0000
  C   C656      1.0  0.93271  0.01874000000000001  0.86808  1.0000
  C   C657      1.0  0.9721099999999998  0.09271000000000001  0.89913  1.0000
  C   C658      1.0  0.025999999999999964  0.09387  0.89936  1.0000
  C   C659      1.0  0.05749999999999999  0.12262999999999999  0.92835  1.0000
  C   C660      1.0  0.04658999999999996  0.17478999999999997  0.91517  1.0000
  C   C661      1.0  0.10670999999999996  0.10728  0.95402  1.0000
  C   C662      1.0  0.13152999999999998  0.09684999999999999  0.92694  1.0000
  C   C663      1.0  0.17971  0.12219  0.93478  1.0000
  C   C664      1.0  0.10210000000000001  0.08484000000000001  0.88235  1.0000
  C   C665      1.0  0.04834000000000006  0.07754000000000003  0.87215  1.0000
  C   C666      1.0  0.047810000000000026  0.5200899999999998  0.8493  1.0000
  C   C667      1.0  0.9644499999999999  0.12057000000000007  0.9269499999999998  1.0000
  C   C668      1.0  0.9936899999999999  0.10872999999999998  0.97628  1.0000
  C   C669      1.0  0.91468  0.1854  0.93243  1.0000
  C   C670      1.0  0.88558  0.17815000000000003  0.9567  1.0000
  C   C671      1.0  0.8898199999999998  0.5662699999999999  0.9936  1.0000
  C   C672      1.0  0.91915  0.24713999999999997  0.98799  1.0000
  C   C673      1.0  0.94408  0.25658  0.03204  1.0000
  C   C674      1.0  0.98435  0.59718  0.0826  1.0000
  C   C675      1.0  0.95664  0.60431  0.10717999999999997  1.0000
  C   C676      1.0  0.91955  0.21043999999999996  0.11928  1.0000
  C   C677      1.0  0.88627  0.66246  0.07991  1.0000
  C   C678      1.0  0.8526899999999998  0.62609  0.07564  1.0000
  C   C679      1.0  0.87178  0.57976  0.09294  1.0000
  C   C680      1.0  0.92286  0.56782  0.10878  1.0000
  C   C681      1.0  0.93413  0.51656  0.11034  1.0000
  C   C682      1.0  0.9414499999999999  0.259  0.9584299999999998  1.0000
  C   C683      1.0  0.96759  0.30428000000000005  0.95727  1.0000
  C   C684      1.0  0.93964  0.22732  0.93079  1.0000
  H   H511      1.0  0.83393  0.19735000000000003  0.85282  1.0000
  H   H512      1.0  0.8013499999999998  0.1491  0.82782  1.0000
  H   H513      1.0  0.80832  0.15622000000000003  0.88191  1.0000
  H   H514      1.0  0.92074  0.021490000000000002  0.83214  1.0000
  H   H515      1.0  0.9719399999999999  0.003630000000000004  0.88695  1.0000
  H   H516      1.0  0.91165  0.99358  0.21686  1.0000
  H   H517      1.0  0.050129999999999994  0.19020999999999996  0.94407  1.0000
  H   H518      1.0  0.007699999999999966  0.18372999999999998  0.88889  1.0000
  H   H519      1.0  0.07301999999999996  0.19082000000000005  0.9014999999999999  1.0000
  H   H520      1.0  0.1700299999999999  0.15712999999999996  0.91356  1.0000
  H   H521      1.0  0.70046  0.12798999999999996  0.9692  1.0000
  H   H522      1.0  0.20572000000000004  0.10335  0.92661  1.0000
  H   H523      1.0  0.9789  0.06781  0.81714  1.0000
  H   H524      1.0  0.08098000000000001  0.49712999999999996  0.85579  1.0000
  H   H525      1.0  0.023370000000000005  0.4978  0.86157  1.0000
  H   H526      1.0  0.96668  0.09899  0.99136  1.0000
  H   H527      1.0  0.019630000000000005  0.07763000000000002  0.98571  1.0000
  H   H528      1.0  0.015419999999999918  0.13892  0.98977  1.0000
  H   H529      1.0  0.8976099999999998  0.5380399999999997  0.9431799999999998  1.0000
  H   H530      1.0  0.88698  0.532  0.01022  1.0000
  H   H531      1.0  0.92181  0.24381  0.13023  1.0000
  H   H532      1.0  0.85023  0.19703  0.12418  1.0000
  H   H533      1.0  0.8458299999999999  0.55155  0.0914  1.0000
  H   H534      1.0  0.92872  0.49471000000000004  0.13794  1.0000
  H   H535      1.0  0.97234  0.50953  0.11232999999999999  1.0000
  H   H536      1.0  0.90678  0.50427  0.08013  1.0000
  H   H537      1.0  0.9789099999999998  0.3104400000000001  0.9294999999999999  1.0000
  H   H538      1.0  0.9407699999999999  0.33339  0.95251  1.0000
  H   H539      1.0  0.0017399999999999837  0.30429  0.98863  1.0000
  H   H540      1.0  0.9588  0.23446  0.90927  1.0000
  C   C685      1.0  0.71734  0.7250799999999998  0.37504  1.0000
  O   O163      1.0  0.72051  0.060340000000000005  0.3657  1.0000
  Fe  Fe37      1.0  0.1644899999999999  0.58313  0.44843  1.0000
  Fe  Fe38      1.0  0.70253  0.62236  0.37855  1.0000
  O   O164      1.0  0.74916  0.014559999999999991  0.4351  1.0000
  O   O165      1.0  0.78723  0.5636  0.21247  1.0000
  O   O166      1.0  0.8005599999999998  0.5474100000000001  0.15655  1.0000
  Fe  Fe39      1.0  0.7368200000000001  0.57664  0.11282  1.0000
  Fe  Fe40      1.0  0.71786  0.54836  0.20183  1.0000
  O   O167      1.0  0.10573999999999999  0.59954  0.14784999999999998  1.0000
  O   O168      1.0  0.17342  0.04865  0.21389  1.0000
  O   O169      1.0  0.69243  0.55589  0.13917  1.0000
  C   C686      1.0  0.73809  0.9686499999999999  0.26384  1.0000
  C   C687      1.0  0.7368499999999998  0.02003  0.39243  1.0000
  C   C688      1.0  0.69616  0.65151  0.16544  1.0000
  C   C689      1.0  0.81876  0.55918  0.1949  1.0000
  C   C690      1.0  0.11324  0.58732  0.34271  1.0000
  C   C691      1.0  0.11526  0.57435  0.18866  1.0000
  O   O170      1.0  0.7626299999999999  0.99609  0.24431999999999995  1.0000
  O   O171      1.0  0.76469  0.99273  0.24565  1.0000
  O   O172      1.0  0.7069099999999999  0.6163  0.19914999999999997  1.0000
  O   O173      1.0  0.67957  0.64569  0.12433  1.0000
  O   O174      1.0  0.13512  0.61019  0.37445  1.0000
  C   C692      1.0  0.81446  0.60948  0.42029  1.0000
  O   O175      1.0  0.12464000000000001  0.60953  0.37916  1.0000
  O   O176      1.0  0.81423  0.57378  0.44946  1.0000
  O   O177      1.0  0.7729500000000001  0.6331599999999998  0.39092  1.0000
  O   O178      1.0  0.7162999999999999  0.60006  0.43326  1.0000
  O   O179      1.0  0.6917199999999999  0.6883999999999999  0.38308  1.0000
  O   O180      1.0  0.75789  0.7189599999999999  0.36838  1.0000
  C   C693      1.0  0.63044  0.82806  0.29813  1.0000
  C   C694      1.0  0.65067  0.78181  0.31717  1.0000
  C   C695      1.0  0.63442  0.7431  0.28997  1.0000
  C   C696      1.0  0.69267  0.7731  0.35922  1.0000
  C   C697      1.0  0.71849  0.81226  0.3779499999999999  1.0000
  C   C698      1.0  0.7694099999999998  0.80693  0.41736  1.0000
  C   C699      1.0  0.6978899999999998  0.85803  0.35718  1.0000
  C   C700      1.0  0.73094  0.89903  0.36061  1.0000
  C   C701      1.0  0.75059  0.9086699999999998  0.32841  1.0000
  C   C702      1.0  0.7714199999999999  0.87001  0.31473999999999996  1.0000
  C   C703      1.0  0.75713  0.9549  0.31266  1.0000
  C   C704      1.0  0.76201  0.9888499999999999  0.33914  1.0000
  C   C705      1.0  0.7895799999999998  0.03249  0.33308  1.0000
  C   C706      1.0  0.74372  0.98024  0.37252  1.0000
  C   C707      1.0  0.72682  0.93528  0.3824299999999999  1.0000
  C   C708      1.0  0.20392999999999997  0.92681  0.41595  1.0000
  C   C709      1.0  0.64888  0.86432  0.32254  1.0000
  C   C710      1.0  0.62315  0.91272  0.30371  1.0000
  C   C711      1.0  0.6083  0.8427499999999999  0.24974  1.0000
  C   C712      1.0  0.5568999999999998  0.839  0.2224  1.0000
  C   C713      1.0  0.04102999999999999  0.84823  0.17832  1.0000
  C   C714      1.0  0.5740999999999999  0.86703  0.15856  1.0000
  C   C715      1.0  0.56847  0.85168  0.11890999999999999  1.0000
  C   C716      1.0  0.08885999999999998  0.82046  0.11074  1.0000
  C   C717      1.0  0.11684  0.77653  0.125  1.0000
  C   C718      1.0  0.66502  0.7760599999999999  0.12562  1.0000
  C   C719      1.0  0.19732  0.73546  0.1464  1.0000
  C   C720      1.0  0.18156999999999998  0.69674  0.16712  1.0000
  C   C721      1.0  0.13505  0.69974  0.16976  1.0000
  C   C722      1.0  0.10208999999999999  0.73879  0.1485  1.0000
  C   C723      1.0  0.05159999999999999  0.73866  0.15126  1.0000
  C   C724      1.0  0.62384  0.87738  0.18647  1.0000
  C   C725      1.0  0.66262  0.89388  0.16906  1.0000
  C   C726      1.0  0.64068  0.8634299999999999  0.23153  1.0000
  H   H541      1.0  0.66709  0.73246  0.28412  1.0000
  H   H542      1.0  0.6224299999999999  0.71296  0.30756  1.0000
  H   H543      1.0  0.6022  0.75335  0.25766  1.0000
  H   H544      1.0  0.7999  0.81825  0.40677  1.0000
  H   H545      1.0  0.76906  0.8291799999999999  0.44095  1.0000
  H   H546      1.0  0.77123  0.7853699999999999  0.11615  1.0000
  H   H547      1.0  0.7687  0.87988  0.28085  1.0000
  H   H548      1.0  0.75176  0.83692  0.3159  1.0000
  H   H549      1.0  0.81223  0.86331  0.33742  1.0000
  H   H550      1.0  0.8089499999999998  0.04650000000000001  0.36425  1.0000
  H   H551      1.0  0.8196799999999999  0.024950000000000017  0.3226999999999999  1.0000
  H   H552      1.0  0.76292  0.05922  0.30785  1.0000
  H   H553      1.0  0.73348  0.92651  0.4488  1.0000
  H   H554      1.0  0.17445999999999995  0.9545799999999999  0.40812999999999994  1.0000
  H   H555      1.0  0.18495999999999996  0.89312  0.41598  1.0000
  H   H556      1.0  0.5818699999999999  0.91028  0.28329  1.0000
  H   H557      1.0  0.62615  0.9317999999999997  0.33027  1.0000
  H   H558      1.0  0.64035  0.93318  0.28303  1.0000
  H   H559      1.0  0.03313  0.82155  0.23812  1.0000
  H   H560      1.0  0.0031000000000000034  0.83895  0.15754  1.0000
  H   H561      1.0  0.67838  0.80575  0.11024  1.0000
  H   H562      1.0  0.73263  0.73346  0.14484  1.0000
  H   H563      1.0  0.12143  0.66962  0.18399  1.0000
  H   H564      1.0  0.03877  0.70241  0.1552  1.0000
  H   H565      1.0  0.021730000000000003  0.75847  0.12092  1.0000
  H   H566      1.0  0.055519999999999986  0.75394  0.18024  1.0000
  H   H567      1.0  0.69116  0.91514  0.19129  1.0000
  H   H568      1.0  0.68275  0.86325  0.16666  1.0000
  H   H569      1.0  0.64395  0.91592  0.13619  1.0000
  H   H570      1.0  0.67996  0.86725  0.25249  1.0000
  C   C727      1.0  0.91172  0.62258  0.27458  1.0000
  C   C728      1.0  0.8668899999999998  0.61742  0.23837  1.0000
  C   C729      1.0  0.8234  0.65416  0.21867  1.0000
  C   C730      1.0  0.8683300000000002  0.58344  0.2144  1.0000
  C   C731      1.0  0.91392  0.58572  0.20685  1.0000
  C   C732      1.0  0.91262  0.6312699999999999  0.17811  1.0000
  C   C733      1.0  0.96177  0.5824099999999999  0.24539  1.0000
  C   C734      1.0  0.01531999999999999  0.59079  0.244  1.0000
  C   C735      1.0  0.04545  0.62094  0.27205  1.0000
  C   C736      1.0  0.0276  0.66977  0.26838  1.0000
  C   C737      1.0  0.09643  0.61112  0.29376  1.0000
  C   C738      1.0  0.1189  0.60491  0.26364  1.0000
  C   C739      1.0  0.16717  0.63026  0.27164  1.0000
  C   C740      1.0  0.09017  0.5861  0.22216  1.0000
  C   C741      1.0  0.03996000000000001  0.57124  0.21963  1.0000
  C   C742      1.0  0.014009999999999998  0.054689999999999996  0.16498  1.0000
  C   C743      1.0  0.9558  0.59518  0.28251  1.0000
  C   C744      1.0  0.9937399999999998  0.57931  0.32891  1.0000
  C   C745      1.0  0.9127600000000001  0.6620499999999999  0.29693  1.0000
  C   C746      1.0  0.88214  0.66145  0.31963  1.0000
  C   C747      1.0  0.88089  0.21021  0.30987  1.0000
  C   C748      1.0  0.90924  0.7383  0.33514  1.0000
  C   C749      1.0  0.9433399999999996  0.7449899999999998  0.37852  1.0000
  C   C750      1.0  0.9467499999999998  0.24045000000000005  0.3958699999999999  1.0000
  C   C751      1.0  0.9430299999999999  0.20057999999999998  0.42542  1.0000
  C   C752      1.0  0.9113199999999999  0.70014  0.45463  1.0000
  C   C753      1.0  0.87354  0.18236  0.44437  1.0000
  C   C754      1.0  0.8639900000000001  0.14266999999999996  0.42399  1.0000
  C   C755      1.0  0.90054  0.12701  0.41213  1.0000
  C   C756      1.0  0.9408  0.15595  0.41305  1.0000
  C   C757      1.0  0.9803600000000001  0.13948  0.40036  1.0000
  C   C758      1.0  0.92852  0.7439099999999998  0.30349  1.0000
  C   C759      1.0  0.946  0.7906699999999999  0.2902  1.0000
  C   C760      1.0  0.9292499999999999  0.70556  0.28367  1.0000
  H   H571      1.0  0.83803  0.68976  0.21579  1.0000
  H   H572      1.0  0.7973499999999998  0.65048  0.18443  1.0000
  H   H573      1.0  0.80173  0.65179  0.23907  1.0000
  H   H574      1.0  0.91566  0.6616  0.19497  1.0000
  H   H575      1.0  0.94578  0.6331  0.17067  1.0000
  H   H576      1.0  0.91963  0.5077100000000002  0.51178  1.0000
  H   H577      1.0  0.026830000000000003  0.6753499999999999  0.29963  1.0000
  H   H578      1.0  0.9906699999999998  0.67767  0.24022  1.0000
  H   H579      1.0  0.05287  0.69487  0.26033  1.0000
  H   H580      1.0  0.15794  0.66721  0.25619  1.0000
  H   H581      1.0  0.68698  0.63067  0.30688  1.0000
  H   H582      1.0  0.19071  0.61435  0.25891  1.0000
  H   H583      1.0  0.028169999999999994  0.52693  0.17286  1.0000
  H   H584      1.0  0.02863  0.06124  0.13943  1.0000
  H   H585      1.0  0.015370000000000005  0.01632  0.17547  1.0000
  H   H586      1.0  0.97314  0.56326  0.34844  1.0000
  H   H587      1.0  0.02017000000000002  0.5517  0.33022  1.0000
  H   H588      1.0  0.015099999999999997  0.609  0.34366  1.0000
  H   H589      1.0  0.86356  0.14605999999999997  0.2852  1.0000
  H   H590      1.0  0.86257  0.19998000000000002  0.33179  1.0000
  H   H591      1.0  0.91154  0.73468  0.46294  1.0000
  H   H592      1.0  0.83493  0.69246  0.44518  1.0000
  H   H593      1.0  0.8962299999999999  0.0941  0.40002  1.0000
  H   H594      1.0  0.013889999999999963  0.12445  0.43051  1.0000
  H   H595      1.0  0.99276  0.16850999999999997  0.38193  1.0000
  H   H596      1.0  0.96527  0.11199  0.37969  1.0000
  H   H597      1.0  0.95884  0.7898599999999999  0.26379  1.0000
  H   H598      1.0  0.91373  0.8168  0.27747  1.0000
  H   H599      1.0  0.97769  0.80169  0.31894  1.0000
  H   H600      1.0  0.93971  0.71067  0.25658  1.0000
  C   C761      1.0  0.7021099999999999  0.72692  0.71746  1.0000
  O   O181      1.0  0.72216  0.06694  0.7017  1.0000
  Fe  Fe41      1.0  0.17229  0.58156  0.77741  1.0000
  Fe  Fe42      1.0  0.69265  0.63104  0.69813  1.0000
  O   O182      1.0  0.74973  0.018559999999999983  0.76879  1.0000
  O   O183      1.0  0.80782  0.57404  0.56267  1.0000
  O   O184      1.0  0.81442  0.52326  0.52179  1.0000
  Fe  Fe43      1.0  0.76525  0.56187  0.47466  1.0000
  Fe  Fe44      1.0  0.73808  0.56182  0.55588  1.0000
  O   O185      1.0  0.11514999999999999  0.57873  0.48106  1.0000
  O   O186      1.0  0.17594  0.048610000000000014  0.54901  1.0000
  O   O187      1.0  0.71674  0.55277  0.49821  1.0000
  C   C762      1.0  0.73981  0.97075  0.59839  1.0000
  C   C763      1.0  0.73777  0.025689999999999987  0.72655  1.0000
  C   C764      1.0  0.6942899999999997  0.65723  0.49831  1.0000
  C   C765      1.0  0.83648  0.55185  0.54901  1.0000
  C   C766      1.0  0.11375000000000005  0.5776  0.67416  1.0000
  C   C767      1.0  0.12769999999999995  0.5667199999999999  0.52612  1.0000
  O   O188      1.0  0.7645799999999997  0.99734  0.5786999999999998  1.0000
  O   O189      1.0  0.76682  0.9939700000000001  0.58015  1.0000
  O   O190      1.0  0.7176799999999999  0.6294  0.53694  1.0000
  O   O191      1.0  0.67326  0.64365  0.4602  1.0000
  O   O192      1.0  0.13417  0.604  0.70308  1.0000
  C   C768      1.0  0.8029499999999998  0.63548  0.73061  1.0000
  O   O193      1.0  0.12617  0.60289  0.70867  1.0000
  O   O194      1.0  0.8091399999999997  0.5961  0.75823  1.0000
  O   O195      1.0  0.7578299999999999  0.65486  0.70367  1.0000
  O   O196      1.0  0.7150799999999998  0.61124  0.7551599999999998  1.0000
  O   O197      1.0  0.671  0.69435  0.69951  1.0000
  O   O198      1.0  0.74299  0.71323  0.75314  1.0000
  C   C769      1.0  0.6365799999999998  0.83284  0.6292899999999999  1.0000
  C   C770      1.0  0.65923  0.7874100000000003  0.64877  1.0000
  C   C771      1.0  0.65345  0.75092  0.62023  1.0000
  C   C772      1.0  0.6919099999999998  0.77775  0.69462  1.0000
  C   C773      1.0  0.71745  0.81738  0.71377  1.0000
  C   C774      1.0  0.7655999999999998  0.8141000000000002  0.75584  1.0000
  C   C775      1.0  0.6977199999999999  0.86313  0.6911299999999998  1.0000
  C   C776      1.0  0.73075  0.90424  0.69478  1.0000
  C   C777      1.0  0.7518299999999999  0.91294  0.66363  1.0000
  C   C778      1.0  0.7727999999999998  0.87354  0.65084  1.0000
  C   C779      1.0  0.75805  0.9588999999999998  0.64712  1.0000
  C   C780      1.0  0.76155  0.9939899999999999  0.67229  1.0000
  C   C781      1.0  0.7877  0.03815000000000001  0.66491  1.0000
  C   C782      1.0  0.74314  0.98604  0.70559  1.0000
  C   C783      1.0  0.7258599999999998  0.94108  0.71567  1.0000
  C   C784      1.0  0.20368999999999998  0.93055  0.7493  1.0000
  C   C785      1.0  0.65054  0.8687899999999998  0.65434  1.0000
  C   C786      1.0  0.62398  0.91675  0.63471  1.0000
  C   C787      1.0  0.61349  0.84774  0.58107  1.0000
  C   C788      1.0  0.56155  0.84529  0.55501  1.0000
  C   C789      1.0  0.041949999999999994  0.85762  0.51188  1.0000
  C   C790      1.0  0.5756699999999998  0.87456  0.4899  1.0000
  C   C791      1.0  0.5674999999999999  0.8596899999999998  0.44939  1.0000
  C   C792      1.0  0.0845  0.82819  0.44157  1.0000
  C   C793      1.0  0.11138999999999998  0.78359  0.45549  1.0000
  C   C794      1.0  0.65819  0.78089  0.44925  1.0000
  C   C795      1.0  0.18884  0.7401899999999999  0.47111  1.0000
  C   C796      1.0  0.17655  0.70372  0.49714  1.0000
  C   C797      1.0  0.13167  0.70776  0.50223  1.0000
  C   C798      1.0  0.1  0.74785  0.48328  1.0000
  C   C799      1.0  0.055339999999999986  0.75106  0.49435  1.0000
  C   C800      1.0  0.62642  0.8833  0.51688  1.0000
  C   C801      1.0  0.66401  0.8990899999999998  0.49802  1.0000
  C   C802      1.0  0.64499  0.8682699999999999  0.56196  1.0000
  H   H601      1.0  0.68889  0.72882  0.6328899999999997  1.0000
  H   H602      1.0  0.62192  0.72927  0.62037  1.0000
  H   H603      1.0  0.64602  0.76587  0.58589  1.0000
  H   H604      1.0  0.79367  0.8387599999999998  0.75136  1.0000
  H   H605      1.0  0.75675  0.82354  0.7823  1.0000
  H   H606      1.0  0.7787999999999999  0.77062  0.43526  1.0000
  H   H607      1.0  0.77193  0.88307  0.61753  1.0000
  H   H608      1.0  0.7520199999999998  0.84101  0.65111  1.0000
  H   H609      1.0  0.8131  0.86593  0.67456  1.0000
  H   H610      1.0  0.8063499999999998  0.053599999999999995  0.69539  1.0000
  H   H611      1.0  0.81827  0.03077000000000001  0.65503  1.0000
  H   H612      1.0  0.76019  0.06366  0.63878  1.0000
  H   H613      1.0  0.73168  0.93109  0.7819  1.0000
  H   H614      1.0  0.17473999999999995  0.95872  0.74174  1.0000
  H   H615      1.0  0.18397  0.89721  0.74867  1.0000
  H   H616      1.0  0.58292  0.91348  0.61408  1.0000
  H   H617      1.0  0.62613  0.93615  0.66085  1.0000
  H   H618      1.0  0.64129  0.93726  0.61415  1.0000
  H   H619      1.0  0.03621999999999994  0.82957  0.57239  1.0000
  H   H620      1.0  0.002789999999999989  0.8509599999999999  0.49174  1.0000
  H   H621      1.0  0.66936  0.80923  0.43067  1.0000
  H   H622      1.0  0.72419  0.73754  0.46502  1.0000
  H   H623      1.0  0.11806999999999997  0.67783  0.517  1.0000
  H   H624      1.0  0.03922  0.71621  0.49719  1.0000
  H   H625      1.0  0.024770000000000018  0.77544  0.4692  1.0000
  H   H626      1.0  0.06805  0.76272  0.52648  1.0000
  H   H627      1.0  0.6945399999999999  0.9187599999999999  0.52038  1.0000
  H   H628      1.0  0.6817  0.86811  0.49351  1.0000
  H   H629      1.0  0.6447  0.92243  0.46595  1.0000
  H   H630      1.0  0.68482  0.8709  0.58209  1.0000
  C   C803      1.0  0.9089399999999999  0.6529999999999999  0.56269  1.0000
  C   C804      1.0  0.86798  0.63015  0.5357  1.0000
  C   C805      1.0  0.81605  0.6551499999999999  0.51331  1.0000
  C   C806      1.0  0.87516  0.58109  0.54034  1.0000
  C   C807      1.0  0.92444  0.56332  0.54781  1.0000
  C   C808      1.0  0.93289  0.5129  0.54646  1.0000
  C   C809      1.0  0.96564  0.59375  0.56323  1.0000
  C   C810      1.0  0.02082  0.59034  0.56809  1.0000
  C   C811      1.0  0.05327000000000006  0.61635  0.59938  1.0000
  C   C812      1.0  0.048520000000000015  0.6690099999999999  0.58712  1.0000
  C   C813      1.0  0.10094999999999996  0.59758  0.62513  1.0000
  C   C814      1.0  0.12659000000000006  0.58921  0.59852  1.0000
  C   C815      1.0  0.17259  0.61819  0.60628  1.0000
  C   C816      1.0  0.09754  0.5777  0.55378  1.0000
  C   C817      1.0  0.04363999999999989  0.57179  0.5423599999999997  1.0000
  C   C818      1.0  0.017669999999999995  0.0458  0.50017  1.0000
  C   C819      1.0  0.95502  0.62734  0.58481  1.0000
  C   C820      1.0  0.97762  0.61881  0.6346  1.0000
  C   C821      1.0  0.8988699999999998  0.69227  0.58054  1.0000
  C   C822      1.0  0.87208  0.68434  0.60679  1.0000
  C   C823      1.0  0.8778699999999999  0.20321  0.64396  1.0000
  C   C824      1.0  0.8924299999999998  0.76065  0.62603  1.0000
  C   C825      1.0  0.9200700000000002  0.77356  0.66856  1.0000
  C   C826      1.0  0.9348399999999999  0.2462  0.72619  1.0000
  C   C827      1.0  0.93651  0.20871  0.76008  1.0000
  C   C828      1.0  0.8910499999999999  0.7356799999999999  0.75152  1.0000
  C   C829      1.0  0.86739  0.19326000000000002  0.7802  1.0000
  C   C830      1.0  0.8582599999999998  0.15227  0.76175  1.0000
  C   C831      1.0  0.8951  0.13439  0.75151  1.0000
  C   C832      1.0  0.9349699999999999  0.16257999999999997  0.75069  1.0000
  C   C833      1.0  0.97078  0.14492  0.73441  1.0000
  C   C834      1.0  0.9100099999999999  0.77237  0.59317  1.0000
  C   C835      1.0  0.9205699999999997  0.82215  0.5805099999999999  1.0000
  C   C836      1.0  0.9143599999999995  0.73723  0.57087  1.0000
  H   H631      1.0  0.81904  0.69247  0.50126  1.0000
  H   H632      1.0  0.7904  0.6388600000000001  0.48527  1.0000
  H   H633      1.0  0.79911  0.65562  0.53678  1.0000
  H   H634      1.0  0.9734899999999996  0.5015999999999998  0.5655  1.0000
  H   H635      1.0  0.91148  0.48992  0.56167  1.0000
  H   H636      1.0  0.88934  0.55084  0.78207  1.0000
  H   H637      1.0  0.05312000000000002  0.68459  0.61621  1.0000
  H   H638      1.0  0.011449999999999991  0.68197  0.55978  1.0000
  H   H639      1.0  0.07757999999999995  0.6814999999999999  0.5752  1.0000
  H   H640      1.0  0.16186999999999996  0.65171  0.58375  1.0000
  H   H641      1.0  0.68634  0.63388  0.63516  1.0000
  H   H642      1.0  0.20251  0.60032  0.60265  1.0000
  H   H643      1.0  0.97435  0.55545  0.49047  1.0000
  H   H644      1.0  0.037889999999999986  0.04354  0.47927  1.0000
  H   H645      1.0  0.012639999999999978  0.00912999999999999  0.51242  1.0000
  H   H646      1.0  0.9475499999999998  0.6063499999999997  0.64538  1.0000
  H   H647      1.0  0.0077500000000001075  0.59058  0.64954  1.0000
  H   H648      1.0  0.99312  0.65137  0.64741  1.0000
  H   H649      1.0  0.8670599999999999  0.13655  0.62357  1.0000
  H   H650      1.0  0.8577299999999999  0.19372000000000006  0.6645099999999999  1.0000
  H   H651      1.0  0.88891  0.77105  0.75729  1.0000
  H   H652      1.0  0.82095  0.7210899999999998  0.75338  1.0000
  H   H653      1.0  0.89052  0.10068  0.74069  1.0000
  H   H654      1.0  0.9966299999999999  0.11719999999999998  0.75954  1.0000
  H   H655      1.0  0.99426  0.17267  0.7272  1.0000
  H   H656      1.0  0.94917  0.12978000000000006  0.7043  1.0000
  H   H657      1.0  0.9303899999999999  0.82636  0.5519  1.0000
  H   H658      1.0  0.88557  0.8441800000000002  0.57075  1.0000
  H   H659      1.0  0.9519099999999996  0.83442  0.6086299999999998  1.0000
  H   H660      1.0  0.93032  0.7444299999999999  0.54695  1.0000
  C   C837      1.0  0.71773  0.73051  0.05357  1.0000
  O   O199      1.0  0.72349  0.06739999999999999  0.03317  1.0000
  Fe  Fe45      1.0  0.13533  0.59792  0.09953  1.0000
  Fe  Fe46      1.0  0.70739  0.63457  0.03483  1.0000
  O   O200      1.0  0.7501  0.019790000000000002  0.10206  1.0000
  O   O201      1.0  0.82216  0.58571  0.87294  1.0000
  O   O202      1.0  0.8235399999999999  0.53568  0.82995  1.0000
  Fe  Fe47      1.0  0.76869  0.5749000000000001  0.79086  1.0000
  Fe  Fe48      1.0  0.75708  0.5718  0.87936  1.0000
  O   O203      1.0  0.1292900000000001  0.5713  0.81459  1.0000
  O   O204      1.0  0.17221  0.04418000000000001  0.88006  1.0000
  O   O205      1.0  0.72823  0.55936  0.82252  1.0000
  C   C838      1.0  0.7396599999999999  0.96971  0.93526  1.0000
  C   C839      1.0  0.73792  0.026290000000000004  0.05944  1.0000
  C   C840      1.0  0.6994599999999995  0.6629  0.8243399999999997  1.0000
  C   C841      1.0  0.84803  0.5643  0.85557  1.0000
  C   C842      1.0  0.10628000000000003  0.59877  0.99731  1.0000
  C   C843      1.0  0.14657999999999996  0.56579  0.8602  1.0000
  O   O206      1.0  0.7636299999999999  0.9947700000000002  0.9142  1.0000
  O   O207      1.0  0.76618  0.99149  0.91576  1.0000
  O   O208      1.0  0.73562  0.63887  0.86041  1.0000
  O   O209      1.0  0.67109  0.6464299999999998  0.7885  1.0000
  O   O210      1.0  0.14588  0.60348  0.03475  1.0000
  C   C844      1.0  0.79947  0.63348  0.06558  1.0000
  O   O211      1.0  0.14498  0.60211  0.039209999999999995  1.0000
  O   O212      1.0  0.7847100000000001  0.60449  0.09149  1.0000
  O   O213      1.0  0.76603  0.65908  0.03038  1.0000
  O   O214      1.0  0.67487  0.60095  0.0672  1.0000
  O   O215      1.0  0.68758  0.69486  0.04361  1.0000
  O   O216      1.0  0.76708  0.72276  0.07465  1.0000
  C   C845      1.0  0.63701  0.83194  0.96652  1.0000
  C   C846      1.0  0.6599499999999998  0.78671  0.98665  1.0000
  C   C847      1.0  0.6497  0.74795  0.95952  1.0000
  C   C848      1.0  0.69694  0.77913  0.03138  1.0000
  C   C849      1.0  0.7194699999999998  0.81913  0.0504  1.0000
  C   C850      1.0  0.7687899999999998  0.81603  0.09143  1.0000
  C   C851      1.0  0.6986999999999998  0.86391  0.02723  1.0000
  C   C852      1.0  0.73157  0.90445  0.03044  1.0000
  C   C853      1.0  0.7536299999999999  0.91194  0.0  1.0000
  C   C854      1.0  0.7725899999999998  0.87209  0.98617  1.0000
  C   C855      1.0  0.76105  0.95738  0.98377  1.0000
  C   C856      1.0  0.7647  0.99265  0.008559999999999996  1.0000
  C   C857      1.0  0.79444  0.03509  0.00356  1.0000
  C   C858      1.0  0.74376  0.98606  0.03999  1.0000
  C   C859      1.0  0.7258499999999998  0.94177  0.05025  1.0000
  C   C860      1.0  0.19755  0.93396  0.0795  1.0000
  C   C861      1.0  0.6516199999999998  0.8688900000000002  0.9904099999999998  1.0000
  C   C862      1.0  0.6250099999999998  0.91678  0.96996  1.0000
  C   C863      1.0  0.61195  0.84536  0.91813  1.0000
  C   C864      1.0  0.56066  0.83791  0.89348  1.0000
  C   C865      1.0  0.04025  0.8452300000000001  0.84439  1.0000
  C   C866      1.0  0.56999  0.86943  0.82651  1.0000
  C   C867      1.0  0.5611099999999999  0.85588  0.78538  1.0000
  C   C868      1.0  0.08369999999999995  0.8214600000000001  0.7735799999999999  1.0000
  C   C869      1.0  0.11313000000000002  0.77843  0.78709  1.0000
  C   C870      1.0  0.65703  0.78658  0.78485  1.0000
  C   C871      1.0  0.19694000000000006  0.74188  0.81206  1.0000
  C   C872      1.0  0.18115000000000003  0.70073  0.82931  1.0000
  C   C873      1.0  0.13195999999999997  0.6996  0.8274  1.0000
  C   C874      1.0  0.09855  0.73856  0.80832  1.0000
  C   C875      1.0  0.049110000000000015  0.73685  0.81294  1.0000
  C   C876      1.0  0.6198299999999999  0.88221  0.85175  1.0000
  C   C877      1.0  0.6547  0.90153  0.83087  1.0000
  C   C878      1.0  0.64061  0.86874  0.8972  1.0000
  H   H661      1.0  0.68602  0.72939  0.9668899999999998  1.0000
  H   H662      1.0  0.62369  0.72329  0.96733  1.0000
  H   H663      1.0  0.63288  0.76034  0.92361  1.0000
  H   H664      1.0  0.8013699999999999  0.8146299999999997  0.08257  1.0000
  H   H665      1.0  0.77217  0.84681  0.10792  1.0000
  H   H666      1.0  0.78594  0.7800399999999998  0.76699  1.0000
  H   H667      1.0  0.7700199999999999  0.88145  0.95229  1.0000
  H   H668      1.0  0.75154  0.83986  0.98697  1.0000
  H   H669      1.0  0.81324  0.86409  0.00878  1.0000
  H   H670      1.0  0.8165199999999998  0.04615  0.03589  1.0000
  H   H671      1.0  0.82236  0.027390000000000005  0.99081  1.0000
  H   H672      1.0  0.76891  0.06418999999999997  0.98099  1.0000
  H   H673      1.0  0.72959  0.93371  0.11578  1.0000
  H   H674      1.0  0.16916  0.963  0.07077  1.0000
  H   H675      1.0  0.1767  0.9012  0.07813999999999999  1.0000
  H   H676      1.0  0.58421  0.91356  0.94848  1.0000
  H   H677      1.0  0.6260199999999999  0.9363500000000001  0.99563  1.0000
  H   H678      1.0  0.64323  0.9372299999999999  0.95013  1.0000
  H   H679      1.0  0.038250000000000006  0.8166899999999999  0.90621  1.0000
  H   H680      1.0  0.0032999999999999523  0.83252  0.82541  1.0000
  H   H681      1.0  0.6677  0.81805  0.76939  1.0000
  H   H682      1.0  0.7290699999999999  0.75089  0.80542  1.0000
  H   H683      1.0  0.11806999999999994  0.66708  0.83807  1.0000
  H   H684      1.0  0.034719999999999994  0.70096  0.81269  1.0000
  H   H685      1.0  0.019479999999999973  0.76046  0.78582  1.0000
  H   H686      1.0  0.055359999999999986  0.74731  0.84472  1.0000
  H   H687      1.0  0.68264  0.92452  0.85143  1.0000
  H   H688      1.0  0.67579  0.87225  0.8274599999999999  1.0000
  H   H689      1.0  0.6327899999999999  0.92257  0.79793  1.0000
  H   H690      1.0  0.6799899999999999  0.8752  0.9162999999999998  1.0000
  C   C879      1.0  0.9367  0.6123999999999999  0.91191  1.0000
  C   C880      1.0  0.90335  0.62819  0.86822  1.0000
  C   C881      1.0  0.86718  0.67031  0.85409  1.0000
  C   C882      1.0  0.8896399999999999  0.59046  0.84633  1.0000
  C   C883      1.0  0.93312  0.5672599999999999  0.84683  1.0000
  C   C884      1.0  0.92914  0.54909  0.8069899999999999  1.0000
  C   C885      1.0  0.98063  0.56777  0.88491  1.0000
  C   C886      1.0  0.03185999999999997  0.584  0.88679  1.0000
  C   C887      1.0  0.05564999999999997  0.61692  0.91577  1.0000
  C   C888      1.0  0.029979999999999868  0.6623399999999999  0.9133199999999998  1.0000
  C   C889      1.0  0.10419999999999996  0.60578  0.94871  1.0000
  C   C890      1.0  0.13705  0.59514  0.92832  1.0000
  C   C891      1.0  0.17806999999999992  0.6296299999999999  0.93349  1.0000
  C   C892      1.0  0.11519000000000003  0.57512  0.88641  1.0000
  C   C893      1.0  0.06427999999999999  0.5608199999999999  0.87345  1.0000
  C   C894      1.0  0.017980000000000003  0.05216999999999999  0.83504  1.0000
  C   C895      1.0  0.97326  0.57636  0.92098  1.0000
  C   C896      1.0  0.00464999999999994  0.54954  0.9664599999999999  1.0000
  C   C897      1.0  0.91607  0.61228  0.94245  1.0000
  C   C898      1.0  0.89875  0.56946  0.9569  1.0000
  C   C899      1.0  0.88599  0.21011999999999997  0.98285  1.0000
  C   C900      1.0  0.9041  0.6043999999999999  0.01468  1.0000
  C   C901      1.0  0.95757  0.5980999999999997  0.04451  1.0000
  C   C902      1.0  0.95484  0.23957999999999996  0.06959999999999998  1.0000
  C   C903      1.0  0.9495599999999998  0.20016  0.09877  1.0000
  C   C904      1.0  0.93845  0.6517199999999999  0.09714  1.0000
  C   C905      1.0  0.87778  0.18381  0.11518  1.0000
  C   C906      1.0  0.8688  0.14395  0.09515  1.0000
  C   C907      1.0  0.90525  0.12795999999999996  0.08333  1.0000
  C   C908      1.0  0.94699  0.15555  0.08625  1.0000
  C   C909      1.0  0.98479  0.14016  0.07096  1.0000
  C   C910      1.0  0.8914199999999998  0.64844  0.98774  1.0000
  C   C911      1.0  0.84258  0.6748699999999997  0.97675  1.0000
  C   C912      1.0  0.9097899999999998  0.6536100000000001  0.95603  1.0000
  H   H691      1.0  0.88911  0.70257  0.85775  1.0000
  H   H692      1.0  0.83981  0.67209  0.81945  1.0000
  H   H693      1.0  0.8438799999999997  0.6689399999999999  0.87302  1.0000
  H   H694      1.0  0.95217  0.57032  0.79235  1.0000
  H   H695      1.0  0.9417699999999999  0.5118100000000001  0.81582  1.0000
  H   H696      1.0  0.87513  0.63822  0.15063  1.0000
  H   H697      1.0  0.021579999999999995  0.66181  0.94241  1.0000
  H   H698      1.0  0.99499  0.67037  0.88236  1.0000
  H   H699      1.0  0.055529999999999954  0.6913  0.9126999999999998  1.0000
  H   H700      1.0  0.16164  0.66214  0.91011  1.0000
  H   H701      1.0  0.69757  0.64378  0.96413  1.0000
  H   H702      1.0  0.20977  0.6164900000000001  0.92846  1.0000
  H   H703      1.0  0.02845000000000001  0.53265  0.81342  1.0000
  H   H704      1.0  0.0348799999999999  0.054200000000000026  0.8110899999999998  1.0000
  H   H705      1.0  0.017980000000000006  0.014580000000000003  0.84796  1.0000
  H   H706      1.0  0.9832899999999998  0.52007  0.97455  1.0000
  H   H707      1.0  0.03984999999999999  0.53364  0.96823  1.0000
  H   H708      1.0  0.01441999999999997  0.57282  0.9915  1.0000
  H   H709      1.0  0.86562  0.14611  0.95799  1.0000
  H   H710      1.0  0.86696  0.20143  0.00441  1.0000
  H   H711      1.0  0.9633299999999998  0.67984  0.09549999999999999  1.0000
  H   H712      1.0  0.87243  0.69856  0.07068  1.0000
  H   H713      1.0  0.89989  0.09576  0.06992  1.0000
  H   H714      1.0  0.98165  0.10252999999999997  0.06801  1.0000
  H   H715      1.0  0.02393  0.14558  0.095  1.0000
  H   H716      1.0  0.97841  0.16055  0.03852  1.0000
  H   H717      1.0  0.82242  0.6880199999999999  0.94086  1.0000
  H   H718      1.0  0.81604  0.65168  0.98547  1.0000
  H   H719      1.0  0.8505399999999999  0.70533  0.9940799999999997  1.0000
  H   H720      1.0  0.91235  0.6878100000000001  0.9388899999999998  1.0000
