data_image0
_chemical_formula_structural       O8Cu2C4O8Cu2C4O8Cu2C4O8Cu2C4O8Cu2C4O8Cu2C4O8Cu2C4O8Cu2C4O8Cu2C4O8Cu2C4O8Cu2C4O8Cu2C4O8Cu2C4O8Cu2C4O8Cu2C4O8Cu2C11H2CF6C7H2CF6C7H2CF6C7H2CF6C7H2CF6C7H2CF6C7H2CF6C7H2CF6C7H2CF6C7H2CF6C7H2CF6C7H2CF6C7H2CF6C7H2CF6C7H2CF6C7H2CF6C7H2CF6C7H2CF6C7H2CF6C7H2CF6C7H2CF6C7H2CF6C7H2CF6C7H2CF6C7H2CF6C7H2CF6C7H2CF6C7H2CF6C7H2CF6C7H2CF6C7H2CF6C7H2CF6
_chemical_formula_sum              "O128 Cu32 C320 H64 F192"
_cell_length_a       32.9973
_cell_length_b       33.104099999999995
_cell_length_c       26.8037
_cell_angle_alpha    90.1375
_cell_angle_beta     89.801
_cell_angle_gamma    90.0324

_symmetry_space_group_name_H-M    'P 1'
_symmetry_Int_Tables_number       1

loop_
  _symmetry_equiv_pos_as_xyz
  'x,y,z'

loop_
  _atom_site_type_symbol
  _atom_site_label
  _atom_site_symmetry_multiplicity
  _atom_site_fract_x
  _atom_site_fract_y
  _atom_site_fract_z
  _atom_site_occupancy
  O   O1        1.0  0.95501  0.31228  0.05501  1.0000
  O   O2        1.0  0.03621  0.31673  0.96044  1.0000
  O   O3        1.0  0.9560799999999999  0.31566  0.95728  1.0000
  O   O4        1.0  0.03402  0.31241  0.05634  1.0000
  O   O5        1.0  0.03638  0.24598999999999996  0.04837000000000001  1.0000
  O   O6        1.0  0.95538  0.24905000000000002  0.9550100000000001  1.0000
  O   O7        1.0  0.03305  0.25074  0.9516100000000001  1.0000
  O   O8        1.0  0.9567199999999999  0.24595000000000003  0.05168  1.0000
  Cu  Cu1       1.0  0.99503  0.321  0.00762  1.0000
  Cu  Cu2       1.0  0.99542  0.24126  0.0016200000000000001  1.0000
  C   C1        1.0  0.9418999999999998  0.27831  0.06971  1.0000
  C   C2        1.0  0.04865  0.28451  0.9397000000000001  1.0000
  C   C3        1.0  0.94249  0.28272  0.93928  1.0000
  C   C4        1.0  0.04914  0.27848  0.06804  1.0000
  O   O9        1.0  0.4693  0.8104  0.5424  1.0000
  O   O10       1.0  0.54557  0.80553  0.4414300000000001  1.0000
  O   O11       1.0  0.4665299999999999  0.8073  0.44546  1.0000
  O   O12       1.0  0.5484699999999998  0.80855  0.53892  1.0000
  O   O13       1.0  0.54718  0.7421  0.54108  1.0000
  O   O14       1.0  0.46499  0.74077  0.4498100000000001  1.0000
  O   O15       1.0  0.54368  0.73911  0.44464  1.0000
  O   O16       1.0  0.4687  0.74388  0.54594  1.0000
  Cu  Cu3       1.0  0.50772  0.81469  0.49173  1.0000
  Cu  Cu4       1.0  0.5060699999999998  0.73483  0.49562  1.0000
  C   C5        1.0  0.456  0.77783  0.56145  1.0000
  C   C6        1.0  0.55749  0.7713199999999999  0.42551  1.0000
  C   C7        1.0  0.45154  0.77365  0.43216000000000004  1.0000
  C   C8        1.0  0.56201  0.7754199999999998  0.55581  1.0000
  O   O17       1.0  0.05034999999999967  0.69602  0.04161  1.0000
  O   O18       1.0  0.9687699999999998  0.68929  0.9476  1.0000
  O   O19       1.0  0.0481100000000001  0.69298  0.9446800000000001  1.0000
  O   O20       1.0  0.97161  0.68675  0.04495  1.0000
  O   O21       1.0  0.9663999999999998  0.75315  0.04507  1.0000
  O   O22       1.0  0.04305000000000003  0.75895  0.94555  1.0000
  O   O23       1.0  0.96429  0.75585  0.94773  1.0000
  O   O24       1.0  0.044249999999999894  0.76187  0.04159  1.0000
  Cu  Cu5       1.0  0.010150000000000102  0.68459  0.9946500000000001  1.0000
  Cu  Cu6       1.0  0.0038199999999997125  0.764  0.9949  1.0000
  C   C9        1.0  0.06163999999999969  0.7305  0.0577  1.0000
  C   C10       1.0  0.95266  0.7217  0.93184  1.0000
  C   C11       1.0  0.05943000000000009  0.72703  0.92819  1.0000
  C   C12       1.0  0.9561499999999998  0.71895  0.06237  1.0000
  O   O25       1.0  0.5340299999999998  0.19104  0.55479  1.0000
  O   O26       1.0  0.45112999999999986  0.19157  0.46269  1.0000
  O   O27       1.0  0.53051  0.18942999999999996  0.45716  1.0000
  O   O28       1.0  0.45518  0.19806  0.55921  1.0000
  O   O29       1.0  0.45847  0.26411  0.55389  1.0000
  O   O30       1.0  0.53401  0.25576  0.45429  1.0000
  O   O31       1.0  0.4548899999999999  0.25813  0.45806  1.0000
  O   O32       1.0  0.53662  0.25753  0.5515  1.0000
  Cu  Cu7       1.0  0.4924799999999999  0.18584  0.50878  1.0000
  Cu  Cu8       1.0  0.49656  0.26544  0.50384  1.0000
  C   C13       1.0  0.54899  0.22431  0.56955  1.0000
  C   C14       1.0  0.43858  0.22492  0.44535  1.0000
  C   C15       1.0  0.54547  0.22143  0.43855  1.0000
  C   C16       1.0  0.4434799999999999  0.23284  0.57372  1.0000
  O   O33       1.0  0.69926  0.95227  0.04601  1.0000
  O   O34       1.0  0.69629  0.03289  0.95112  1.0000
  O   O35       1.0  0.69882  0.95338  0.9489700000000001  1.0000
  O   O36       1.0  0.69477  0.03077  0.04789  1.0000
  O   O37       1.0  0.7615  0.03431  0.04706  1.0000
  O   O38       1.0  0.76575  0.95524  0.9509  1.0000
  O   O39       1.0  0.7626599999999998  0.03411  0.9503  1.0000
  O   O40       1.0  0.7657  0.95654  0.04739  1.0000
  Cu  Cu9       1.0  0.69054  0.99205  0.99821  1.0000
  Cu  Cu10      1.0  0.77057  0.99543  0.99867  1.0000
  C   C17       1.0  0.73309  0.94065  0.06324  1.0000
  C   C18       1.0  0.72909  0.04788  0.9346300000000001  1.0000
  C   C19       1.0  0.73302  0.94045  0.93418  1.0000
  C   C20       1.0  0.7275599999999998  0.04566  0.06446  1.0000
  O   O41       1.0  0.18897  0.54441  0.4562  1.0000
  O   O42       1.0  0.19026999999999994  0.46493  0.55231  1.0000
  O   O43       1.0  0.19211  0.54474  0.55297  1.0000
  O   O44       1.0  0.18878  0.46558  0.45475000000000004  1.0000
  O   O45       1.0  0.25527  0.4648  0.45372  1.0000
  O   O46       1.0  0.25875  0.54357  0.54953  1.0000
  O   O47       1.0  0.25708  0.46466  0.55061  1.0000
  O   O48       1.0  0.25581  0.54287  0.45299  1.0000
  Cu  Cu11      1.0  0.18332  0.50487  0.50461  1.0000
  Cu  Cu12      1.0  0.26334999999999986  0.50381  0.50168  1.0000
  C   C21       1.0  0.22221999999999995  0.55727  0.43834  1.0000
  C   C22       1.0  0.22382  0.45083  0.56739  1.0000
  C   C23       1.0  0.22623  0.55836  0.56716  1.0000
  C   C24       1.0  0.22174999999999995  0.45162  0.43719  1.0000
  O   O49       1.0  0.31033  0.96518  0.95134  1.0000
  O   O50       1.0  0.30946  0.04139000000000004  0.05249  1.0000
  O   O51       1.0  0.31085  0.96247  0.049040000000000014  1.0000
  O   O52       1.0  0.3095899999999999  0.04462999999999995  0.9551499999999999  1.0000
  O   O53       1.0  0.24322  0.0436399999999999  0.95717  1.0000
  O   O54       1.0  0.24414999999999998  0.96139  0.04802  1.0000
  O   O55       1.0  0.24289999999999995  0.03993000000000002  0.05311  1.0000
  O   O56       1.0  0.24380999999999997  0.9663  0.95058  1.0000
  Cu  Cu13      1.0  0.31679  0.003370000000000095  0.00193  1.0000
  Cu  Cu14      1.0  0.23692999999999995  0.0024699999999999722  0.00242  1.0000
  C   C25       1.0  0.27694  0.95329  0.9327  1.0000
  C   C26       1.0  0.27596  0.05410000000000004  0.06987  1.0000
  C   C27       1.0  0.27744  0.9482  0.06491  1.0000
  C   C28       1.0  0.27592  0.05862999999999996  0.9401600000000001  1.0000
  O   O57       1.0  0.8006799999999997  0.53277  0.54324  1.0000
  O   O58       1.0  0.7925899999999998  0.45279  0.44806  1.0000
  O   O59       1.0  0.7936599999999999  0.53219  0.44672  1.0000
  O   O60       1.0  0.79737  0.45467  0.54497  1.0000
  O   O61       1.0  0.73082  0.45602  0.55047  1.0000
  O   O62       1.0  0.72705  0.53428  0.45399  1.0000
  O   O63       1.0  0.72596  0.45483  0.45439  1.0000
  O   O64       1.0  0.73407  0.53376  0.55005  1.0000
  Cu  Cu15      1.0  0.80281  0.49289999999999995  0.49475000000000013  1.0000
  Cu  Cu16      1.0  0.72275  0.49495999999999996  0.50248  1.0000
  C   C29       1.0  0.76863  0.54654  0.56337  1.0000
  C   C30       1.0  0.75789  0.43943  0.43599000000000004  1.0000
  C   C31       1.0  0.7596799999999998  0.54727  0.43475000000000014  1.0000
  C   C32       1.0  0.76468  0.44186  0.56442  1.0000
  O   O65       1.0  0.22217  0.27832  0.18687  1.0000
  O   O66       1.0  0.30986999999999987  0.25687  0.26697  1.0000
  O   O67       1.0  0.2741799999999999  0.22026  0.19363000000000002  1.0000
  O   O68       1.0  0.2577199999999999  0.31526999999999994  0.26214  1.0000
  O   O69       1.0  0.21738  0.28373  0.31499  1.0000
  O   O70       1.0  0.23419999999999994  0.18835  0.2464  1.0000
  O   O71       1.0  0.27001  0.22523  0.3201100000000001  1.0000
  O   O72       1.0  0.18195  0.24670000000000003  0.23975  1.0000
  Cu  Cu17      1.0  0.26982  0.27106  0.22214000000000006  1.0000
  Cu  Cu18      1.0  0.22177  0.23297999999999994  0.28567  1.0000
  C   C33       1.0  0.18733999999999995  0.26513  0.19871  1.0000
  C   C34       1.0  0.3051099999999999  0.23733  0.30721  1.0000
  C   C35       1.0  0.25664  0.18808  0.20785  1.0000
  C   C36       1.0  0.23567  0.31555  0.30102  1.0000
  O   O73       1.0  0.7687  0.80237  0.23171  1.0000
  O   O74       1.0  0.77734  0.7108399999999998  0.30808  1.0000
  O   O75       1.0  0.8199  0.74291  0.2353  1.0000
  O   O76       1.0  0.7270999999999997  0.76998  0.30404  1.0000
  O   O77       1.0  0.69073  0.7351399999999998  0.25022  1.0000
  O   O78       1.0  0.78351  0.71065  0.17942  1.0000
  O   O79       1.0  0.74243  0.67627  0.2522  1.0000
  O   O80       1.0  0.73083  0.76906  0.17762  1.0000
  Cu  Cu19      1.0  0.77712  0.75983  0.27516  1.0000
  Cu  Cu20      1.0  0.73337  0.71928  0.20925  1.0000
  C   C37       1.0  0.74826  0.8012999999999999  0.19174  1.0000
  C   C38       1.0  0.7607799999999998  0.67826  0.29368  1.0000
  C   C39       1.0  0.81768  0.7229  0.19487  1.0000
  C   C40       1.0  0.6930599999999998  0.75672  0.28941  1.0000
  O   O81       1.0  0.8057799999999998  0.23456  0.24322000000000002  1.0000
  O   O82       1.0  0.7107799999999997  0.21648  0.31223  1.0000
  O   O83       1.0  0.74913  0.17959  0.24020000000000002  1.0000
  O   O84       1.0  0.7659099999999998  0.27122  0.31488000000000005  1.0000
  O   O85       1.0  0.73288  0.30734  0.25893  1.0000
  O   O86       1.0  0.71625  0.21549  0.18447  1.0000
  O   O87       1.0  0.67744  0.2521  0.2566  1.0000
  O   O88       1.0  0.77235  0.27041  0.18783  1.0000
  Cu  Cu21      1.0  0.7614499999999997  0.22179  0.28302  1.0000
  Cu  Cu22      1.0  0.72143  0.26485  0.21625000000000003  1.0000
  C   C41       1.0  0.8053  0.25521  0.2034  1.0000
  C   C42       1.0  0.6779399999999998  0.23211  0.29694  1.0000
  C   C43       1.0  0.72976  0.18179  0.19942  1.0000
  C   C44       1.0  0.75154  0.30463  0.30007  1.0000
  O   O89       1.0  0.28057  0.77458  0.31334  1.0000
  O   O90       1.0  0.19193  0.75952  0.2329  1.0000
  O   O91       1.0  0.2235  0.72108  0.30793  1.0000
  O   O92       1.0  0.2488  0.8129899999999998  0.23763  1.0000
  O   O93       1.0  0.2846  0.77679  0.1845  1.0000
  O   O94       1.0  0.26166  0.68522  0.25737  1.0000
  O   O95       1.0  0.22858999999999993  0.72183  0.18184  1.0000
  O   O96       1.0  0.31832  0.73964  0.2604  1.0000
  Cu  Cu23      1.0  0.23256  0.77072  0.27819  1.0000
  Cu  Cu24      1.0  0.27714  0.7273  0.21582  1.0000
  C   C45       1.0  0.31434  0.75921  0.30091  1.0000
  C   C46       1.0  0.19512  0.73815  0.1937  1.0000
  C   C47       1.0  0.23876  0.68729  0.29539  1.0000
  C   C48       1.0  0.27022  0.8106099999999998  0.19824  1.0000
  O   O97       1.0  0.7711299999999998  0.2780299999999999  0.69192  1.0000
  O   O98       1.0  0.76038  0.18509  0.76483  1.0000
  O   O99       1.0  0.71986  0.21953999999999999  0.6920000000000001  1.0000
  O   O100      1.0  0.80951  0.2469  0.7666900000000002  1.0000
  O   O101      1.0  0.77033  0.27775  0.82117  1.0000
  O   O102      1.0  0.6811099999999998  0.25161  0.74596  1.0000
  O   O103      1.0  0.72073  0.21664  0.8185900000000002  1.0000
  O   O104      1.0  0.7329  0.31057  0.74608  1.0000
  Cu  Cu25      1.0  0.7691  0.2289  0.7237  1.0000
  Cu  Cu26      1.0  0.72229  0.26721  0.78839  1.0000
  C   C49       1.0  0.75357  0.31021  0.70601  1.0000
  C   C50       1.0  0.73936  0.18499  0.80449  1.0000
  C   C51       1.0  0.68507  0.23185  0.70556  1.0000
  C   C52       1.0  0.80538  0.26718  0.80679  1.0000
  O   O105      1.0  0.2287  0.73174  0.68132  1.0000
  O   O106      1.0  0.24859999999999996  0.82437  0.75408  1.0000
  O   O107      1.0  0.28484  0.7869  0.68152  1.0000
  O   O108      1.0  0.19256  0.76916  0.75591  1.0000
  O   O109      1.0  0.22789999999999994  0.73285  0.80926  1.0000
  O   O110      1.0  0.32062  0.75251  0.7358900000000002  1.0000
  O   O111      1.0  0.2836  0.78892  0.80846  1.0000
  O   O112      1.0  0.26517  0.69643  0.7347000000000001  1.0000
  Cu  Cu27      1.0  0.23496  0.78141  0.71283  1.0000
  Cu  Cu28      1.0  0.2777099999999999  0.73897  0.7775000000000001  1.0000
  C   C53       1.0  0.24435  0.69857  0.6950200000000001  1.0000
  C   C54       1.0  0.26964  0.82255  0.79364  1.0000
  C   C55       1.0  0.31869  0.77317  0.69605  1.0000
  C   C56       1.0  0.19464  0.74861  0.79573  1.0000
  O   O113      1.0  0.18068999999999993  0.24939  0.76356  1.0000
  O   O114      1.0  0.2754999999999999  0.22673  0.69682  1.0000
  O   O115      1.0  0.23586  0.19298  0.77008  1.0000
  O   O116      1.0  0.22283  0.28437  0.6934000000000001  1.0000
  O   O117      1.0  0.2551899999999999  0.32033  0.7495500000000002  1.0000
  O   O118      1.0  0.27156999999999987  0.22828999999999997  0.82428  1.0000
  O   O119      1.0  0.30937  0.26431  0.75058  1.0000
  O   O120      1.0  0.21470999999999996  0.28391  0.8196  1.0000
  Cu  Cu29      1.0  0.22523  0.23471  0.7256400000000002  1.0000
  Cu  Cu30      1.0  0.26606999999999986  0.27756  0.79186  1.0000
  C   C57       1.0  0.18120999999999995  0.27038  0.80313  1.0000
  C   C58       1.0  0.30837  0.24254000000000003  0.7115  1.0000
  C   C59       1.0  0.25609  0.19504000000000002  0.81024  1.0000
  C   C60       1.0  0.23713999999999993  0.31809  0.70796  1.0000
  O   O121      1.0  0.74871  0.68341  0.73456  1.0000
  O   O122      1.0  0.7305  0.77452  0.80862  1.0000
  O   O123      1.0  0.69373  0.73912  0.73452  1.0000
  O   O124      1.0  0.78612  0.71978  0.8065  1.0000
  O   O125      1.0  0.8215099999999997  0.75557  0.7530800000000001  1.0000
  O   O126      1.0  0.72905  0.77456  0.68035  1.0000
  O   O127      1.0  0.76559  0.81085  0.75479  1.0000
  O   O128      1.0  0.78389  0.71879  0.68024  1.0000
  Cu  Cu31      1.0  0.73613  0.72573  0.77644  1.0000
  Cu  Cu32      1.0  0.7785799999999998  0.76862  0.7117  1.0000
  C   C61       1.0  0.7691599999999997  0.68528  0.69444  1.0000
  C   C62       1.0  0.7453199999999998  0.80811  0.79499  1.0000
  C   C63       1.0  0.69561  0.75924  0.6943700000000003  1.0000
  C   C64       1.0  0.81983  0.73462  0.79256  1.0000
  C   C65       1.0  0.23805  0.08971  0.13679  1.0000
  C   C66       1.0  0.27438  0.086  0.10944  1.0000
  C   C67       1.0  0.30614  0.11417  0.11848  1.0000
  C   C68       1.0  0.29932  0.14581  0.15267  1.0000
  C   C69       1.0  0.26229  0.15056999999999998  0.17796  1.0000
  C   C70       1.0  0.23117  0.12156  0.17063  1.0000
  C   C71       1.0  0.19016  0.12472999999999998  0.19645  1.0000
  H   H1        1.0  0.21434  0.06768  0.13061  1.0000
  H   H2        1.0  0.3228899999999999  0.16793  0.15925  1.0000
  C   C72       1.0  0.34655  0.11241  0.09117  1.0000
  F   F1        1.0  0.16329  0.0955  0.17996  1.0000
  F   F2        1.0  0.17296999999999996  0.16203  0.18701  1.0000
  F   F3        1.0  0.19486999999999993  0.11974  0.2473  1.0000
  F   F4        1.0  0.34017  0.11461  0.04033  1.0000
  F   F5        1.0  0.3663699999999999  0.07684999999999999  0.1027  1.0000
  F   F6        1.0  0.37184999999999996  0.14408  0.10422  1.0000
  C   C73       1.0  0.80116  0.60894  0.59433  1.0000
  C   C74       1.0  0.77145  0.57909  0.60108  1.0000
  C   C75       1.0  0.74433  0.58202  0.64196  1.0000
  C   C76       1.0  0.74554  0.61678  0.67189  1.0000
  C   C77       1.0  0.7735099999999998  0.64816  0.66337  1.0000
  C   C78       1.0  0.80313  0.64336  0.6251200000000002  1.0000
  C   C79       1.0  0.83671  0.67394  0.6162  1.0000
  H   H3        1.0  0.8220699999999997  0.60584  0.56331  1.0000
  H   H4        1.0  0.72346  0.61999  0.70159  1.0000
  C   C80       1.0  0.71408  0.54886  0.65445  1.0000
  F   F7        1.0  0.8662  0.65905  0.5842  1.0000
  F   F8        1.0  0.8554399999999998  0.68339  0.66082  1.0000
  F   F9        1.0  0.8208199999999998  0.7085299999999998  0.59511  1.0000
  F   F10       1.0  0.7325499999999998  0.51143  0.65126  1.0000
  F   F11       1.0  0.68182  0.5504  0.6217200000000002  1.0000
  F   F12       1.0  0.6989899999999998  0.55296  0.70247  1.0000
  C   C81       1.0  0.77357  0.88774  0.10498  1.0000
  C   C82       1.0  0.7356399999999997  0.9068199999999998  0.09988  1.0000
  C   C83       1.0  0.70203  0.89181  0.12777  1.0000
  C   C84       1.0  0.70747  0.85712  0.15743000000000001  1.0000
  C   C85       1.0  0.74512  0.83789  0.16094  1.0000
  C   C86       1.0  0.77883  0.85333  0.13465  1.0000
  C   C87       1.0  0.8196599999999999  0.83219  0.13577  1.0000
  H   H5        1.0  0.7992399999999997  0.8992  0.08415  1.0000
  H   H6        1.0  0.6822499999999998  0.8445499999999999  0.17822000000000005  1.0000
  C   C88       1.0  0.66069  0.91198  0.12719  1.0000
  F   F13       1.0  0.84801  0.85105  0.10557  1.0000
  F   F14       1.0  0.81518  0.79293  0.11903000000000002  1.0000
  F   F15       1.0  0.8345799999999998  0.83193  0.18389  1.0000
  F   F16       1.0  0.64246  0.9058299999999998  0.08142  1.0000
  F   F17       1.0  0.66476  0.95297  0.13617  1.0000
  F   F18       1.0  0.63521  0.8965  0.1636  1.0000
  C   C89       1.0  0.25179  0.42122  0.64453  1.0000
  C   C90       1.0  0.22460999999999995  0.41784  0.6047000000000002  1.0000
  C   C91       1.0  0.20079  0.38246  0.5999000000000001  1.0000
  C   C92       1.0  0.20498999999999995  0.3517  0.63557  1.0000
  C   C93       1.0  0.2328  0.35441  0.6751900000000002  1.0000
  C   C94       1.0  0.2565  0.39028  0.68011  1.0000
  C   C95       1.0  0.28723  0.39626  0.72165  1.0000
  H   H7        1.0  0.26964  0.4486  0.64729  1.0000
  H   H8        1.0  0.18673  0.32469  0.6320600000000001  1.0000
  C   C96       1.0  0.17278  0.37597  0.55575  1.0000
  F   F19       1.0  0.30777  0.43259  0.71731  1.0000
  F   F20       1.0  0.31577  0.36571999999999993  0.72022  1.0000
  F   F21       1.0  0.26767  0.39634  0.7673800000000001  1.0000
  F   F22       1.0  0.19417  0.38156  0.51186  1.0000
  F   F23       1.0  0.14086  0.40295  0.55808  1.0000
  F   F24       1.0  0.15673999999999993  0.33732  0.55481  1.0000
  C   C97       1.0  0.9057799999999998  0.23946  0.13501  1.0000
  C   C98       1.0  0.90883  0.27556  0.10768  1.0000
  C   C99       1.0  0.87915  0.30618  0.11528  1.0000
  C   C100      1.0  0.84689  0.29854  0.14845  1.0000
  C   C101      1.0  0.843  0.26176  0.17399  1.0000
  C   C102      1.0  0.87334  0.23176  0.16783000000000003  1.0000
  C   C103      1.0  0.8709299999999998  0.19105  0.19378  1.0000
  H   H9        1.0  0.9289399999999998  0.21668  0.12978  1.0000
  H   H10       1.0  0.8237699999999998  0.32129  0.15425000000000003  1.0000
  C   C104      1.0  0.8801999999999999  0.34628  0.08774  1.0000
  F   F25       1.0  0.83408  0.17293  0.18372  1.0000
  F   F26       1.0  0.87515  0.19625  0.2447  1.0000
  F   F27       1.0  0.90112  0.16494  0.17788000000000004  1.0000
  F   F28       1.0  0.8808799999999999  0.33956  0.03681  1.0000
  F   F29       1.0  0.91418  0.36795  0.10172  1.0000
  F   F30       1.0  0.84658  0.36987999999999993  0.09827  1.0000
  C   C105      1.0  0.3937099999999999  0.80877  0.5961  1.0000
  C   C106      1.0  0.4241099999999999  0.77939  0.6005400000000001  1.0000
  C   C107      1.0  0.42233  0.75157  0.6406100000000001  1.0000
  C   C108      1.0  0.38809  0.75179  0.67193  1.0000
  C   C109      1.0  0.35595  0.77913  0.66521  1.0000
  C   C110      1.0  0.3598499999999999  0.80966  0.62819  1.0000
  C   C111      1.0  0.32883  0.8431599999999999  0.62187  1.0000
  H   H11       1.0  0.39589  0.83033  0.56588  1.0000
  H   H12       1.0  0.38571  0.72927  0.7010100000000001  1.0000
  C   C112      1.0  0.4561599999999999  0.72159  0.65064  1.0000
  F   F31       1.0  0.34361999999999987  0.87415  0.59234  1.0000
  F   F32       1.0  0.31891999999999987  0.85964  0.66782  1.0000
  F   F33       1.0  0.29438  0.82794  0.59936  1.0000
  F   F34       1.0  0.49342  0.74056  0.64696  1.0000
  F   F35       1.0  0.45426  0.69022  0.61659  1.0000
  F   F36       1.0  0.45324  0.70538  0.6981  1.0000
  C   C113      1.0  0.11275999999999997  0.69746  0.10838000000000002  1.0000
  C   C114      1.0  0.09365  0.73356  0.09283  1.0000
  C   C115      1.0  0.10812999999999998  0.77117  0.11278  1.0000
  C   C116      1.0  0.14078  0.7705  0.14633  1.0000
  C   C117      1.0  0.15994  0.73464  0.16019  1.0000
  C   C118      1.0  0.14565  0.69737  0.14163  1.0000
  C   C119      1.0  0.16461999999999993  0.65763  0.15747  1.0000
  H   H13       1.0  0.10222999999999997  0.66881  0.09383  1.0000
  H   H14       1.0  0.15264999999999995  0.79848  0.16141  1.0000
  C   C120      1.0  0.09058  0.81237  0.09918  1.0000
  F   F37       1.0  0.14186999999999994  0.62476  0.14206  1.0000
  F   F38       1.0  0.16746  0.65611  0.20893  1.0000
  F   F39       1.0  0.20289999999999994  0.65413  0.13681  1.0000
  F   F40       1.0  0.04994  0.81394  0.11179  1.0000
  F   F41       1.0  0.09553  0.81932  0.04864  1.0000
  F   F42       1.0  0.10957999999999997  0.84374  0.12417  1.0000
  C   C121      1.0  0.61265  0.19551  0.6032  1.0000
  C   C122      1.0  0.58167  0.22435  0.60746  1.0000
  C   C123      1.0  0.5826699999999998  0.25242  0.6474  1.0000
  C   C124      1.0  0.61651  0.25289  0.67899  1.0000
  C   C125      1.0  0.6489499999999998  0.22572  0.67304  1.0000
  C   C126      1.0  0.64624  0.19532  0.63558  1.0000
  C   C127      1.0  0.6781699999999998  0.16263  0.62934  1.0000
  H   H15       1.0  0.6108599999999997  0.17354999999999995  0.57333  1.0000
  H   H16       1.0  0.61813  0.27551999999999993  0.70813  1.0000
  C   C128      1.0  0.54773  0.28108  0.6577900000000002  1.0000
  F   F43       1.0  0.66497  0.13179  0.59839  1.0000
  F   F44       1.0  0.68718  0.14571  0.67514  1.0000
  F   F45       1.0  0.71287  0.17898  0.60852  1.0000
  F   F46       1.0  0.51156  0.25996  0.6569000000000002  1.0000
  F   F47       1.0  0.54706  0.31128  0.6222700000000002  1.0000
  F   F48       1.0  0.55098  0.2991599999999999  0.70425  1.0000
  C   C129      1.0  0.76717  0.09198  0.87979  1.0000
  C   C130      1.0  0.72928  0.08024  0.89985  1.0000
  C   C131      1.0  0.6940799999999998  0.10267  0.8855500000000001  1.0000
  C   C132      1.0  0.69897  0.13626  0.85376  1.0000
  C   C133      1.0  0.7369299999999998  0.14793  0.83519  1.0000
  C   C134      1.0  0.77172  0.12535  0.8481  1.0000
  C   C135      1.0  0.81393  0.13726  0.83043  1.0000
  H   H17       1.0  0.79397  0.07488  0.88932  1.0000
  H   H18       1.0  0.6729499999999998  0.15414  0.84308  1.0000
  C   C136      1.0  0.65154  0.09287  0.90424  1.0000
  F   F49       1.0  0.84394  0.11473999999999997  0.8532600000000001  1.0000
  F   F50       1.0  0.82108  0.17741  0.84152  1.0000
  F   F51       1.0  0.8172299999999998  0.13124  0.77952  1.0000
  F   F52       1.0  0.6501299999999999  0.09585  0.9557300000000002  1.0000
  F   F53       1.0  0.64074  0.0543  0.8894  1.0000
  F   F54       1.0  0.6227699999999998  0.11914  0.88544  1.0000
  C   C137      1.0  0.2449  0.58259  0.35643  1.0000
  C   C138      1.0  0.22229  0.58927  0.39998000000000006  1.0000
  C   C139      1.0  0.20227  0.62662  0.40694  1.0000
  C   C140      1.0  0.20703999999999995  0.65676  0.37056  1.0000
  C   C141      1.0  0.23114999999999994  0.65107  0.32756  1.0000
  C   C142      1.0  0.2492  0.61241  0.31937000000000004  1.0000
  C   C143      1.0  0.27326  0.60203  0.27255  1.0000
  H   H19       1.0  0.25955  0.55353  0.35195  1.0000
  H   H20       1.0  0.19258  0.6857  0.37646  1.0000
  C   C144      1.0  0.17762999999999998  0.63548  0.45373  1.0000
  F   F55       1.0  0.28352  0.5615  0.27063  1.0000
  F   F56       1.0  0.30886  0.62409  0.27135  1.0000
  F   F57       1.0  0.2503899999999999  0.61029  0.23063  1.0000
  F   F58       1.0  0.20103999999999994  0.62878  0.49557  1.0000
  F   F59       1.0  0.14389  0.61073  0.45518  1.0000
  F   F60       1.0  0.1644  0.67514  0.45541  1.0000
  C   C145      1.0  0.31085  0.89976  0.8866000000000003  1.0000
  C   C146      1.0  0.2767  0.92488  0.89317  1.0000
  C   C147      1.0  0.2431  0.91978  0.8603  1.0000
  C   C148      1.0  0.24351999999999996  0.88735  0.8263700000000002  1.0000
  C   C149      1.0  0.27555  0.8596  0.82424  1.0000
  C   C150      1.0  0.31083  0.86707  0.8528300000000002  1.0000
  C   C151      1.0  0.3483599999999999  0.84078  0.84825  1.0000
  H   H21       1.0  0.33703  0.9042  0.91027  1.0000
  H   H22       1.0  0.21751  0.88228  0.8026800000000002  1.0000
  C   C152      1.0  0.20716  0.94866  0.85906  1.0000
  F   F61       1.0  0.3820499999999999  0.85955  0.86846  1.0000
  F   F62       1.0  0.3567499999999999  0.8328599999999999  0.7985500000000002  1.0000
  F   F63       1.0  0.34223  0.80481  0.87328  1.0000
  F   F64       1.0  0.22054999999999994  0.98829  0.8599  1.0000
  F   F65       1.0  0.18206999999999995  0.94158  0.8995400000000001  1.0000
  F   F66       1.0  0.18435  0.9437999999999998  0.81618  1.0000
  C   C153      1.0  0.7793  0.40563  0.35771  1.0000
  C   C154      1.0  0.75487  0.40511  0.4008  1.0000
  C   C155      1.0  0.7296799999999999  0.37118  0.41049  1.0000
  C   C156      1.0  0.72978  0.33904  0.37627  1.0000
  C   C157      1.0  0.7537899999999998  0.33989  0.3332  1.0000
  C   C158      1.0  0.77893  0.37345  0.32328000000000007  1.0000
  C   C159      1.0  0.8055899999999998  0.37462  0.27709  1.0000
  H   H23       1.0  0.79851  0.43163  0.35109  1.0000
  H   H24       1.0  0.7108199999999998  0.31281  0.38269000000000003  1.0000
  C   C160      1.0  0.7037099999999997  0.368  0.45729  1.0000
  F   F67       1.0  0.82958  0.40892  0.27582  1.0000
  F   F68       1.0  0.7816399999999998  0.37431  0.23485000000000003  1.0000
  F   F69       1.0  0.8307599999999998  0.34121  0.27628  1.0000
  F   F70       1.0  0.67274  0.39606  0.45557  1.0000
  F   F71       1.0  0.7272  0.37481  0.49906  1.0000
  F   F72       1.0  0.68632  0.33012  0.46216  1.0000
  C   C161      1.0  0.07826  0.25621  0.8651200000000002  1.0000
  C   C162      1.0  0.07955999999999998  0.28545  0.90326  1.0000
  C   C163      1.0  0.11223999999999998  0.3136  0.90373  1.0000
  C   C164      1.0  0.14417  0.30815  0.8693000000000001  1.0000
  C   C165      1.0  0.14322999999999994  0.27802  0.83218  1.0000
  C   C166      1.0  0.10744999999999998  0.25449  0.82695  1.0000
  C   C167      1.0  0.09853  0.22897  0.7809900000000001  1.0000
  H   H25       1.0  0.05305  0.23531  0.8641000000000002  1.0000
  H   H26       1.0  0.17060999999999996  0.32741  0.87148  1.0000
  C   C168      1.0  0.11574999999999998  0.34706  0.94257  1.0000
  F   F73       1.0  0.05904  0.21477  0.78093  1.0000
  F   F74       1.0  0.12393  0.19601  0.77891  1.0000
  F   F75       1.0  0.10355  0.2521  0.7384900000000001  1.0000
  F   F76       1.0  0.11305  0.331  0.99005  1.0000
  F   F77       1.0  0.08512999999999997  0.37499  0.93568  1.0000
  F   F78       1.0  0.15229999999999994  0.36745  0.9392  1.0000
  C   C169      1.0  0.61734  0.80067  0.38276  1.0000
  C   C170      1.0  0.58893  0.76911  0.38572  1.0000
  C   C171      1.0  0.5922699999999997  0.73603  0.35208000000000006  1.0000
  C   C172      1.0  0.62618  0.73398  0.32029  1.0000
  C   C173      1.0  0.65605  0.76422  0.31976  1.0000
  C   C174      1.0  0.65059  0.79919  0.3498  1.0000
  C   C175      1.0  0.6794899999999998  0.83489  0.34766  1.0000
  H   H27       1.0  0.61414  0.82621  0.40779  1.0000
  H   H28       1.0  0.6302899999999998  0.70767  0.29671  1.0000
  C   C176      1.0  0.56065  0.70268  0.34933  1.0000
  F   F79       1.0  0.6626699999999998  0.86902  0.36935000000000007  1.0000
  F   F80       1.0  0.68862  0.84421  0.29858  1.0000
  F   F81       1.0  0.71472  0.8257  0.37297  1.0000
  F   F82       1.0  0.52208  0.71907  0.34957000000000005  1.0000
  F   F83       1.0  0.56498  0.67695  0.38952  1.0000
  F   F84       1.0  0.56462  0.68007  0.30606  1.0000
  C   C177      1.0  0.9268  0.73944  0.8487000000000002  1.0000
  C   C178      1.0  0.9200299999999998  0.72032  0.89447  1.0000
  C   C179      1.0  0.8815499999999997  0.7039  0.9053300000000001  1.0000
  C   C180      1.0  0.85065  0.70767  0.86984  1.0000
  C   C181      1.0  0.85647  0.72827  0.8243700000000002  1.0000
  C   C182      1.0  0.89587  0.74366  0.8129700000000002  1.0000
  C   C183      1.0  0.9058099999999998  0.7651  0.76433  1.0000
  H   H29       1.0  0.9566399999999998  0.75193  0.8417300000000001  1.0000
  H   H30       1.0  0.82096  0.69575  0.87868  1.0000
  C   C184      1.0  0.87223  0.68571  0.9559500000000001  1.0000
  F   F85       1.0  0.9467099999999998  0.77396  0.76016  1.0000
  F   F86       1.0  0.8847699999999997  0.80116  0.7618000000000001  1.0000
  F   F87       1.0  0.8957  0.74072  0.7243  1.0000
  F   F88       1.0  0.87839  0.71474  0.99226  1.0000
  F   F89       1.0  0.89726  0.65301  0.9645400000000002  1.0000
  F   F90       1.0  0.8324999999999998  0.67255  0.95968  1.0000
  C   C185      1.0  0.41227999999999987  0.22483  0.35921  1.0000
  C   C186      1.0  0.40417999999999993  0.22529  0.41048  1.0000
  C   C187      1.0  0.3637199999999999  0.227  0.42773  1.0000
  C   C188      1.0  0.3322999999999999  0.22962  0.39261  1.0000
  C   C189      1.0  0.34015  0.23056  0.34101  1.0000
  C   C190      1.0  0.38085999999999987  0.22692  0.32382  1.0000
  C   C191      1.0  0.3915199999999999  0.22483  0.2687  1.0000
  H   H31       1.0  0.4436  0.22326  0.34709  1.0000
  H   H32       1.0  0.30128  0.23232  0.40546  1.0000
  C   C192      1.0  0.35404  0.22722  0.48311  1.0000
  F   F91       1.0  0.4309699999999999  0.21185  0.26119  1.0000
  F   F92       1.0  0.38769  0.26269  0.24757  1.0000
  F   F93       1.0  0.36617  0.19787  0.24457000000000004  1.0000
  F   F94       1.0  0.37108999999999986  0.26098  0.50504  1.0000
  F   F95       1.0  0.36964  0.19286  0.50511  1.0000
  F   F96       1.0  0.31272  0.22805  0.49218000000000006  1.0000
  C   C193      1.0  0.7300199999999999  0.91435  0.84765  1.0000
  C   C194      1.0  0.7349299999999998  0.90661  0.89866  1.0000
  C   C195      1.0  0.7421799999999997  0.86681  0.91529  1.0000
  C   C196      1.0  0.7449399999999998  0.83576  0.8798900000000001  1.0000
  C   C197      1.0  0.74084  0.84327  0.82866  1.0000
  C   C198      1.0  0.73283  0.8831  0.8119500000000002  1.0000
  C   C199      1.0  0.72659  0.89255  0.75713  1.0000
  H   H33       1.0  0.72443  0.94516  0.83601  1.0000
  H   H34       1.0  0.7510999999999998  0.8052  0.8920500000000002  1.0000
  C   C200      1.0  0.74685  0.85725  0.97029  1.0000
  F   F97       1.0  0.71207  0.93137  0.75029  1.0000
  F   F98       1.0  0.69877  0.86598  0.73675  1.0000
  F   F99       1.0  0.76303  0.88915  0.73187  1.0000
  F   F100      1.0  0.7123299999999998  0.8691099999999999  0.99574  1.0000
  F   F101      1.0  0.78006  0.87759  0.98906  1.0000
  F   F102      1.0  0.7524999999999997  0.81638  0.97864  1.0000
  C   C201      1.0  0.26103  0.40757  0.37993  1.0000
  C   C202      1.0  0.22257999999999994  0.41909  0.39811  1.0000
  C   C203      1.0  0.18775  0.39835  0.37976  1.0000
  C   C204      1.0  0.19346  0.36492  0.34764  1.0000
  C   C205      1.0  0.23208  0.35284  0.33145  1.0000
  C   C206      1.0  0.26651  0.37504  0.34696  1.0000
  C   C207      1.0  0.30926  0.3635  0.33092  1.0000
  H   H35       1.0  0.2874799999999999  0.42399  0.39239  1.0000
  H   H36       1.0  0.1676  0.34772  0.3347  1.0000
  C   C208      1.0  0.14474999999999993  0.41109  0.39288  1.0000
  F   F103      1.0  0.33845999999999987  0.38654  0.35469  1.0000
  F   F104      1.0  0.31376  0.3692199999999999  0.28013  1.0000
  F   F105      1.0  0.31655  0.32353  0.34247  1.0000
  F   F106      1.0  0.11613  0.38861  0.36729  1.0000
  F   F107      1.0  0.13904  0.45119  0.38030000000000014  1.0000
  F   F108      1.0  0.13768  0.40586  0.44329  1.0000
  C   C209      1.0  0.23422999999999994  0.10362999999999997  0.89123  1.0000
  C   C210      1.0  0.27345  0.09104999999999999  0.90546  1.0000
  C   C211      1.0  0.3074899999999999  0.11208  0.88471  1.0000
  C   C212      1.0  0.30034  0.1462  0.85429  1.0000
  C   C213      1.0  0.26111  0.15855  0.84154  1.0000
  C   C214      1.0  0.22751999999999994  0.13653  0.8596  1.0000
  C   C215      1.0  0.18444999999999995  0.14798  0.84616  1.0000
  H   H37       1.0  0.20802999999999994  0.08744  0.90504  1.0000
  H   H38       1.0  0.32553  0.16343  0.8394300000000002  1.0000
  C   C216      1.0  0.35115  0.09906  0.89315  1.0000
  F   F109      1.0  0.15594  0.12605  0.87276  1.0000
  F   F110      1.0  0.17839  0.14048  0.7960000000000002  1.0000
  F   F111      1.0  0.17808  0.1884  0.85646  1.0000
  F   F112      1.0  0.35612  0.05928  0.87842  1.0000
  F   F113      1.0  0.36105  0.10321  0.9429300000000002  1.0000
  F   F114      1.0  0.37832  0.12210999999999998  0.86587  1.0000
  C   C217      1.0  0.7782699999999998  0.57537  0.35254  1.0000
  C   C218      1.0  0.75833  0.58063  0.39842  1.0000
  C   C219      1.0  0.73904  0.61791  0.40939  1.0000
  C   C220      1.0  0.7407099999999998  0.64887  0.37375000000000014  1.0000
  C   C221      1.0  0.76034  0.6435  0.3278300000000001  1.0000
  C   C222      1.0  0.77919  0.6062399999999999  0.31656000000000006  1.0000
  C   C223      1.0  0.80033  0.5994  0.26707  1.0000
  H   H39       1.0  0.79277  0.54664  0.34495  1.0000
  H   H40       1.0  0.7264  0.67772  0.38131  1.0000
  C   C224      1.0  0.71799  0.6256599999999998  0.4590000000000001  1.0000
  F   F115      1.0  0.82034  0.5626599999999999  0.26554  1.0000
  F   F116      1.0  0.82855  0.6296199999999998  0.25896  1.0000
  F   F117      1.0  0.7719  0.59974  0.22933000000000003  1.0000
  F   F118      1.0  0.7442999999999997  0.61764  0.49768  1.0000
  F   F119      1.0  0.6841799999999999  0.60122  0.4632100000000001  1.0000
  F   F120      1.0  0.70542  0.66539  0.46374  1.0000
  C   C225      1.0  0.10434  0.76973  0.8798900000000001  1.0000
  C   C226      1.0  0.09091  0.73042  0.89204  1.0000
  C   C227      1.0  0.11103999999999997  0.69678  0.8690000000000001  1.0000
  C   C228      1.0  0.14451  0.70428  0.8373500000000001  1.0000
  C   C229      1.0  0.15810999999999995  0.74345  0.82723  1.0000
  C   C230      1.0  0.13785  0.77678  0.84882  1.0000
  C   C231      1.0  0.15381  0.81949  0.8428  1.0000
  H   H41       1.0  0.08940999999999998  0.79557  0.89654  1.0000
  H   H42       1.0  0.16077  0.67941  0.82023  1.0000
  C   C232      1.0  0.098  0.6531  0.8767400000000001  1.0000
  F   F121      1.0  0.13158999999999996  0.84739  0.87005  1.0000
  F   F122      1.0  0.15249  0.83086  0.79326  1.0000
  F   F123      1.0  0.19327  0.8208  0.8596800000000001  1.0000
  F   F124      1.0  0.05735999999999999  0.64875  0.8653400000000001  1.0000
  F   F125      1.0  0.10481  0.64184  0.92567  1.0000
  F   F126      1.0  0.11935999999999998  0.62665  0.84639  1.0000
  C   C233      1.0  0.57865  0.25311  0.36579  1.0000
  C   C234      1.0  0.5766999999999998  0.21991  0.39831  1.0000
  C   C235      1.0  0.60611  0.1888  0.39376  1.0000
  C   C236      1.0  0.6374299999999998  0.19332  0.35836  1.0000
  C   C237      1.0  0.64058  0.22764  0.32776  1.0000
  C   C238      1.0  0.6101  0.25788  0.3308  1.0000
  C   C239      1.0  0.6112399999999998  0.29603  0.29926  1.0000
  H   H43       1.0  0.55549  0.27615  0.3689  1.0000
  H   H44       1.0  0.66051  0.17023  0.35506000000000004  1.0000
  C   C240      1.0  0.6057999999999998  0.15175  0.42712000000000006  1.0000
  F   F127      1.0  0.58045  0.32264  0.31177  1.0000
  F   F128      1.0  0.60673  0.28609  0.24945000000000006  1.0000
  F   F129      1.0  0.64762  0.31602  0.3062000000000001  1.0000
  F   F130      1.0  0.57135  0.12913  0.41802  1.0000
  F   F131      1.0  0.60654  0.16347  0.47665000000000013  1.0000
  F   F132      1.0  0.6390499999999998  0.12714  0.41872000000000004  1.0000
  C   C241      1.0  0.87665  0.30808  0.9080000000000003  1.0000
  C   C242      1.0  0.91036  0.28302  0.90076  1.0000
  C   C243      1.0  0.91155  0.25702  0.85875  1.0000
  C   C244      1.0  0.87708  0.25385  0.82848  1.0000
  C   C245      1.0  0.8417999999999998  0.2765099999999999  0.8377800000000001  1.0000
  C   C246      1.0  0.84235  0.30582  0.87686  1.0000
  C   C247      1.0  0.8073299999999998  0.3346199999999999  0.88647  1.0000
  H   H45       1.0  0.87674  0.32853  0.93956  1.0000
  H   H46       1.0  0.8773  0.2324  0.7979200000000001  1.0000
  C   C248      1.0  0.94936  0.23336  0.84495  1.0000
  F   F133      1.0  0.81805  0.36533  0.91904  1.0000
  F   F134      1.0  0.77512  0.31384  0.90735  1.0000
  F   F135      1.0  0.7953599999999998  0.35246  0.84227  1.0000
  F   F136      1.0  0.9541899999999998  0.20111  0.87702  1.0000
  F   F137      1.0  0.98278  0.25842  0.84774  1.0000
  F   F138      1.0  0.94747  0.21839  0.79673  1.0000
  C   C249      1.0  0.3851899999999999  0.74546  0.41014  1.0000
  C   C250      1.0  0.41677  0.772  0.39765  1.0000
  C   C251      1.0  0.4147399999999999  0.79452  0.35277  1.0000
  C   C252      1.0  0.38062  0.78957  0.32185  1.0000
  C   C253      1.0  0.34909  0.76317  0.33478  1.0000
  C   C254      1.0  0.3512499999999999  0.74061  0.37943  1.0000
  C   C255      1.0  0.31863999999999987  0.71028  0.39347000000000004  1.0000
  H   H47       1.0  0.3873799999999999  0.72841  0.44448  1.0000
  H   H48       1.0  0.3781599999999999  0.8064  0.28738  1.0000
  C   C256      1.0  0.44865  0.82277  0.33695  1.0000
  F   F139      1.0  0.32705  0.69098  0.43803000000000003  1.0000
  F   F140      1.0  0.31599  0.6812  0.3566  1.0000
  F   F141      1.0  0.28171  0.72955  0.39861  1.0000
  F   F142      1.0  0.4854399999999999  0.80279  0.33856  1.0000
  F   F143      1.0  0.4498099999999999  0.85576  0.36863  1.0000
  F   F144      1.0  0.44324  0.8368  0.28881  1.0000
  C   C257      1.0  0.30842  0.88657  0.10113  1.0000
  C   C258      1.0  0.27719  0.91538  0.10268000000000002  1.0000
  C   C259      1.0  0.24628999999999998  0.91171  0.13938  1.0000
  C   C260      1.0  0.24594  0.8774299999999999  0.17016  1.0000
  C   C261      1.0  0.27593  0.84737  0.16694  1.0000
  C   C262      1.0  0.30875  0.8528  0.1331  1.0000
  C   C263      1.0  0.3441  0.82351  0.1303  1.0000
  H   H49       1.0  0.3322  0.89007  0.07352  1.0000
  H   H50       1.0  0.22117  0.87342  0.19628  1.0000
  C   C264      1.0  0.21366999999999994  0.94364  0.14675  1.0000
  F   F145      1.0  0.37631  0.83946  0.10357  1.0000
  F   F146      1.0  0.33201  0.78825  0.10691  1.0000
  F   F147      1.0  0.35791  0.81484  0.17778  1.0000
  F   F148      1.0  0.18537  0.94079  0.10898  1.0000
  F   F149      1.0  0.23079999999999995  0.9818  0.1467  1.0000
  F   F150      1.0  0.1936  0.93893  0.19182  1.0000
  C   C265      1.0  0.73207  0.40859  0.6366100000000001  1.0000
  C   C266      1.0  0.76514  0.40997  0.60342  1.0000
  C   C267      1.0  0.79563  0.37983  0.60661  1.0000
  C   C268      1.0  0.79126  0.34920999999999996  0.6424800000000002  1.0000
  C   C269      1.0  0.75735  0.34688  0.6743000000000001  1.0000
  C   C270      1.0  0.72728  0.37751  0.67181  1.0000
  C   C271      1.0  0.68944  0.37705  0.70438  1.0000
  H   H51       1.0  0.7092699999999997  0.43199  0.63413  1.0000
  H   H52       1.0  0.81427  0.32605  0.64526  1.0000
  C   C272      1.0  0.83189  0.37856  0.57142  1.0000
  F   F151      1.0  0.6629399999999998  0.40795  0.69245  1.0000
  F   F152      1.0  0.70014  0.3818  0.7539  1.0000
  F   F153      1.0  0.6689499999999998  0.34095  0.6981200000000001  1.0000
  F   F154      1.0  0.85662  0.41156  0.5801  1.0000
  F   F155      1.0  0.81887  0.37882  0.5224  1.0000
  F   F156      1.0  0.85504  0.3441  0.57794  1.0000
  C   C273      1.0  0.6952899999999999  0.10664  0.09988  1.0000
  C   C274      1.0  0.7260899999999999  0.07757999999999997  0.10311  1.0000
  C   C275      1.0  0.7549899999999998  0.08035  0.14195  1.0000
  C   C276      1.0  0.7541  0.11427  0.17346  1.0000
  C   C277      1.0  0.72501  0.14496  0.16812  1.0000
  C   C278      1.0  0.69376  0.14013  0.1322  1.0000
  C   C279      1.0  0.6588199999999997  0.16975  0.12745  1.0000
  H   H53       1.0  0.67298  0.10364  0.07054  1.0000
  H   H54       1.0  0.77724  0.11752999999999997  0.2017  1.0000
  C   C280      1.0  0.7867799999999998  0.0479  0.15049  1.0000
  F   F157      1.0  0.62755  0.15387  0.09918  1.0000
  F   F158      1.0  0.67213  0.20471  0.1045  1.0000
  F   F159      1.0  0.64318  0.17888  0.1741  1.0000
  F   F160      1.0  0.817  0.05106  0.11484000000000003  1.0000
  F   F161      1.0  0.76926  0.00997  0.14784  1.0000
  F   F162      1.0  0.80449  0.05158  0.19704  1.0000
  C   C281      1.0  0.2631999999999999  0.61865  0.59646  1.0000
  C   C282      1.0  0.22921  0.5933699999999997  0.6020700000000001  1.0000
  C   C283      1.0  0.20002999999999996  0.60269  0.6395800000000003  1.0000
  C   C284      1.0  0.20588  0.63747  0.6694100000000001  1.0000
  C   C285      1.0  0.23983999999999994  0.66244  0.66316  1.0000
  C   C286      1.0  0.26905  0.65296  0.62636  1.0000
  C   C287      1.0  0.30625999999999987  0.67919  0.61873  1.0000
  H   H55       1.0  0.28519  0.61168  0.56764  1.0000
  H   H56       1.0  0.18393999999999994  0.64552  0.69789  1.0000
  C   C288      1.0  0.16336  0.57604  0.64893  1.0000
  F   F163      1.0  0.33099  0.66487  0.58078  1.0000
  F   F164      1.0  0.3286699999999999  0.67998  0.6621700000000001  1.0000
  F   F165      1.0  0.2945099999999999  0.71801  0.60656  1.0000
  F   F166      1.0  0.17533  0.53619  0.65376  1.0000
  F   F167      1.0  0.13655999999999993  0.57948  0.60963  1.0000
  F   F168      1.0  0.14309  0.58689  0.69226  1.0000
  C   C289      1.0  0.89379  0.6875  0.09546  1.0000
  C   C290      1.0  0.92432  0.71653  0.10135  1.0000
  C   C291      1.0  0.92234  0.7437  0.14207  1.0000
  C   C292      1.0  0.8878699999999998  0.7431  0.17298  1.0000
  C   C293      1.0  0.85516  0.71662  0.16434000000000007  1.0000
  C   C294      1.0  0.85867  0.68745  0.12538  1.0000
  C   C295      1.0  0.8255099999999997  0.65708  0.11359  1.0000
  H   H57       1.0  0.8965999999999997  0.66614  0.06502  1.0000
  H   H58       1.0  0.88558  0.765  0.2029  1.0000
  C   C296      1.0  0.95635  0.77327  0.15317  1.0000
  F   F169      1.0  0.83857  0.62767  0.08041  1.0000
  F   F170      1.0  0.7928599999999998  0.67665  0.09234  1.0000
  F   F171      1.0  0.81333  0.63772  0.15662000000000004  1.0000
  F   F172      1.0  0.95512  0.80491  0.11965  1.0000
  F   F173      1.0  0.9934299999999999  0.75395  0.1496  1.0000
  F   F174      1.0  0.9531299999999998  0.78912  0.20087  1.0000
  C   C297      1.0  0.39236  0.20061  0.62917  1.0000
  C   C298      1.0  0.4112  0.23652  0.61281  1.0000
  C   C299      1.0  0.39739  0.27424  0.6327  1.0000
  C   C300      1.0  0.36486  0.27405  0.6666800000000002  1.0000
  C   C301      1.0  0.34523  0.2384  0.68069  1.0000
  C   C302      1.0  0.35948  0.2009  0.66269  1.0000
  C   C303      1.0  0.34013  0.16138  0.67879  1.0000
  H   H59       1.0  0.4027199999999999  0.17195  0.6144  1.0000
  H   H60       1.0  0.35307  0.30225  0.68114  1.0000
  C   C304      1.0  0.4152099999999999  0.31499  0.6178500000000001  1.0000
  F   F175      1.0  0.36358  0.12843  0.66527  1.0000
  F   F176      1.0  0.3026  0.15729  0.65659  1.0000
  F   F177      1.0  0.33552  0.16075  0.73012  1.0000
  F   F178      1.0  0.40791  0.32226999999999995  0.5679  1.0000
  F   F179      1.0  0.45639  0.31562  0.6268  1.0000
  F   F180      1.0  0.39829  0.3466  0.6447  1.0000
  C   C305      1.0  0.12138  0.26589  0.08223000000000001  1.0000
  C   C306      1.0  0.08378  0.27668  0.10246  1.0000
  C   C307      1.0  0.08006  0.2844  0.15412  1.0000
  C   C308      1.0  0.11474  0.28077  0.18432  1.0000
  C   C309      1.0  0.15273  0.27031  0.16408  1.0000
  C   C310      1.0  0.15620999999999993  0.26274  0.11198000000000001  1.0000
  C   C311      1.0  0.19597  0.25015  0.0877  1.0000
  H   H61       1.0  0.12317  0.26  0.0425  1.0000
  H   H62       1.0  0.11248999999999998  0.28618  0.2241  1.0000
  C   C312      1.0  0.03942  0.29536  0.17703000000000002  1.0000
  F   F181      1.0  0.19094999999999995  0.23925  0.03819000000000001  1.0000
  F   F182      1.0  0.21198999999999996  0.21724  0.11237  1.0000
  F   F183      1.0  0.22319  0.28189  0.08927000000000002  1.0000
  F   F184      1.0  0.01136  0.26553  0.16635  1.0000
  F   F185      1.0  0.0261  0.33163  0.15761000000000003  1.0000
  F   F186      1.0  0.04174999999999999  0.29936  0.22837  1.0000
  C   C313      1.0  0.59584  0.74139  0.62598  1.0000
  C   C314      1.0  0.59502  0.77457  0.59344  1.0000
  C   C315      1.0  0.62641  0.80384  0.59613  1.0000
  C   C316      1.0  0.65764  0.79827  0.6311200000000001  1.0000
  C   C317      1.0  0.65907  0.7643899999999998  0.66263  1.0000
  C   C318      1.0  0.62736  0.73534  0.6602200000000001  1.0000
  C   C319      1.0  0.62703  0.69718  0.6917800000000002  1.0000
  H   H63       1.0  0.57151  0.71951  0.62383  1.0000
  H   H64       1.0  0.6818  0.8203199999999998  0.6336  1.0000
  C   C320      1.0  0.62816  0.83998  0.56132  1.0000
  F   F187      1.0  0.5956299999999998  0.67142  0.67903  1.0000
  F   F188      1.0  0.6222699999999998  0.70723  0.74157  1.0000
  F   F189      1.0  0.66287  0.67619  0.68507  1.0000
  F   F190      1.0  0.59633  0.86585  0.5717  1.0000
  F   F191      1.0  0.62591  0.82714  0.51225  1.0000
  F   F192      1.0  0.6638399999999998  0.8616  0.56657  1.0000
