data_image0
_chemical_formula_structural       O8Cu2C4O8Cu2C4O8Cu2C4O8Cu2C4O8Cu2C4O8Cu2C4O8Cu2C4O8Cu2C20H6C16H6C16H6C16H6C16H6C16H6C16H6C16H6C6Br4C6Br4C6Br4C6Br4C6Br4C6Br4C6Br4C6Br4C6Br4C6Br4C6Br4C6Br4C6Br4C6Br4C6Br4C6Br4C6Br4C6Br4C6Br4C6Br4C6Br4C6Br4C6Br4C6Br4C6Br4C6Br4C6Br4C6Br4C6Br4C6Br4C6Br4C6Br4
_chemical_formula_sum              "O64 Cu16 C352 H48 Br128"
_cell_length_a       33.4915
_cell_length_b       33.7753
_cell_length_c       28.5087
_cell_angle_alpha    90.34480000000002
_cell_angle_beta     90.3889
_cell_angle_gamma    97.22749999999999

_symmetry_space_group_name_H-M    'P 1'
_symmetry_Int_Tables_number       1

loop_
  _symmetry_equiv_pos_as_xyz
  'x,y,z'

loop_
  _atom_site_type_symbol
  _atom_site_label
  _atom_site_symmetry_multiplicity
  _atom_site_fract_x
  _atom_site_fract_y
  _atom_site_fract_z
  _atom_site_occupancy
  O   O1        1.0  0.03867  0.31237  0.96768  1.0000
  O   O2        1.0  0.96036  0.30014  0.06068  1.0000
  O   O3        1.0  0.0379  0.29668  0.05799  1.0000
  O   O4        1.0  0.9621600000000001  0.32332  0.9731600000000001  1.0000
  O   O5        1.0  0.95141  0.26012  0.95081  1.0000
  O   O6        1.0  0.020899999999999995  0.23275  0.04197  1.0000
  O   O7        1.0  0.94375  0.2381  0.03636  1.0000
  O   O8        1.0  0.026570000000000014  0.24807000000000007  0.9534100000000001  1.0000
  Cu  Cu1       1.0  0.0014000000000000095  0.3145400000000001  0.01679  1.0000
  Cu  Cu2       1.0  0.98439  0.23851  0.99374  1.0000
  C   C1        1.0  0.04637  0.28164  0.94496  1.0000
  C   C2        1.0  0.93752  0.26703  0.06262  1.0000
  C   C3        1.0  0.04192000000000002  0.26033  0.06498  1.0000
  C   C4        1.0  0.94374  0.29594  0.94761  1.0000
  O   O9        1.0  0.47671000000000013  0.81048  0.52851  1.0000
  O   O10       1.0  0.55934  0.79742  0.44519  1.0000
  O   O11       1.0  0.48391000000000006  0.8103000000000001  0.43702  1.0000
  O   O12       1.0  0.55408  0.80701  0.53668  1.0000
  O   O13       1.0  0.5395900000000001  0.7419  0.54036  1.0000
  O   O14       1.0  0.4696  0.74486  0.44041  1.0000
  O   O15       1.0  0.54463  0.73251  0.45133  1.0000
  O   O16       1.0  0.46232  0.74486  0.53103  1.0000
  Cu  Cu3       1.0  0.52009  0.8128  0.4865  1.0000
  Cu  Cu4       1.0  0.50248  0.7346900000000002  0.49112  1.0000
  C   C5        1.0  0.4554  0.77933  0.54361  1.0000
  C   C6        1.0  0.56626  0.7622500000000002  0.4343  1.0000
  C   C7        1.0  0.46424999999999994  0.77812  0.42212  1.0000
  C   C8        1.0  0.5593100000000002  0.77412  0.55549  1.0000
  O   O17       1.0  0.03369  0.69288  0.0401  1.0000
  O   O18       1.0  0.9731200000000001  0.6967600000000003  0.93131  1.0000
  O   O19       1.0  0.048580000000000075  0.6939800000000003  0.94994  1.0000
  O   O20       1.0  0.9562699999999998  0.69098  0.02094  1.0000
  O   O21       1.0  0.96384  0.75691  0.02372  1.0000
  O   O22       1.0  0.05874000000000001  0.75952  0.95884  1.0000
  O   O23       1.0  0.9828599999999998  0.76223  0.9357600000000001  1.0000
  O   O24       1.0  0.03871000000000002  0.7580300000000001  0.04596  1.0000
  Cu  Cu5       1.0  0.0020199999999999103  0.68699  0.98533  1.0000
  Cu  Cu6       1.0  0.011819999999999936  0.76568  0.9911900000000001  1.0000
  C   C9        1.0  0.04666999999999999  0.72497  0.06193  1.0000
  C   C10       1.0  0.96766  0.73055  0.91487  1.0000
  C   C11       1.0  0.06967999999999996  0.72732  0.94306  1.0000
  C   C12       1.0  0.9442  0.72348  0.03387  1.0000
  O   O25       1.0  0.52801  0.19043  0.54539  1.0000
  O   O26       1.0  0.43607  0.19270000000000007  0.47283  1.0000
  O   O27       1.0  0.51263  0.18928000000000006  0.45505  1.0000
  O   O28       1.0  0.45244  0.19439  0.56291  1.0000
  O   O29       1.0  0.46175  0.25992000000000004  0.55903  1.0000
  O   O30       1.0  0.52498  0.25484  0.45539  1.0000
  O   O31       1.0  0.44839  0.25847  0.46965  1.0000
  O   O32       1.0  0.5377499999999998  0.25639  0.54484  1.0000
  Cu  Cu7       1.0  0.48113  0.18506  0.50898  1.0000
  Cu  Cu8       1.0  0.49431  0.26393  0.5069  1.0000
  C   C13       1.0  0.54819  0.22327  0.55775  1.0000
  C   C14       1.0  0.4266  0.22608  0.45921  1.0000
  C   C15       1.0  0.53001  0.22136000000000006  0.4375  1.0000
  C   C16       1.0  0.44637  0.22824  0.5790900000000001  1.0000
  O   O33       1.0  0.70883  0.02768  0.9390000000000001  1.0000
  O   O34       1.0  0.70994  0.95076  0.03161  1.0000
  O   O35       1.0  0.69745  0.025240000000000005  0.03072  1.0000
  O   O36       1.0  0.71462  0.95017  0.94086  1.0000
  O   O37       1.0  0.78029  0.9670600000000001  0.9479  1.0000
  O   O38       1.0  0.76316  0.03856  0.04129  1.0000
  O   O39       1.0  0.7751400000000002  0.9653600000000001  0.03795  1.0000
  O   O40       1.0  0.77355  0.04424  0.9507099999999999  1.0000
  Cu  Cu9       1.0  0.70111  0.9871400000000001  0.98431  1.0000
  Cu  Cu10      1.0  0.77951  0.00571  0.99471  1.0000
  C   C17       1.0  0.74138  0.04979  0.9295  1.0000
  C   C18       1.0  0.74301  0.94461  0.050820000000000004  1.0000
  C   C19       1.0  0.72748  0.043600000000000014  0.05246000000000001  1.0000
  C   C20       1.0  0.75032  0.94515  0.93005  1.0000
  O   O41       1.0  0.20255000000000004  0.53964  0.47128  1.0000
  O   O42       1.0  0.20826  0.45392  0.55078  1.0000
  O   O43       1.0  0.21136000000000005  0.5305800000000003  0.56223  1.0000
  O   O44       1.0  0.19997000000000006  0.46163  0.46007  1.0000
  O   O45       1.0  0.26575  0.46554  0.45548  1.0000
  O   O46       1.0  0.2766  0.54023  0.55081  1.0000
  O   O47       1.0  0.2746  0.46317  0.54555  1.0000
  O   O48       1.0  0.26815  0.54369  0.46018  1.0000
  Cu  Cu11      1.0  0.1989  0.49590000000000006  0.51158  1.0000
  Cu  Cu12      1.0  0.27779  0.50395  0.50192  1.0000
  C   C21       1.0  0.23453  0.55608  0.4521200000000001  1.0000
  C   C22       1.0  0.24258000000000002  0.44455  0.56222  1.0000
  C   C23       1.0  0.24604  0.5476  0.57385  1.0000
  C   C24       1.0  0.23107  0.45042  0.44144  1.0000
  O   O49       1.0  0.30042  0.97996  0.95565  1.0000
  O   O50       1.0  0.2869  0.041020000000000056  0.06152  1.0000
  O   O51       1.0  0.29734  0.96713  0.045690000000000015  1.0000
  O   O52       1.0  0.29166  0.055979999999999926  0.97144  1.0000
  O   O53       1.0  0.2265  0.04051999999999989  0.96529  1.0000
  O   O54       1.0  0.23133999999999996  0.95256  0.03902  1.0000
  O   O55       1.0  0.22132000000000002  0.027109999999999967  0.05386  1.0000
  O   O56       1.0  0.23486000000000007  0.96635  0.94899  1.0000
  Cu  Cu13      1.0  0.3007000000000001  0.012650000000000272  0.0089  1.0000
  Cu  Cu14      1.0  0.22205  0.99498  0.00113  1.0000
  C   C25       1.0  0.2698  0.96213  0.93429  1.0000
  C   C26       1.0  0.25166  0.04488000000000025  0.07561  1.0000
  C   C27       1.0  0.26498  0.9449100000000002  0.055030000000000016  1.0000
  C   C28       1.0  0.25796  0.06391999999999999  0.9557599999999999  1.0000
  O   O57       1.0  0.8002  0.5493400000000003  0.52614  1.0000
  O   O58       1.0  0.79842  0.45826  0.45334  1.0000
  O   O59       1.0  0.79886  0.53417  0.43616  1.0000
  O   O60       1.0  0.79657  0.47328  0.54399  1.0000
  O   O61       1.0  0.73054  0.46403  0.53962  1.0000
  O   O62       1.0  0.73291  0.53034  0.43845  1.0000
  O   O63       1.0  0.73207  0.45405  0.44931  1.0000
  O   O64       1.0  0.73366  0.54073  0.52784  1.0000
  Cu  Cu15      1.0  0.80524  0.5043  0.49006  1.0000
  Cu  Cu16      1.0  0.72567  0.49646  0.48875000000000013  1.0000
  C   C29       1.0  0.76716  0.5602600000000002  0.53946  1.0000
  C   C30       1.0  0.7648  0.44124  0.43827  1.0000
  C   C31       1.0  0.76603  0.54351  0.41951  1.0000
  C   C32       1.0  0.7629  0.45773000000000014  0.55996  1.0000
  C   C33       1.0  0.2069  0.16380000000000003  0.20284  1.0000
  C   C34       1.0  0.17544000000000004  0.17876000000000006  0.17916  1.0000
  C   C35       1.0  0.16171000000000005  0.21434  0.19299  1.0000
  C   C36       1.0  0.18061  0.23668  0.23088  1.0000
  C   C37       1.0  0.21211  0.22158  0.25583  1.0000
  C   C38       1.0  0.22421000000000005  0.18422000000000005  0.24296  1.0000
  C   C39       1.0  0.25375000000000003  0.16868  0.26988  1.0000
  C   C40       1.0  0.2728  0.19052  0.30711  1.0000
  C   C41       1.0  0.26416  0.22934  0.31743  1.0000
  C   C42       1.0  0.2326  0.24455  0.29255  1.0000
  C   C43       1.0  0.16955  0.27407  0.24362  1.0000
  C   C44       1.0  0.19021000000000002  0.2970100000000001  0.27897  1.0000
  C   C45       1.0  0.22191  0.2829  0.30373  1.0000
  C   C46       1.0  0.24357000000000004  0.30622  0.33913  1.0000
  C   C47       1.0  0.27594  0.2916  0.36147  1.0000
  C   C48       1.0  0.28637  0.25357  0.35169000000000006  1.0000
  H   H1        1.0  0.26251  0.13958000000000004  0.26203  1.0000
  H   H2        1.0  0.29532  0.17718  0.32683  1.0000
  H   H3        1.0  0.14537  0.28629  0.22559  1.0000
  H   H4        1.0  0.1813  0.32607  0.2866  1.0000
  H   H5        1.0  0.16243  0.16325  0.14813000000000004  1.0000
  H   H6        1.0  0.29302  0.3100600000000001  0.3878  1.0000
  C   C49       1.0  0.7398300000000001  0.67405  0.30352  1.0000
  C   C50       1.0  0.7118  0.69193  0.32975  1.0000
  C   C51       1.0  0.69716  0.72679  0.31479  1.0000
  C   C52       1.0  0.71295  0.74601  0.27378  1.0000
  C   C53       1.0  0.74178  0.72839  0.24707  1.0000
  C   C54       1.0  0.7543  0.69164  0.2612  1.0000
  C   C55       1.0  0.7807  0.67331  0.23261  1.0000
  C   C56       1.0  0.7961500000000001  0.6917200000000002  0.19197  1.0000
  C   C57       1.0  0.78662  0.72959  0.17923  1.0000
  C   C58       1.0  0.75808  0.74749  0.20606  1.0000
  C   C59       1.0  0.70073  0.7822  0.25876  1.0000
  C   C60       1.0  0.7179000000000001  0.8017300000000002  0.21952  1.0000
  C   C61       1.0  0.7464  0.7847700000000002  0.19249  1.0000
  C   C62       1.0  0.7639000000000001  0.8041500000000003  0.15239  1.0000
  C   C63       1.0  0.79326  0.7868700000000002  0.12768  1.0000
  C   C64       1.0  0.80525  0.7503  0.14066  1.0000
  H   H7        1.0  0.78982  0.64466  0.24165  1.0000
  H   H8        1.0  0.81644  0.67643  0.17113000000000003  1.0000
  H   H9        1.0  0.67842  0.79622  0.27787  1.0000
  H   H10       1.0  0.70848  0.83022  0.21041  1.0000
  H   H11       1.0  0.7000900000000002  0.67766  0.3617  1.0000
  H   H12       1.0  0.80771  0.8027100000000001  0.09808000000000001  1.0000
  C   C65       1.0  0.8016800000000001  0.22655  0.17978  1.0000
  C   C66       1.0  0.78537  0.18792  0.16642  1.0000
  C   C67       1.0  0.74755  0.17096  0.18144  1.0000
  C   C68       1.0  0.72663  0.19096  0.21487  1.0000
  C   C69       1.0  0.7444100000000001  0.22835  0.23276000000000005  1.0000
  C   C70       1.0  0.7817  0.24673000000000003  0.21459  1.0000
  C   C71       1.0  0.79757  0.28455  0.23169000000000003  1.0000
  C   C72       1.0  0.77961  0.30204  0.26912  1.0000
  C   C73       1.0  0.74279  0.2843800000000001  0.2874800000000001  1.0000
  C   C74       1.0  0.72431  0.24783  0.26802  1.0000
  C   C75       1.0  0.6884  0.17468000000000006  0.23048  1.0000
  C   C76       1.0  0.66809  0.19450000000000006  0.2639  1.0000
  C   C77       1.0  0.68598  0.23049  0.28408  1.0000
  C   C78       1.0  0.66666  0.24973000000000004  0.31999000000000005  1.0000
  C   C79       1.0  0.68587  0.28507  0.33967  1.0000
  C   C80       1.0  0.72366  0.30229  0.32462  1.0000
  H   H13       1.0  0.82476  0.30042  0.21737  1.0000
  H   H14       1.0  0.7944700000000001  0.3300400000000001  0.28286000000000006  1.0000
  H   H15       1.0  0.67392  0.14642  0.21692  1.0000
  H   H16       1.0  0.63856  0.18095  0.27455  1.0000
  H   H17       1.0  0.80081  0.17209  0.14027  1.0000
  H   H18       1.0  0.6713  0.29924  0.36801  1.0000
  C   C81       1.0  0.3191  0.74352  0.31991  1.0000
  C   C82       1.0  0.30062  0.7105700000000001  0.34429  1.0000
  C   C83       1.0  0.26154  0.6931100000000002  0.33337  1.0000
  C   C84       1.0  0.24002999999999997  0.7092  0.29663  1.0000
  C   C85       1.0  0.25918  0.74173  0.2703  1.0000
  C   C86       1.0  0.29893000000000003  0.75884  0.28187  1.0000
  C   C87       1.0  0.31765  0.79052  0.255  1.0000
  C   C88       1.0  0.29751  0.80559  0.21761000000000003  1.0000
  C   C89       1.0  0.25784  0.78976  0.20612  1.0000
  C   C90       1.0  0.23857  0.75722  0.23232  1.0000
  C   C91       1.0  0.20006000000000004  0.69388  0.28561  1.0000
  C   C92       1.0  0.17978  0.70911  0.24822  1.0000
  C   C93       1.0  0.19877000000000003  0.74022  0.22063  1.0000
  C   C94       1.0  0.17909  0.75517  0.18174  1.0000
  C   C95       1.0  0.1983  0.78765  0.15699  1.0000
  C   C96       1.0  0.23683  0.80558  0.169  1.0000
  H   H19       1.0  0.34813  0.80384  0.26261  1.0000
  H   H20       1.0  0.31328  0.82989  0.19779000000000002  1.0000
  H   H21       1.0  0.18426  0.66978  0.3056900000000001  1.0000
  H   H22       1.0  0.14912  0.69618  0.24085  1.0000
  H   H23       1.0  0.31696  0.6984200000000002  0.3727  1.0000
  H   H24       1.0  0.18266  0.79955  0.12782  1.0000
  C   C97       1.0  0.68604  0.2634  0.6742200000000002  1.0000
  C   C98       1.0  0.6987300000000002  0.30277  0.66103  1.0000
  C   C99       1.0  0.7299  0.32634  0.68441  1.0000
  C   C100      1.0  0.74719  0.31138999999999994  0.72482  1.0000
  C   C101      1.0  0.73492  0.27142  0.73881  1.0000
  C   C102      1.0  0.7052200000000001  0.24685  0.7125  1.0000
  C   C103      1.0  0.69597  0.20652000000000006  0.72482  1.0000
  C   C104      1.0  0.71409  0.19104  0.76369  1.0000
  C   C105      1.0  0.7418300000000001  0.21544  0.79191  1.0000
  C   C106      1.0  0.75292  0.25584000000000007  0.77872  1.0000
  C   C107      1.0  0.77653  0.33528  0.75129  1.0000
  C   C108      1.0  0.79422  0.32  0.79034  1.0000
  C   C109      1.0  0.7830000000000001  0.28038000000000013  0.80439  1.0000
  C   C110      1.0  0.80183  0.26444  0.843  1.0000
  C   C111      1.0  0.78878  0.22557000000000002  0.8576300000000001  1.0000
  C   C112      1.0  0.7595800000000003  0.20049000000000006  0.83241  1.0000
  H   H25       1.0  0.6745200000000002  0.18665  0.70445  1.0000
  H   H26       1.0  0.70596  0.15979  0.77163  1.0000
  H   H27       1.0  0.78608  0.36601  0.74188  1.0000
  H   H28       1.0  0.81681  0.33954  0.80956  1.0000
  H   H29       1.0  0.68462  0.3151200000000001  0.631  1.0000
  H   H30       1.0  0.80349  0.21375  0.8875600000000001  1.0000
  C   C113      1.0  0.32748  0.7484  0.67321  1.0000
  C   C114      1.0  0.31446  0.70814  0.66388  1.0000
  C   C115      1.0  0.28426  0.6863  0.6899200000000001  1.0000
  C   C116      1.0  0.26793  0.70459  0.72888  1.0000
  C   C117      1.0  0.2802100000000001  0.74569  0.73853  1.0000
  C   C118      1.0  0.30973  0.76787  0.7102600000000001  1.0000
  C   C119      1.0  0.32022  0.80883  0.7193800000000001  1.0000
  C   C120      1.0  0.30303  0.8275100000000001  0.75656  1.0000
  C   C121      1.0  0.27422  0.80603  0.7853200000000002  1.0000
  C   C122      1.0  0.2622100000000001  0.7648700000000003  0.77584  1.0000
  C   C123      1.0  0.23957000000000006  0.6830100000000001  0.75813  1.0000
  C   C124      1.0  0.22181  0.70188  0.79467  1.0000
  C   C125      1.0  0.23176000000000005  0.74298  0.80313  1.0000
  C   C126      1.0  0.21193000000000004  0.76302  0.83797  1.0000
  C   C127      1.0  0.22500000000000006  0.8031700000000003  0.8476  1.0000
  C   C128      1.0  0.25634  0.82466  0.8229  1.0000
  H   H31       1.0  0.34194  0.8267400000000003  0.69786  1.0000
  H   H32       1.0  0.3122  0.8590600000000002  0.76237  1.0000
  H   H33       1.0  0.23056  0.6514  0.75251  1.0000
  H   H34       1.0  0.19975  0.68412  0.81593  1.0000
  H   H35       1.0  0.32736  0.69372  0.6345  1.0000
  H   H36       1.0  0.21017000000000002  0.8182600000000002  0.87496  1.0000
  C   C129      1.0  0.23629  0.20785  0.85669  1.0000
  C   C130      1.0  0.20305  0.22572  0.87185  1.0000
  C   C131      1.0  0.18941000000000005  0.25723  0.84725  1.0000
  C   C132      1.0  0.21005999999999997  0.27218  0.80677  1.0000
  C   C133      1.0  0.24505  0.2558300000000001  0.79235  1.0000
  C   C134      1.0  0.25811  0.22341000000000003  0.81716  1.0000
  C   C135      1.0  0.29209  0.20688  0.80122  1.0000
  C   C136      1.0  0.31372  0.22273  0.76276  1.0000
  C   C137      1.0  0.30115  0.25455  0.73749  1.0000
  C   C138      1.0  0.26630000000000004  0.27107  0.75209  1.0000
  C   C139      1.0  0.19597  0.3022  0.7796800000000002  1.0000
  C   C140      1.0  0.21631  0.31653  0.73961  1.0000
  C   C141      1.0  0.25215  0.3022  0.7259300000000001  1.0000
  C   C142      1.0  0.27403  0.31776  0.6864100000000001  1.0000
  C   C143      1.0  0.30895  0.30185  0.67343  1.0000
  C   C144      1.0  0.32219  0.26997  0.69749  1.0000
  H   H37       1.0  0.30261  0.18173  0.81862  1.0000
  H   H38       1.0  0.34017  0.20945  0.75259  1.0000
  H   H39       1.0  0.16888999999999998  0.31472  0.7891  1.0000
  H   H40       1.0  0.20384  0.33928  0.71969  1.0000
  H   H41       1.0  0.18620000000000006  0.21346000000000004  0.90193  1.0000
  H   H42       1.0  0.32547000000000004  0.31367  0.64291  1.0000
  C   C145      1.0  0.7453600000000002  0.6975800000000002  0.6513  1.0000
  C   C146      1.0  0.70793  0.7100000000000001  0.64164  1.0000
  C   C147      1.0  0.6948  0.74222  0.66527  1.0000
  C   C148      1.0  0.71856  0.76115  0.7021  1.0000
  C   C149      1.0  0.75666  0.74886  0.71238  1.0000
  C   C150      1.0  0.77064  0.7177300000000002  0.68601  1.0000
  C   C151      1.0  0.8094200000000003  0.70762  0.69499  1.0000
  C   C152      1.0  0.83289  0.72572  0.7315100000000001  1.0000
  C   C153      1.0  0.81861  0.75495  0.75987  1.0000
  C   C154      1.0  0.78084  0.76771  0.7491000000000001  1.0000
  C   C155      1.0  0.7052500000000003  0.79194  0.72878  1.0000
  C   C156      1.0  0.72903  0.8105100000000002  0.76479  1.0000
  C   C157      1.0  0.76687  0.7987700000000002  0.77553  1.0000
  C   C158      1.0  0.79091  0.81691  0.81252  1.0000
  C   C159      1.0  0.82707  0.80268  0.82433  1.0000
  C   C160      1.0  0.8409099999999999  0.7715  0.79912  1.0000
  H   H43       1.0  0.82169  0.68508  0.6743400000000002  1.0000
  H   H44       1.0  0.86222  0.71635  0.73769  1.0000
  H   H45       1.0  0.67619  0.80175  0.72212  1.0000
  H   H46       1.0  0.7173  0.83396  0.78445  1.0000
  H   H47       1.0  0.68912  0.6950000000000001  0.6141  1.0000
  H   H48       1.0  0.8443000000000002  0.8155700000000002  0.85428  1.0000
  C   C161      1.0  0.27115  0.10782  0.12371  1.0000
  C   C162      1.0  0.24531000000000003  0.07163  0.11619  1.0000
  C   C163      1.0  0.21082  0.06335  0.14492000000000002  1.0000
  C   C164      1.0  0.20042000000000001  0.09231  0.17685  1.0000
  C   C165      1.0  0.22376  0.12988  0.18005  1.0000
  C   C166      1.0  0.25978  0.13713000000000006  0.15453  1.0000
  Br  Br1       1.0  0.29158  0.18905  0.158  1.0000
  Br  Br2       1.0  0.32113  0.11975  0.0903  1.0000
  Br  Br3       1.0  0.15303  0.08152  0.21519000000000002  1.0000
  Br  Br4       1.0  0.17713  0.01252  0.14143000000000003  1.0000
  C   C167      1.0  0.76616  0.5932200000000002  0.61769  1.0000
  C   C168      1.0  0.76717  0.5963000000000003  0.56852  1.0000
  C   C169      1.0  0.76452  0.6333  0.54707  1.0000
  C   C170      1.0  0.76098  0.66718  0.5746600000000001  1.0000
  C   C171      1.0  0.75667  0.66347  0.62364  1.0000
  C   C172      1.0  0.75915  0.62631  0.64518  1.0000
  Br  Br5       1.0  0.74995  0.61975  0.71164  1.0000
  Br  Br6       1.0  0.7737200000000002  0.5434800000000002  0.64715  1.0000
  Br  Br7       1.0  0.76139  0.71865  0.54522  1.0000
  Br  Br8       1.0  0.76309  0.63736  0.47986  1.0000
  C   C173      1.0  0.7812  0.9104000000000002  0.11001  1.0000
  C   C174      1.0  0.7447900000000002  0.9137700000000002  0.08447  1.0000
  C   C175      1.0  0.71154  0.88339  0.09116  1.0000
  C   C176      1.0  0.71756  0.84744  0.11356  1.0000
  C   C177      1.0  0.7545  0.8436  0.13567  1.0000
  C   C178      1.0  0.7849800000000001  0.8761600000000003  0.13674  1.0000
  Br  Br9       1.0  0.83286  0.87275  0.1743  1.0000
  Br  Br10      1.0  0.8272  0.95163  0.11092  1.0000
  Br  Br11      1.0  0.67634  0.80192  0.11019  1.0000
  Br  Br12      1.0  0.6574600000000002  0.8880600000000002  0.06903  1.0000
  C   C179      1.0  0.24506  0.37224  0.5780300000000003  1.0000
  C   C180      1.0  0.24577  0.41152  0.5951  1.0000
  C   C181      1.0  0.25278000000000006  0.41958000000000006  0.64318  1.0000
  C   C182      1.0  0.26246000000000014  0.38922  0.67327  1.0000
  C   C183      1.0  0.26112  0.34972  0.65628  1.0000
  C   C184      1.0  0.2509  0.34116  0.60886  1.0000
  Br  Br13      1.0  0.24524  0.28675  0.5859100000000002  1.0000
  Br  Br14      1.0  0.23849  0.36112  0.51203  1.0000
  Br  Br15      1.0  0.28024  0.40251  0.7366200000000003  1.0000
  Br  Br16      1.0  0.24889  0.47214  0.66781  1.0000
  C   C185      1.0  0.90822  0.26841  0.14134  1.0000
  C   C186      1.0  0.90409  0.26226  0.0923  1.0000
  C   C187      1.0  0.8657  0.24860000000000002  0.07327  1.0000
  C   C188      1.0  0.83186  0.24505  0.1022  1.0000
  C   C189      1.0  0.83653  0.24504000000000004  0.15146  1.0000
  C   C190      1.0  0.87536  0.25585  0.17099000000000003  1.0000
  Br  Br17      1.0  0.8849700000000003  0.24875  0.23705  1.0000
  Br  Br18      1.0  0.9598800000000001  0.2881  0.16862  1.0000
  Br  Br19      1.0  0.77885  0.23965000000000003  0.0738  1.0000
  Br  Br20      1.0  0.8581  0.23434  0.00764  1.0000
  C   C191      1.0  0.4302400000000001  0.78683  0.6249000000000001  1.0000
  C   C192      1.0  0.4221000000000001  0.7822  0.5764900000000001  1.0000
  C   C193      1.0  0.3820299999999999  0.77313  0.56068  1.0000
  C   C194      1.0  0.3504  0.76865  0.59299  1.0000
  C   C195      1.0  0.35888  0.76821  0.6415  1.0000
  C   C196      1.0  0.39892  0.77817  0.6575  1.0000
  Br  Br21      1.0  0.41175999999999996  0.7753  0.72338  1.0000
  Br  Br22      1.0  0.4849200000000001  0.80093  0.64645  1.0000
  Br  Br23      1.0  0.29528  0.7598  0.5708  1.0000
  Br  Br24      1.0  0.37042  0.76183  0.4953900000000001  1.0000
  C   C197      1.0  0.07556  0.75807  0.13388  1.0000
  C   C198      1.0  0.07197  0.72506  0.10204  1.0000
  C   C199      1.0  0.09842000000000002  0.6954800000000002  0.10813000000000002  1.0000
  C   C200      1.0  0.13257  0.70361  0.13765  1.0000
  C   C201      1.0  0.13827  0.73894  0.16463  1.0000
  C   C202      1.0  0.10791000000000003  0.76401  0.1658  1.0000
  Br  Br25      1.0  0.11310000000000003  0.80876  0.20904  1.0000
  Br  Br26      1.0  0.036600000000000035  0.7959200000000002  0.1355  1.0000
  Br  Br27      1.0  0.17428  0.66894  0.13661  1.0000
  Br  Br28      1.0  0.09295  0.64627  0.07211  1.0000
  C   C203      1.0  0.57998  0.22203  0.6369400000000001  1.0000
  C   C204      1.0  0.58417  0.22368  0.58786  1.0000
  C   C205      1.0  0.62277  0.23124  0.56815  1.0000
  C   C206      1.0  0.65689  0.23806  0.59738  1.0000
  C   C207      1.0  0.65232  0.24177000000000004  0.64634  1.0000
  C   C208      1.0  0.61369  0.23291  0.6662  1.0000
  Br  Br29      1.0  0.6058200000000001  0.24032000000000003  0.73254  1.0000
  Br  Br30      1.0  0.52755  0.20756  0.6638600000000001  1.0000
  Br  Br31      1.0  0.71001  0.2451  0.57015  1.0000
  Br  Br32      1.0  0.6289500000000001  0.23604000000000006  0.50128  1.0000
  C   C209      1.0  0.77891  0.09769  0.87208  1.0000
  C   C210      1.0  0.74247  0.0836  0.8953  1.0000
  C   C211      1.0  0.70895  0.10508  0.88919  1.0000
  C   C212      1.0  0.7141800000000003  0.14331000000000002  0.86854  1.0000
  C   C213      1.0  0.75129  0.15818  0.84829  1.0000
  C   C214      1.0  0.78258  0.13396  0.8474500000000001  1.0000
  Br  Br33      1.0  0.83115  0.15122  0.81296  1.0000
  Br  Br34      1.0  0.8247000000000001  0.068  0.87264  1.0000
  Br  Br35      1.0  0.6714  0.17662  0.87146  1.0000
  Br  Br36      1.0  0.65542  0.08322  0.90787  1.0000
  C   C215      1.0  0.23541000000000006  0.6294200000000002  0.43991  1.0000
  C   C216      1.0  0.23336999999999997  0.59066  0.42079  1.0000
  C   C217      1.0  0.2347700000000001  0.5855600000000002  0.37178  1.0000
  C   C218      1.0  0.24199  0.61908  0.34237  1.0000
  C   C219      1.0  0.24532  0.65794  0.36176  1.0000
  C   C220      1.0  0.24009  0.66287  0.4104  1.0000
  Br  Br37      1.0  0.24140999999999999  0.71585  0.4368600000000001  1.0000
  Br  Br38      1.0  0.23547000000000004  0.63719  0.50676  1.0000
  Br  Br39      1.0  0.25102  0.61154  0.27631  1.0000
  Br  Br40      1.0  0.22774  0.53256  0.34524  1.0000
  C   C221      1.0  0.30651  0.9126100000000003  0.89351  1.0000
  C   C222      1.0  0.27371  0.93566  0.89616  1.0000
  C   C223      1.0  0.2419  0.92758  0.86284  1.0000
  C   C224      1.0  0.23950999999999997  0.89368  0.8337  1.0000
  C   C225      1.0  0.26794  0.86675  0.83819  1.0000
  C   C226      1.0  0.30257  0.87726  0.86608  1.0000
  Br  Br41      1.0  0.34230000000000005  0.8406700000000003  0.87091  1.0000
  Br  Br42      1.0  0.35484000000000004  0.9248500000000002  0.93119  1.0000
  Br  Br43      1.0  0.19553000000000004  0.8820400000000003  0.78944  1.0000
  Br  Br44      1.0  0.20219  0.96366  0.85425  1.0000
  C   C227      1.0  0.76082  0.36769  0.42744  1.0000
  C   C228      1.0  0.76295  0.40591  0.40763  1.0000
  C   C229      1.0  0.75766  0.40998  0.35896  1.0000
  C   C230      1.0  0.74524  0.37617  0.3310600000000001  1.0000
  C   C231      1.0  0.74238  0.33784  0.35105  1.0000
  C   C232      1.0  0.75221  0.33367  0.39884  1.0000
  Br  Br45      1.0  0.75181  0.28120000000000006  0.4257  1.0000
  Br  Br46      1.0  0.76656  0.36176000000000014  0.49414  1.0000
  Br  Br47      1.0  0.72857  0.38283  0.26694  1.0000
  Br  Br48      1.0  0.76746  0.4618800000000001  0.33074  1.0000
  C   C233      1.0  0.07931  0.25267  0.8754000000000001  1.0000
  C   C234      1.0  0.07975  0.28325  0.91003  1.0000
  C   C235      1.0  0.11470000000000001  0.31164  0.91416  1.0000
  C   C236      1.0  0.15082  0.30396  0.89263  1.0000
  C   C237      1.0  0.15102  0.27066  0.86283  1.0000
  C   C238      1.0  0.11454000000000002  0.24764000000000003  0.85083  1.0000
  Br  Br49      1.0  0.11319000000000003  0.20923  0.8003  1.0000
  Br  Br50      1.0  0.031210000000000016  0.21672000000000005  0.86041  1.0000
  Br  Br51      1.0  0.20047  0.338  0.90503  1.0000
  Br  Br52      1.0  0.11412  0.36141  0.94763  1.0000
  C   C239      1.0  0.5956  0.7207400000000003  0.37208  1.0000
  C   C240      1.0  0.5994700000000003  0.7552  0.40156  1.0000
  C   C241      1.0  0.63604  0.78159  0.40036  1.0000
  C   C242      1.0  0.66823  0.77257  0.37209  1.0000
  C   C243      1.0  0.66289  0.73961  0.34128  1.0000
  C   C244      1.0  0.62575  0.7152000000000002  0.33966  1.0000
  Br  Br53      1.0  0.61608  0.6740100000000002  0.29212  1.0000
  Br  Br54      1.0  0.55158  0.67805  0.37692  1.0000
  Br  Br55      1.0  0.72037  0.80411  0.37702  1.0000
  Br  Br56      1.0  0.64455  0.8284700000000003  0.43981000000000003  1.0000
  C   C245      1.0  0.9059900000000001  0.70639  0.8659  1.0000
  C   C246      1.0  0.94106  0.73399  0.87326  1.0000
  C   C247      1.0  0.9465  0.76897  0.84564  1.0000
  C   C248      1.0  0.91466  0.7794600000000003  0.8178  1.0000
  C   C249      1.0  0.87719  0.75538  0.81763  1.0000
  C   C250      1.0  0.87341  0.71799  0.8400700000000001  1.0000
  Br  Br57      1.0  0.82213  0.68453  0.84028  1.0000
  Br  Br58      1.0  0.90047  0.65358  0.89286  1.0000
  Br  Br59      1.0  0.92147  0.82784  0.78143  1.0000
  Br  Br60      1.0  0.99762  0.80266  0.84516  1.0000
  C   C251      1.0  0.35391  0.23527000000000006  0.4542300000000001  1.0000
  C   C252      1.0  0.3894700000000001  0.22782  0.43157  1.0000
  C   C253      1.0  0.39027  0.22562  0.38229  1.0000
  C   C254      1.0  0.35699  0.23463  0.3557200000000001  1.0000
  C   C255      1.0  0.3209  0.24091000000000004  0.37849  1.0000
  C   C256      1.0  0.3191  0.23938  0.4279  1.0000
  Br  Br61      1.0  0.26898  0.24341000000000002  0.45979  1.0000
  Br  Br62      1.0  0.35326  0.24267  0.5211  1.0000
  Br  Br63      1.0  0.3625  0.24183000000000002  0.28883  1.0000
  Br  Br64      1.0  0.43711  0.21071  0.35129  1.0000
  C   C257      1.0  0.75064  0.87248  0.9138600000000001  1.0000
  C   C258      1.0  0.7574100000000001  0.9122700000000002  0.8981000000000002  1.0000
  C   C259      1.0  0.77316  0.92041  0.85302  1.0000
  C   C260      1.0  0.78397  0.8892000000000002  0.8247800000000001  1.0000
  C   C261      1.0  0.77828  0.8496900000000001  0.8412800000000001  1.0000
  C   C262      1.0  0.7610400000000002  0.8412600000000002  0.8855  1.0000
  Br  Br65      1.0  0.75199  0.78679  0.90717  1.0000
  Br  Br66      1.0  0.72825  0.86042  0.9748100000000001  1.0000
  Br  Br67      1.0  0.8073400000000002  0.90045  0.76388  1.0000
  Br  Br68      1.0  0.77834  0.97398  0.82927  1.0000
  C   C263      1.0  0.19655  0.38488  0.40811000000000003  1.0000
  C   C264      1.0  0.22763  0.4176  0.4054400000000001  1.0000
  C   C265      1.0  0.25881  0.41565000000000013  0.37232  1.0000
  C   C266      1.0  0.26139  0.3801900000000001  0.34689  1.0000
  C   C267      1.0  0.2338  0.34599  0.35504  1.0000
  C   C268      1.0  0.20061  0.3487900000000001  0.38442  1.0000
  Br  Br69      1.0  0.16296  0.3017500000000001  0.39621  1.0000
  Br  Br70      1.0  0.14972  0.3868800000000001  0.447  1.0000
  Br  Br71      1.0  0.30406  0.37744  0.30216  1.0000
  Br  Br72      1.0  0.29881  0.46101000000000003  0.36129  1.0000
  C   C269      1.0  0.28468  0.13289000000000006  0.93115  1.0000
  C   C270      1.0  0.25476  0.09872  0.92865  1.0000
  C   C271      1.0  0.22042  0.10099  0.89914  1.0000
  C   C272      1.0  0.21690000000000004  0.13559  0.8731000000000002  1.0000
  C   C273      1.0  0.24421  0.17020000000000005  0.87995  1.0000
  C   C274      1.0  0.27788000000000007  0.16894  0.90932  1.0000
  Br  Br73      1.0  0.31404  0.21742  0.92051  1.0000
  Br  Br74      1.0  0.33455  0.13329  0.96589  1.0000
  Br  Br75      1.0  0.17530000000000007  0.13516  0.82569  1.0000
  Br  Br76      1.0  0.17764000000000002  0.05719  0.89046  1.0000
  C   C275      1.0  0.73135  0.56929  0.34947  1.0000
  C   C276      1.0  0.7655700000000001  0.57171  0.37952  1.0000
  C   C277      1.0  0.79609  0.60469  0.37505  1.0000
  C   C278      1.0  0.78877  0.6377  0.34771  1.0000
  C   C279      1.0  0.7526  0.6366700000000002  0.32214  1.0000
  C   C280      1.0  0.7257100000000001  0.60132  0.32  1.0000
  Br  Br77      1.0  0.68054  0.5975  0.27718  1.0000
  Br  Br78      1.0  0.69079  0.52312  0.34875  1.0000
  Br  Br79      1.0  0.8266700000000001  0.68578  0.34812  1.0000
  Br  Br80      1.0  0.84651  0.6075800000000001  0.40912  1.0000
  C   C281      1.0  0.14269  0.73874  0.94032  1.0000
  C   C282      1.0  0.10522  0.729  0.91753  1.0000
  C   C283      1.0  0.10363  0.72452  0.8683  1.0000
  C   C284      1.0  0.13878000000000001  0.73425  0.84169  1.0000
  C   C285      1.0  0.17629  0.74453  0.8645400000000002  1.0000
  C   C286      1.0  0.17823  0.7443  0.91397  1.0000
  Br  Br81      1.0  0.22986  0.75276  0.9454100000000001  1.0000
  Br  Br82      1.0  0.14565  0.7442200000000002  0.007710000000000106  1.0000
  Br  Br83      1.0  0.13441  0.7378700000000001  0.7743100000000002  1.0000
  Br  Br84      1.0  0.05265000000000003  0.7093200000000002  0.83693  1.0000
  C   C287      1.0  0.58773  0.19361  0.39791  1.0000
  C   C288      1.0  0.55852  0.22059000000000006  0.3977800000000001  1.0000
  C   C289      1.0  0.56128  0.2512700000000001  0.36387  1.0000
  C   C290      1.0  0.59466  0.25718  0.33397  1.0000
  C   C291      1.0  0.62671  0.23435  0.33958  1.0000
  C   C292      1.0  0.6227  0.20175000000000007  0.37058  1.0000
  Br  Br85      1.0  0.6671400000000001  0.17126000000000005  0.38001  1.0000
  Br  Br86      1.0  0.58275  0.14766  0.43858  1.0000
  Br  Br87      1.0  0.59816  0.29861  0.28716  1.0000
  Br  Br88      1.0  0.52055  0.28683000000000003  0.35902  1.0000
  C   C293      1.0  0.91235  0.29104  0.86852  1.0000
  C   C294      1.0  0.91118  0.30406  0.91533  1.0000
  C   C295      1.0  0.87484  0.31444  0.93363  1.0000
  C   C296      1.0  0.83859  0.30376  0.90865  1.0000
  C   C297      1.0  0.8393000000000002  0.28479000000000004  0.86461  1.0000
  C   C298      1.0  0.8764300000000003  0.28111000000000014  0.84313  1.0000
  Br  Br89      1.0  0.87795  0.25925  0.78054  1.0000
  Br  Br90      1.0  0.96339  0.28667  0.83976  1.0000
  Br  Br91      1.0  0.78782  0.31228  0.9357900000000001  1.0000
  Br  Br92      1.0  0.87427  0.34033  0.99408  1.0000
  C   C299      1.0  0.42927  0.74955  0.34945  1.0000
  C   C300      1.0  0.4328  0.77875  0.38528000000000007  1.0000
  C   C301      1.0  0.40201  0.8035100000000002  0.39031  1.0000
  C   C302      1.0  0.36508999999999997  0.7936  0.36641  1.0000
  C   C303      1.0  0.35991000000000006  0.7604500000000002  0.33575  1.0000
  C   C304      1.0  0.39279  0.74015  0.32498  1.0000
  Br  Br93      1.0  0.38684  0.69796  0.27852  1.0000
  Br  Br94      1.0  0.4747700000000001  0.72351  0.33252000000000004  1.0000
  Br  Br95      1.0  0.32041000000000003  0.8229300000000003  0.37878  1.0000
  Br  Br96      1.0  0.4087200000000001  0.8492  0.43201  1.0000
  C   C305      1.0  0.26501  0.87157  0.06494  1.0000
  C   C306      1.0  0.26583  0.9097800000000001  0.08519  1.0000
  C   C307      1.0  0.26312  0.9139100000000002  0.1342  1.0000
  C   C308      1.0  0.25519  0.87979  0.16239  1.0000
  C   C309      1.0  0.25295  0.84143  0.14188000000000003  1.0000
  C   C310      1.0  0.25996  0.8375400000000001  0.09348  1.0000
  Br  Br97      1.0  0.2613  0.78527  0.06633  1.0000
  Br  Br98      1.0  0.26866  0.86562  0.99794  1.0000
  Br  Br99      1.0  0.24378000000000002  0.88582  0.22814  1.0000
  Br  Br100     1.0  0.26876  0.96635  0.16237  1.0000
  C   C311      1.0  0.78944  0.40379  0.60823  1.0000
  C   C312      1.0  0.7605  0.43053  0.6012  1.0000
  C   C313      1.0  0.72618  0.42745  0.63056  1.0000
  C   C314      1.0  0.7185600000000001  0.39534  0.66176  1.0000
  C   C315      1.0  0.7443000000000002  0.36556  0.6631500000000001  1.0000
  C   C316      1.0  0.78049  0.37055  0.6377100000000002  1.0000
  Br  Br101     1.0  0.8158599999999999  0.32954  0.6393300000000001  1.0000
  Br  Br102     1.0  0.84048  0.41018  0.5760500000000002  1.0000
  Br  Br103     1.0  0.6715500000000001  0.39062000000000013  0.70124  1.0000
  Br  Br104     1.0  0.6888300000000002  0.46669  0.62874  1.0000
  C   C317      1.0  0.70276  0.10574  0.08317  1.0000
  C   C318      1.0  0.72177  0.07145  0.0912  1.0000
  C   C319      1.0  0.73998  0.06639  0.13514  1.0000
  C   C320      1.0  0.74484  0.09796000000000003  0.16773  1.0000
  C   C321      1.0  0.7302100000000001  0.13403000000000007  0.15703  1.0000
  C   C322      1.0  0.70651  0.13685000000000003  0.11649  1.0000
  Br  Br105     1.0  0.68192  0.18462  0.10504  1.0000
  Br  Br106     1.0  0.67508  0.11224  0.025  1.0000
  Br  Br107     1.0  0.7738  0.09317000000000003  0.2257  1.0000
  Br  Br108     1.0  0.75833  0.01636  0.15069000000000002  1.0000
  C   C323      1.0  0.22164  0.60319  0.62214  1.0000
  C   C324      1.0  0.2513100000000001  0.57754  0.6131  1.0000
  C   C325      1.0  0.28802  0.58361  0.6389500000000001  1.0000
  C   C326      1.0  0.2962600000000001  0.6167900000000002  0.6692  1.0000
  C   C327      1.0  0.26936  0.64553  0.67197  1.0000
  C   C328      1.0  0.23154  0.63811  0.64938  1.0000
  Br  Br109     1.0  0.19494  0.67803  0.65094  1.0000
  Br  Br110     1.0  0.16797  0.59314  0.59555  1.0000
  Br  Br111     1.0  0.34569  0.62446  0.7053600000000002  1.0000
  Br  Br112     1.0  0.32808999999999994  0.5473  0.63352  1.0000
  C   C329      1.0  0.90963  0.72478  0.11072000000000001  1.0000
  C   C330      1.0  0.90715  0.72309  0.06149  1.0000
  C   C331      1.0  0.8701400000000001  0.7259800000000002  0.03892  1.0000
  C   C332      1.0  0.83579  0.73048  0.06545  1.0000
  C   C333      1.0  0.8392400000000001  0.7364900000000002  0.11441  1.0000
  C   C334      1.0  0.87659  0.7340300000000002  0.13698  1.0000
  Br  Br113     1.0  0.88432  0.74743  0.20267  1.0000
  Br  Br114     1.0  0.95847  0.71483  0.14206  1.0000
  Br  Br115     1.0  0.78415  0.7294900000000001  0.03444  1.0000
  Br  Br116     1.0  0.86682  0.7266400000000001  0.9716800000000001  1.0000
  C   C335      1.0  0.42633  0.26535  0.65003  1.0000
  C   C336      1.0  0.41931  0.23171  0.61977  1.0000
  C   C337      1.0  0.38293  0.20557  0.6241000000000001  1.0000
  C   C338      1.0  0.3514600000000001  0.21708000000000005  0.65157  1.0000
  C   C339      1.0  0.3572700000000001  0.25294  0.67766  1.0000
  C   C340      1.0  0.39546000000000003  0.2756  0.67914  1.0000
  Br  Br117     1.0  0.40445  0.32211  0.7194  1.0000
  Br  Br118     1.0  0.47797  0.29817  0.65174  1.0000
  Br  Br119     1.0  0.29891999999999996  0.18601  0.64927  1.0000
  Br  Br120     1.0  0.37367  0.15578  0.58953  1.0000
  C   C341      1.0  0.060820000000000006  0.22177000000000005  0.135  1.0000
  C   C342      1.0  0.07197  0.25002  0.09959  1.0000
  C   C343      1.0  0.11241000000000004  0.2676600000000001  0.09651  1.0000
  C   C344      1.0  0.14148  0.25687  0.12807  1.0000
  C   C345      1.0  0.13024  0.22886  0.16336000000000003  1.0000
  C   C346      1.0  0.08990999999999999  0.21152  0.16705000000000003  1.0000
  Br  Br121     1.0  0.07491  0.17331  0.21589  1.0000
  Br  Br122     1.0  0.005830000000000004  0.19708  0.14007  1.0000
  Br  Br123     1.0  0.19732  0.27877  0.12147  1.0000
  Br  Br124     1.0  0.12925  0.30413  0.04681  1.0000
  C   C347      1.0  0.62596  0.8000200000000002  0.59437  1.0000
  C   C348      1.0  0.5902300000000001  0.77243  0.59329  1.0000
  C   C349      1.0  0.5867400000000004  0.74013  0.62522  1.0000
  C   C350      1.0  0.62023  0.73236  0.65219  1.0000
  C   C351      1.0  0.65738  0.75644  0.64741  1.0000
  C   C352      1.0  0.65984  0.79107  0.61981  1.0000
  Br  Br125     1.0  0.7109  0.82424  0.61308  1.0000
  Br  Br126     1.0  0.6303  0.85005  0.56116  1.0000
  Br  Br127     1.0  0.61607  0.68761  0.69448  1.0000
  Br  Br128     1.0  0.5361  0.7066500000000002  0.63362  1.0000
