data_image0
_chemical_formula_structural       O8Cu2C4O8Cu2C4O8Cu2C4O8Cu2C4O8Cu2C4O8Cu2C4O8Cu2C4O8Cu2C10H2C6H2C6H2C6H2C6H2C6H2C6H2C6H2C6Br4C6Br4C6Br4C6Br4C6Br4C6Br4C6Br4C6Br4C6Br4C6Br4C6Br4C6Br4C6Br4C6Br4C6Br4C6Br4C6Br4C6Br4C6Br4C6Br4C6Br4C6Br4C6Br4C6Br4C6Br4C6Br4C6Br4C6Br4C6Br4C6Br4C6Br4C6Br4
_chemical_formula_sum              "O64 Cu16 C272 H16 Br128"
_cell_length_a       25.668
_cell_length_b       24.968599999999995
_cell_length_c       28.7896
_cell_angle_alpha    90.4449
_cell_angle_beta     89.7228
_cell_angle_gamma    95.4488

_symmetry_space_group_name_H-M    'P 1'
_symmetry_Int_Tables_number       1

loop_
  _symmetry_equiv_pos_as_xyz
  'x,y,z'

loop_
  _atom_site_type_symbol
  _atom_site_label
  _atom_site_symmetry_multiplicity
  _atom_site_fract_x
  _atom_site_fract_y
  _atom_site_fract_z
  _atom_site_occupancy
  O   O1        1.0  0.00486  0.2876  0.96171  1.0000
  O   O2        1.0  0.89377  0.26785  0.04346  1.0000
  O   O3        1.0  0.99428  0.28752  0.05267999999999999  1.0000
  O   O4        1.0  0.90494  0.2682  0.95375  1.0000
  O   O5        1.0  0.9066100000000001  0.1806  0.957  1.0000
  O   O6        1.0  0.0039099999999999985  0.20071  0.05123  1.0000
  O   O7        1.0  0.90292  0.18188  0.04647  1.0000
  O   O8        1.0  0.008890000000000002  0.19964  0.9590699999999999  1.0000
  Cu  Cu1       1.0  0.9489799999999999  0.28649  0.00292  1.0000
  Cu  Cu2       1.0  0.95691  0.18196  0.00343  1.0000
  C   C1        1.0  0.02446000000000001  0.24668  0.9452099999999999  1.0000
  C   C2        1.0  0.8791000000000001  0.22165  0.0596  1.0000
  C   C3        1.0  0.01425  0.24721  0.06909  1.0000
  C   C4        1.0  0.88923  0.2215  0.9389  1.0000
  O   O9        1.0  0.50472  0.82227  0.54344  1.0000
  O   O10       1.0  0.60719  0.81355  0.455  1.0000
  O   O11       1.0  0.50651  0.81611  0.45198  1.0000
  O   O12       1.0  0.60324  0.80641  0.5454  1.0000
  O   O13       1.0  0.58991  0.71807  0.54149  1.0000
  O   O14       1.0  0.48836  0.7281399999999998  0.45387999999999995  1.0000
  O   O15       1.0  0.58986  0.72515  0.45178999999999997  1.0000
  O   O16       1.0  0.49089  0.7335599999999999  0.54498  1.0000
  Cu  Cu3       1.0  0.55678  0.82336  0.49913  1.0000
  Cu  Cu4       1.0  0.53797  0.7175  0.4979  1.0000
  C   C5        1.0  0.48142  0.77969  0.56018  1.0000
  C   C6        1.0  0.6155  0.7682299999999999  0.4378899999999999  1.0000
  C   C7        1.0  0.48116  0.77336  0.43664  1.0000
  C   C8        1.0  0.61338  0.76022  0.55915  1.0000
  O   O17       1.0  0.09322000000000008  0.7126399999999999  0.04673  1.0000
  O   O18       1.0  0.003719999999999942  0.69946  0.947  1.0000
  O   O19       1.0  0.10470000000000002  0.71599  0.95775  1.0000
  O   O20       1.0  0.99224  0.6958799999999999  0.03887  1.0000
  O   O21       1.0  0.9901900000000001  0.7839  0.04388  1.0000
  O   O22       1.0  0.09637999999999991  0.80236  0.95687  1.0000
  O   O23       1.0  0.99422  0.7857899999999999  0.95218  1.0000
  O   O24       1.0  0.09146999999999994  0.7997699999999999  0.04692  1.0000
  Cu  Cu5       1.0  0.048450000000000104  0.6972099999999999  0.9972799999999999  1.0000
  Cu  Cu6       1.0  0.04211000000000009  0.80161  0.99996  1.0000
  C   C9        1.0  0.10912999999999995  0.75827  0.06368  1.0000
  C   C10       1.0  0.98366  0.74054  0.93214  1.0000
  C   C11       1.0  0.12010999999999994  0.76274  0.9431  1.0000
  C   C12       1.0  0.97371  0.73677  0.05679  1.0000
  O   O25       1.0  0.49377  0.20569999999999997  0.54989  1.0000
  O   O26       1.0  0.39828  0.21391  0.45701  1.0000
  O   O27       1.0  0.49576  0.19714999999999996  0.45918  1.0000
  O   O28       1.0  0.39481000000000005  0.21526  0.54751  1.0000
  O   O29       1.0  0.41636  0.30287  0.54762  1.0000
  O   O30       1.0  0.51124  0.28533  0.45264999999999994  1.0000
  O   O31       1.0  0.41268000000000005  0.30153  0.45765  1.0000
  O   O32       1.0  0.51763  0.29172  0.54377  1.0000
  Cu  Cu7       1.0  0.44386  0.19931  0.50373  1.0000
  Cu  Cu8       1.0  0.46666  0.30425  0.50037  1.0000
  C   C13       1.0  0.52316  0.2468  0.56253  1.0000
  C   C14       1.0  0.38808  0.25908  0.4415  1.0000
  C   C15       1.0  0.51944  0.23798999999999995  0.43977  1.0000
  C   C16       1.0  0.38875000000000004  0.26187  0.56326  1.0000
  O   O33       1.0  0.67372  0.0024900000000000005  0.94789  1.0000
  O   O34       1.0  0.7077300000000002  0.90568  0.03599  1.0000
  O   O35       1.0  0.66433  0.99508  0.03949  1.0000
  O   O36       1.0  0.71243  0.9097500000000001  0.94655  1.0000
  O   O37       1.0  0.79177  0.9519299999999999  0.95162  1.0000
  O   O38       1.0  0.74424  0.03573  0.04634  1.0000
  O   O39       1.0  0.78656  0.9463599999999999  0.04079  1.0000
  O   O40       1.0  0.7527  0.04514  0.95463  1.0000
  Cu  Cu9       1.0  0.68145  0.94945  0.99171  1.0000
  Cu  Cu10      1.0  0.77647  0.99971  0.9987  1.0000
  C   C17       1.0  0.7080500000000001  0.03973  0.9355799999999999  1.0000
  C   C18       1.0  0.75309  0.90884  0.05375  1.0000
  C   C19       1.0  0.6968800000000002  0.02852  0.05999  1.0000
  C   C20       1.0  0.76003  0.91551  0.93369  1.0000
  O   O41       1.0  0.20882  0.58061  0.45891  1.0000
  O   O42       1.0  0.18098  0.48213999999999996  0.55273  1.0000
  O   O43       1.0  0.21008000000000004  0.58316  0.54932  1.0000
  O   O44       1.0  0.17839  0.47797  0.46149  1.0000
  O   O45       1.0  0.26106  0.46015  0.46088  1.0000
  O   O46       1.0  0.29259  0.56832  0.54689  1.0000
  O   O47       1.0  0.26426  0.4666199999999999  0.55228  1.0000
  O   O48       1.0  0.29148  0.56333  0.4574  1.0000
  Cu  Cu11      1.0  0.18622000000000005  0.53252  0.50543  1.0000
  Cu  Cu12      1.0  0.28557  0.5124  0.504  1.0000
  C   C21       1.0  0.25484  0.58911  0.44235  1.0000
  C   C22       1.0  0.21854  0.45899  0.56952  1.0000
  C   C23       1.0  0.25651  0.59409  0.5636099999999999  1.0000
  C   C24       1.0  0.21449  0.45132999999999995  0.44604  1.0000
  O   O49       1.0  0.29294  0.09197000000000011  0.05117  1.0000
  O   O50       1.0  0.33122  0.9998  0.95978  1.0000
  O   O51       1.0  0.29436  0.09238999999999999  0.9614  1.0000
  O   O52       1.0  0.32158  0.9941999999999999  0.05066  1.0000
  O   O53       1.0  0.24038999999999996  0.9568799999999998  0.04449  1.0000
  O   O54       1.0  0.21257  0.059620000000000006  0.95957  1.0000
  O   O55       1.0  0.24852000000000005  0.96695  0.95342  1.0000
  O   O56       1.0  0.21193000000000006  0.054769999999999985  0.04943999999999999  1.0000
  Cu  Cu13      1.0  0.31827  0.04793000000000003  0.00644  1.0000
  Cu  Cu14      1.0  0.22030000000000002  0.005549999999999944  0.0015699999999999996  1.0000
  C   C25       1.0  0.2462  0.08970999999999996  0.06609  1.0000
  C   C26       1.0  0.2958600000000001  0.96926  0.93975  1.0000
  C   C27       1.0  0.24870000000000006  0.09339000000000007  0.94485  1.0000
  C   C28       1.0  0.28533  0.95878  0.06284  1.0000
  O   O57       1.0  0.79497  0.42062  0.44582  1.0000
  O   O58       1.0  0.8107700000000001  0.52451  0.53796  1.0000
  O   O59       1.0  0.8027499999999999  0.4192899999999999  0.53601  1.0000
  O   O60       1.0  0.8067500000000002  0.52359  0.44703  1.0000
  O   O61       1.0  0.72218  0.52693  0.45198  1.0000
  O   O62       1.0  0.71689  0.42014  0.54084  1.0000
  O   O63       1.0  0.72507  0.52557  0.54272  1.0000
  O   O64       1.0  0.7094000000000001  0.42196  0.4509699999999999  1.0000
  Cu  Cu15      1.0  0.8124000000000001  0.47206  0.4915  1.0000
  Cu  Cu16      1.0  0.70981  0.47379  0.49718999999999997  1.0000
  C   C29       1.0  0.7492  0.40402  0.43228  1.0000
  C   C30       1.0  0.7706700000000002  0.54266  0.55618  1.0000
  C   C31       1.0  0.75907  0.40172  0.55342  1.0000
  C   C32       1.0  0.7658100000000001  0.54325  0.43349999999999994  1.0000
  C   C33       1.0  0.20385  0.23065  0.21717999999999996  1.0000
  C   C34       1.0  0.1594  0.2598  0.22221  1.0000
  C   C35       1.0  0.15385  0.29115  0.26232  1.0000
  C   C36       1.0  0.19245  0.29569  0.29697  1.0000
  C   C37       1.0  0.23649  0.26553  0.2919999999999999  1.0000
  C   C38       1.0  0.24173  0.2342  0.25202  1.0000
  H   H1        1.0  0.27562  0.21164999999999998  0.24821  1.0000
  H   H2        1.0  0.11981  0.31346  0.26591  1.0000
  C   C39       1.0  0.7825000000000001  0.69585  0.27962  1.0000
  C   C40       1.0  0.7577899999999999  0.74461  0.28385  1.0000
  C   C41       1.0  0.7639400000000001  0.78208  0.24763  1.0000
  C   C42       1.0  0.79155  0.7716599999999999  0.20704  1.0000
  C   C43       1.0  0.8192  0.7255099999999999  0.20419999999999996  1.0000
  C   C44       1.0  0.81307  0.6873699999999999  0.2398  1.0000
  H   H3        1.0  0.83327  0.65128  0.23693  1.0000
  H   H4        1.0  0.74506  0.81903  0.25003  1.0000
  C   C45       1.0  0.7325500000000001  0.20601999999999998  0.21188999999999997  1.0000
  C   C46       1.0  0.68673  0.16957  0.21416  1.0000
  C   C47       1.0  0.65267  0.17177  0.25223  1.0000
  C   C48       1.0  0.66311  0.20975  0.28799  1.0000
  C   C49       1.0  0.7098400000000001  0.24496999999999997  0.28629  1.0000
  C   C50       1.0  0.74386  0.2425  0.24841  1.0000
  H   H5        1.0  0.77891  0.27036  0.24670999999999996  1.0000
  H   H6        1.0  0.61748  0.14414  0.25377  1.0000
  C   C51       1.0  0.25379  0.7730099999999999  0.21721999999999997  1.0000
  C   C52       1.0  0.30024  0.80873  0.21245  1.0000
  C   C53       1.0  0.33938  0.80859  0.24653  1.0000
  C   C54       1.0  0.33289  0.7751199999999999  0.28554  1.0000
  C   C55       1.0  0.28667  0.7397  0.29011  1.0000
  C   C56       1.0  0.24747000000000002  0.73992  0.25646  1.0000
  H   H7        1.0  0.21201000000000003  0.7130199999999999  0.26034  1.0000
  H   H8        1.0  0.37498  0.83533  0.24303999999999995  1.0000
  C   C57       1.0  0.6769900000000001  0.22372  0.70872  1.0000
  C   C58       1.0  0.7288  0.24983  0.70399  1.0000
  C   C59       1.0  0.76547  0.24238999999999994  0.73898  1.0000
  C   C60       1.0  0.75167  0.21222  0.77884  1.0000
  C   C61       1.0  0.7013400000000001  0.18404999999999996  0.78242  1.0000
  C   C62       1.0  0.66437  0.19097999999999998  0.7477699999999998  1.0000
  H   H9        1.0  0.62536  0.17058  0.75119  1.0000
  H   H10       1.0  0.80495  0.2617  0.73603  1.0000
  C   C63       1.0  0.27015  0.77962  0.79325  1.0000
  C   C64       1.0  0.309  0.82354  0.7881299999999999  1.0000
  C   C65       1.0  0.34075  0.8271  0.74839  1.0000
  C   C66       1.0  0.33554  0.7876  0.7134399999999999  1.0000
  C   C67       1.0  0.29609  0.74393  0.71819  1.0000
  C   C68       1.0  0.2648  0.7401299999999998  0.75839  1.0000
  H   H11       1.0  0.23481000000000002  0.7067599999999998  0.76193  1.0000
  H   H12       1.0  0.37027  0.8608999999999999  0.74487  1.0000
  C   C69       1.0  0.2154  0.23496000000000003  0.79283  1.0000
  C   C70       1.0  0.17752  0.27285  0.79655  1.0000
  C   C71       1.0  0.17477  0.31107  0.7612599999999999  1.0000
  C   C72       1.0  0.20694  0.31093  0.72178  1.0000
  C   C73       1.0  0.24366  0.27226  0.7176  1.0000
  C   C74       1.0  0.24700000000000003  0.23453  0.75292  1.0000
  H   H13       1.0  0.27544  0.20522  0.74981  1.0000
  H   H14       1.0  0.14676  0.34082  0.76424  1.0000
  C   C75       1.0  0.79726  0.69958  0.70573  1.0000
  C   C76       1.0  0.76171  0.7396299999999999  0.7076  1.0000
  C   C77       1.0  0.76291  0.77525  0.74535  1.0000
  C   C78       1.0  0.79965  0.77323  0.78093  1.0000
  C   C79       1.0  0.83683  0.73447  0.77848  1.0000
  C   C80       1.0  0.83525  0.6983699999999999  0.74058  1.0000
  H   H15       1.0  0.86336  0.66867  0.73845  1.0000
  H   H16       1.0  0.7345  0.8047099999999998  0.74722  1.0000
  C   C81       1.0  0.25944  0.17802  0.10492999999999998  1.0000
  C   C82       1.0  0.23305  0.1254  0.10167  1.0000
  C   C83       1.0  0.19604  0.10830999999999999  0.13668  1.0000
  C   C84       1.0  0.18748  0.14248  0.17462  1.0000
  C   C85       1.0  0.21216000000000002  0.19529999999999997  0.17649  1.0000
  C   C86       1.0  0.24978999999999998  0.21201  0.14258  1.0000
  Br  Br1       1.0  0.29224  0.2797  0.14996  1.0000
  Br  Br2       1.0  0.30489  0.20749  0.055699999999999986  1.0000
  Br  Br3       1.0  0.14958  0.11338  0.2281  1.0000
  Br  Br4       1.0  0.16175  0.03568  0.13764  1.0000
  C   C87       1.0  0.75124  0.57366  0.63711  1.0000
  C   C88       1.0  0.77733  0.58319  0.59419  1.0000
  C   C89       1.0  0.81235  0.62998  0.58897  1.0000
  C   C90       1.0  0.8206  0.66704  0.62599  1.0000
  C   C91       1.0  0.7939199999999998  0.65776  0.66843  1.0000
  C   C92       1.0  0.76231  0.60905  0.67481  1.0000
  Br  Br5       1.0  0.73972  0.58725  0.73635  1.0000
  Br  Br6       1.0  0.69994  0.5125  0.64506  1.0000
  Br  Br7       1.0  0.87195  0.72806  0.61998  1.0000
  Br  Br8       1.0  0.84632  0.6456499999999998  0.5301  1.0000
  C   C93       1.0  0.73027  0.82593  0.09971  1.0000
  C   C94       1.0  0.76532  0.87233  0.08903  1.0000
  C   C95       1.0  0.81095  0.88319  0.11739  1.0000
  C   C96       1.0  0.8178699999999999  0.8519099999999997  0.15703  1.0000
  C   C97       1.0  0.78429  0.80546  0.16578999999999997  1.0000
  C   C98       1.0  0.74065  0.79262  0.13711  1.0000
  Br  Br9       1.0  0.6923000000000001  0.73053  0.15124999999999997  1.0000
  Br  Br10      1.0  0.66723  0.80451  0.06443  1.0000
  Br  Br11      1.0  0.86957  0.87664  0.20268  1.0000
  Br  Br12      1.0  0.86447  0.9421199999999998  0.10625  1.0000
  C   C99       1.0  0.1717  0.3797  0.61044  1.0000
  C   C100      1.0  0.20987  0.42423  0.6106599999999999  1.0000
  C   C101      1.0  0.23939999999999995  0.43641  0.65127  1.0000
  C   C102      1.0  0.23402  0.40185  0.68954  1.0000
  C   C103      1.0  0.20297  0.35259  0.68587  1.0000
  C   C104      1.0  0.16880000000000003  0.3434499999999999  0.6478199999999998  1.0000
  Br  Br13      1.0  0.1153  0.28405  0.6484799999999998  1.0000
  Br  Br14      1.0  0.12337000000000002  0.36813  0.55943  1.0000
  Br  Br15      1.0  0.26395000000000013  0.42472000000000004  0.74861  1.0000
  Br  Br16      1.0  0.28534  0.50173  0.65593  1.0000
  C   C105      1.0  0.80578  0.25737  0.10329  1.0000
  C   C106      1.0  0.83839  0.21522  0.09355  1.0000
  C   C107      1.0  0.83158  0.16813999999999998  0.12165  1.0000
  C   C108      1.0  0.80149  0.1682  0.16254999999999997  1.0000
  C   C109      1.0  0.76834  0.20879  0.17093  1.0000
  C   C110      1.0  0.77036  0.25325  0.14102  1.0000
  Br  Br17      1.0  0.7262200000000001  0.31051  0.15341  1.0000
  Br  Br18      1.0  0.80439  0.31993  0.06407  1.0000
  Br  Br19      1.0  0.81355  0.11806  0.211  1.0000
  Br  Br20      1.0  0.86071  0.10134999999999998  0.10634  1.0000
  C   C111      1.0  0.3905600000000001  0.78526  0.5904799999999999  1.0000
  C   C112      1.0  0.44433  0.78414  0.59898  1.0000
  C   C113      1.0  0.46319000000000005  0.79063  0.64471  1.0000
  C   C114      1.0  0.42792  0.79093  0.68224  1.0000
  C   C115      1.0  0.37362  0.79142  0.6738199999999999  1.0000
  C   C116      1.0  0.35626  0.7938599999999999  0.62747  1.0000
  Br  Br21      1.0  0.28835  0.81643  0.61405  1.0000
  Br  Br22      1.0  0.36362  0.77425  0.5285  1.0000
  Br  Br23      1.0  0.45488  0.7883  0.74475  1.0000
  Br  Br24      1.0  0.53737  0.8007699999999999  0.65609  1.0000
  C   C117      1.0  0.15392  0.8104799999999998  0.12877  1.0000
  C   C118      1.0  0.1449  0.7621599999999998  0.10167  1.0000
  C   C119      1.0  0.17113000000000003  0.71668  0.11526  1.0000
  C   C120      1.0  0.20409  0.7195899999999998  0.1544  1.0000
  C   C121      1.0  0.21245  0.76754  0.18057  1.0000
  C   C122      1.0  0.18430000000000002  0.81126  0.16951  1.0000
  Br  Br25      1.0  0.18358  0.8704299999999999  0.21309  1.0000
  Br  Br26      1.0  0.12689  0.87776  0.11228  1.0000
  Br  Br27      1.0  0.23972000000000004  0.6574699999999999  0.17095  1.0000
  Br  Br28      1.0  0.16889  0.65066  0.07872  1.0000
  C   C123      1.0  0.58431  0.28679  0.6263699999999999  1.0000
  C   C124      1.0  0.56315  0.2415  0.59983  1.0000
  C   C125      1.0  0.57889  0.18991999999999998  0.61099  1.0000
  C   C126      1.0  0.61439  0.18418  0.64733  1.0000
  C   C127      1.0  0.63541  0.22934  0.6732099999999999  1.0000
  C   C128      1.0  0.61786  0.27995  0.66415  1.0000
  Br  Br29      1.0  0.63609  0.33923  0.70639  1.0000
  Br  Br30      1.0  0.56993  0.35951  0.61211  1.0000
  Br  Br31      1.0  0.6353900000000001  0.1135  0.65994  1.0000
  Br  Br32      1.0  0.55578  0.12541  0.5757  1.0000
  C   C129      1.0  0.68941  0.05416  0.85175  1.0000
  C   C130      1.0  0.69702  0.07549  0.8969699999999999  1.0000
  C   C131      1.0  0.69618  0.13121  0.90418  1.0000
  C   C132      1.0  0.6849600000000001  0.16411  0.86697  1.0000
  C   C133      1.0  0.68883  0.14516  0.82107  1.0000
  C   C134      1.0  0.68965  0.08923  0.81362  1.0000
  Br  Br33      1.0  0.69454  0.06009  0.75197  1.0000
  Br  Br34      1.0  0.68203  0.97731  0.84145  1.0000
  Br  Br35      1.0  0.65643  0.23106  0.87937  1.0000
  Br  Br36      1.0  0.71476  0.16409  0.96317  1.0000
  C   C135      1.0  0.2455  0.67946  0.40723  1.0000
  C   C136      1.0  0.2653  0.6286  0.40443  1.0000
  C   C137      1.0  0.29177  0.61425  0.3637  1.0000
  C   C138      1.0  0.29617  0.64945  0.32565  1.0000
  C   C139      1.0  0.27863  0.7011799999999998  0.3293  1.0000
  C   C140      1.0  0.25136  0.71512  0.3695  1.0000
  Br  Br37      1.0  0.21710000000000004  0.7805399999999999  0.3711  1.0000
  Br  Br38      1.0  0.21283  0.70211  0.46366  1.0000
  Br  Br39      1.0  0.31927  0.62333  0.26668  1.0000
  Br  Br40      1.0  0.32079  0.54566  0.35858  1.0000
  C   C141      1.0  0.33790000000000003  0.89239  0.9039499999999999  1.0000
  C   C142      1.0  0.30907  0.9371899999999997  0.89902  1.0000
  C   C143      1.0  0.29195  0.95088  0.8546  1.0000
  C   C144      1.0  0.29875  0.91684  0.81653  1.0000
  C   C145      1.0  0.31682  0.8661699999999999  0.82407  1.0000
  C   C146      1.0  0.34018  0.85572  0.86683  1.0000
  Br  Br41      1.0  0.3777  0.7930299999999999  0.87342  1.0000
  Br  Br42      1.0  0.37528000000000006  0.88219  0.96054  1.0000
  Br  Br43      1.0  0.28493999999999997  0.9404399999999999  0.75434  1.0000
  Br  Br44      1.0  0.25998  0.01645999999999992  0.84527  1.0000
  C   C147      1.0  0.77188  0.31978  0.3908  1.0000
  C   C148      1.0  0.74184  0.36443  0.39365  1.0000
  C   C149      1.0  0.7054800000000001  0.37223  0.35814  1.0000
  C   C150      1.0  0.6968800000000002  0.33421999999999996  0.32215  1.0000
  C   C151      1.0  0.7227000000000001  0.28703999999999996  0.3222  1.0000
  C   C152      1.0  0.7628  0.28169  0.35466999999999993  1.0000
  Br  Br45      1.0  0.80775  0.22425  0.34789  1.0000
  Br  Br46      1.0  0.82472  0.30917  0.43652  1.0000
  Br  Br47      1.0  0.65496  0.35023  0.26957  1.0000
  Br  Br48      1.0  0.66973  0.43677  0.35609  1.0000
  C   C153      1.0  0.11724  0.26502  0.91778  1.0000
  C   C154      1.0  0.06376  0.25404  0.90762  1.0000
  C   C155      1.0  0.04723  0.25341  0.86106  1.0000
  C   C156      1.0  0.08417  0.2592  0.82482  1.0000
  C   C157      1.0  0.13798  0.2708  0.83494  1.0000
  C   C158      1.0  0.15341  0.27796  0.88177  1.0000
  Br  Br49      1.0  0.2214  0.31247  0.89705  1.0000
  Br  Br50      1.0  0.14156  0.25945000000000007  0.98046  1.0000
  Br  Br51      1.0  0.06003000000000001  0.24919  0.7616  1.0000
  Br  Br52      1.0  0.9738400000000001  0.24515  0.84654  1.0000
  C   C159      1.0  0.70499  0.75452  0.40751  1.0000
  C   C160      1.0  0.65328  0.76605  0.39945999999999987  1.0000
  C   C161      1.0  0.63776  0.77754  0.35424  1.0000
  C   C162      1.0  0.67054  0.76852  0.31637  1.0000
  C   C163      1.0  0.72278  0.7562299999999998  0.32397  1.0000
  C   C164      1.0  0.74081  0.75512  0.37028  1.0000
  Br  Br53      1.0  0.81452  0.76339  0.38355  1.0000
  Br  Br54      1.0  0.72696  0.73823  0.46925  1.0000
  Br  Br55      1.0  0.64072  0.77058  0.25515  1.0000
  Br  Br56      1.0  0.57231  0.80775  0.34416  1.0000
  C   C165      1.0  0.9139900000000001  0.68923  0.88208  1.0000
  C   C166      1.0  0.9485699999999999  0.7361  0.89063  1.0000
  C   C167      1.0  0.95108  0.77812  0.85762  1.0000
  C   C168      1.0  0.91771  0.7746099999999999  0.81888  1.0000
  C   C169      1.0  0.87804  0.7320699999999999  0.8146599999999999  1.0000
  C   C170      1.0  0.87852  0.6876  0.84462  1.0000
  Br  Br57      1.0  0.83227  0.62316  0.83354  1.0000
  Br  Br58      1.0  0.9138600000000001  0.62644  0.92091  1.0000
  Br  Br59      1.0  0.93148  0.8234599999999999  0.76783  1.0000
  Br  Br60      1.0  0.0020299999999999815  0.8398  0.8626  1.0000
  C   C171      1.0  0.31463  0.21488  0.39136  1.0000
  C   C172      1.0  0.34849  0.26153  0.40348  1.0000
  C   C173      1.0  0.34589  0.30916  0.37678  1.0000
  C   C174      1.0  0.3114  0.30932  0.33886  1.0000
  C   C175      1.0  0.27682999999999996  0.26378  0.32869  1.0000
  C   C176      1.0  0.28022  0.21592  0.35359  1.0000
  Br  Br61      1.0  0.23656000000000002  0.15109  0.33637  1.0000
  Br  Br62      1.0  0.31099  0.1487  0.42660999999999993  1.0000
  Br  Br63      1.0  0.31473000000000007  0.37038  0.29773  1.0000
  Br  Br64      1.0  0.38856  0.37571999999999994  0.39002  1.0000
  C   C177      1.0  0.76573  0.8232499999999999  0.90121  1.0000
  C   C178      1.0  0.77771  0.87928  0.89708  1.0000
  C   C179      1.0  0.80067  0.9003799999999997  0.8557  1.0000
  C   C180      1.0  0.8074100000000001  0.86605  0.8174599999999997  1.0000
  C   C181      1.0  0.7952100000000001  0.8097899999999999  0.82161  1.0000
  C   C182      1.0  0.77308  0.7889099999999999  0.86336  1.0000
  Br  Br65      1.0  0.7447600000000001  0.71473  0.86666  1.0000
  Br  Br66      1.0  0.74076  0.7928599999999999  0.95943  1.0000
  Br  Br67      1.0  0.8271  0.8975699999999999  0.7581899999999998  1.0000
  Br  Br68      1.0  0.82113  0.97655  0.85035  1.0000
  C   C183      1.0  0.20185  0.35579  0.41823999999999995  1.0000
  C   C184      1.0  0.20252  0.41108  0.409  1.0000
  C   C185      1.0  0.19156  0.42808  0.36388  1.0000
  C   C186      1.0  0.18771  0.39067999999999997  0.32695  1.0000
  C   C187      1.0  0.18828  0.33501  0.3360099999999999  1.0000
  C   C188      1.0  0.18943000000000002  0.31804  0.38259999999999994  1.0000
  Br  Br69      1.0  0.16765  0.24460999999999994  0.3985  1.0000
  Br  Br70      1.0  0.21933  0.33146  0.47903  1.0000
  Br  Br71      1.0  0.18541  0.41744  0.26433  1.0000
  Br  Br72      1.0  0.18337  0.50287  0.35228  1.0000
  C   C189      1.0  0.19175000000000003  0.12377  0.88228  1.0000
  C   C190      1.0  0.23913  0.13003  0.9088  1.0000
  C   C191      1.0  0.27851  0.17155999999999996  0.89549  1.0000
  C   C192      1.0  0.27131  0.20376  0.85655  1.0000
  C   C193      1.0  0.22454  0.19692  0.83092  1.0000
  C   C194      1.0  0.18631  0.15517  0.84242  1.0000
  Br  Br73      1.0  0.12911  0.13701  0.80001  1.0000
  Br  Br74      1.0  0.1328  0.07206  0.8972  1.0000
  Br  Br75      1.0  0.32615000000000005  0.25854  0.83874  1.0000
  Br  Br76      1.0  0.34196  0.18989  0.93107  1.0000
  C   C195      1.0  0.72441  0.5963  0.37004  1.0000
  C   C196      1.0  0.7696  0.58379  0.39484  1.0000
  C   C197      1.0  0.8194600000000001  0.6079  0.37989  1.0000
  C   C198      1.0  0.82366  0.64221  0.34116  1.0000
  C   C199      1.0  0.77859  0.65413  0.31687  1.0000
  C   C200      1.0  0.7296000000000001  0.62836  0.32985  1.0000
  Br  Br77      1.0  0.67005  0.63288  0.28974  1.0000
  Br  Br78      1.0  0.65395  0.57352  0.3905999999999999  1.0000
  Br  Br79      1.0  0.89219  0.67447  0.32291  1.0000
  Br  Br80      1.0  0.8837400000000002  0.59889  0.41306  1.0000
  C   C201      1.0  0.19732999999999998  0.7299499999999999  0.90336  1.0000
  C   C202      1.0  0.16160000000000002  0.7698599999999999  0.91001  1.0000
  C   C203      1.0  0.16606999999999997  0.8148899999999999  0.87971  1.0000
  C   C204      1.0  0.19633000000000003  0.81354  0.83903  1.0000
  C   C205      1.0  0.2329  0.77554  0.83345  1.0000
  C   C206      1.0  0.23336999999999997  0.73367  0.86594  1.0000
  Br  Br81      1.0  0.28198  0.67966  0.85804  1.0000
  Br  Br82      1.0  0.2032  0.67346  0.94823  1.0000
  Br  Br83      1.0  0.17904  0.85653  0.78706  1.0000
  Br  Br84      1.0  0.13364000000000004  0.88051  0.89178  1.0000
  C   C207      1.0  0.60117  0.20359999999999998  0.40833  1.0000
  C   C208      1.0  0.55583  0.23  0.40093  1.0000
  C   C209      1.0  0.54308  0.24476999999999996  0.3555  1.0000
  C   C210      1.0  0.57654  0.23518  0.31806  1.0000
  C   C211      1.0  0.62424  0.21302  0.32621  1.0000
  C   C212      1.0  0.63479  0.19437  0.37096  1.0000
  Br  Br85      1.0  0.69173  0.15071  0.38002  1.0000
  Br  Br86      1.0  0.61785  0.1809  0.46985  1.0000
  Br  Br87      1.0  0.5549  0.24894  0.25542  1.0000
  Br  Br88      1.0  0.47855  0.27594  0.34402  1.0000
  C   C213      1.0  0.8521  0.17321  0.86639  1.0000
  C   C214      1.0  0.8517100000000001  0.216  0.8992699999999999  1.0000
  C   C215      1.0  0.81825  0.25705  0.8915199999999999  1.0000
  C   C216      1.0  0.78908  0.25752  0.8505  1.0000
  C   C217      1.0  0.78872  0.21459  0.81851  1.0000
  C   C218      1.0  0.8208700000000001  0.17296  0.82614  1.0000
  Br  Br89      1.0  0.82499  0.11779999999999999  0.77939  1.0000
  Br  Br90      1.0  0.89641  0.11547  0.87404  1.0000
  Br  Br91      1.0  0.7505000000000001  0.31853  0.83813  1.0000
  Br  Br92      1.0  0.80796  0.31151  0.93801  1.0000
  C   C219      1.0  0.4460900000000001  0.7391099999999999  0.35943  1.0000
  C   C220      1.0  0.4444  0.7758  0.39713  1.0000
  C   C221      1.0  0.40948000000000007  0.81631  0.39519  1.0000
  C   C222      1.0  0.37356  0.81671  0.35835  1.0000
  C   C223      1.0  0.37407  0.77864  0.32196  1.0000
  C   C224      1.0  0.41373000000000004  0.7435499999999999  0.32065  1.0000
  Br  Br93      1.0  0.42919  0.70812  0.26321  1.0000
  Br  Br94      1.0  0.49382  0.6835699999999999  0.35885  1.0000
  Br  Br95      1.0  0.3261  0.87191  0.35629  1.0000
  Br  Br96      1.0  0.40934  0.871  0.44304  1.0000
  C   C225      1.0  0.29314  0.8651799999999998  0.09128  1.0000
  C   C226      1.0  0.29501  0.92086  0.10023  1.0000
  C   C227      1.0  0.30562  0.9405  0.14556  1.0000
  C   C228      1.0  0.30965000000000004  0.9042899999999999  0.18237999999999996  1.0000
  C   C229      1.0  0.30700999999999995  0.84821  0.17344  1.0000
  C   C230      1.0  0.30448  0.8300099999999999  0.12693  1.0000
  Br  Br97      1.0  0.32148  0.7586  0.11137  1.0000
  Br  Br98      1.0  0.27126  0.836  0.03158  1.0000
  Br  Br99      1.0  0.3151  0.93246  0.24491  1.0000
  Br  Br100     1.0  0.30971000000000004  0.01692999999999989  0.15811  1.0000
  C   C231      1.0  0.73902  0.30728  0.58156  1.0000
  C   C232      1.0  0.75764  0.36113  0.5903199999999998  1.0000
  C   C233      1.0  0.77576  0.3764  0.6348  1.0000
  C   C234      1.0  0.76599  0.34099  0.67223  1.0000
  C   C235      1.0  0.7447200000000003  0.28698  0.66428  1.0000
  C   C236      1.0  0.73746  0.26948  0.61771  1.0000
  Br  Br101     1.0  0.73384  0.19418999999999997  0.60224  1.0000
  Br  Br102     1.0  0.71681  0.28514  0.52003  1.0000
  Br  Br103     1.0  0.7794900000000001  0.37012  0.73338  1.0000
  Br  Br104     1.0  0.81456  0.4458299999999999  0.64432  1.0000
  C   C237      1.0  0.65533  0.10541  0.09673  1.0000
  C   C238      1.0  0.68079  0.05828  0.10136  1.0000
  C   C239      1.0  0.69397  0.04154  0.1461  1.0000
  C   C240      1.0  0.68834  0.07539  0.18464  1.0000
  C   C241      1.0  0.67504  0.12807  0.17761  1.0000
  C   C242      1.0  0.6543  0.1415  0.13449  1.0000
  Br  Br105     1.0  0.62267  0.20785  0.12798  1.0000
  Br  Br106     1.0  0.61935  0.11841999999999998  0.04015  1.0000
  Br  Br107     1.0  0.69811  0.04963  0.24684  1.0000
  Br  Br108     1.0  0.7192200000000001  0.97239  0.15501  1.0000
  C   C243      1.0  0.22829  0.6674799999999999  0.61739  1.0000
  C   C244      1.0  0.26776  0.63489  0.60175  1.0000
  C   C245      1.0  0.31635  0.63864  0.62597  1.0000
  C   C246      1.0  0.32276  0.6694799999999999  0.66696  1.0000
  C   C247      1.0  0.28474999999999995  0.70333  0.68065  1.0000
  C   C248      1.0  0.23688000000000003  0.7011499999999999  0.65659  1.0000
  Br  Br109     1.0  0.18297  0.74595  0.67647  1.0000
  Br  Br110     1.0  0.16283  0.67102  0.5847  1.0000
  Br  Br111     1.0  0.38153  0.6613999999999999  0.70712  1.0000
  Br  Br112     1.0  0.3770200000000001  0.60521  0.60384  1.0000
  C   C249      1.0  0.8850300000000001  0.7018199999999999  0.08786  1.0000
  C   C250      1.0  0.93467  0.7299199999999999  0.09493  1.0000
  C   C251      1.0  0.94798  0.75033  0.13956  1.0000
  C   C252      1.0  0.91114  0.74545  0.17591999999999997  1.0000
  C   C253      1.0  0.8601200000000001  0.72119  0.16785  1.0000
  C   C254      1.0  0.84844  0.6960799999999999  0.12464  1.0000
  Br  Br113     1.0  0.78484  0.64975  0.11696  1.0000
  Br  Br114     1.0  0.8657300000000002  0.6740499999999999  0.02728  1.0000
  Br  Br115     1.0  0.93195  0.76933  0.23759  1.0000
  Br  Br116     1.0  0.017249999999999995  0.78389  0.15175  1.0000
  C   C255      1.0  0.30029  0.23862  0.59965  1.0000
  C   C256      1.0  0.35028  0.26771  0.60124  1.0000
  C   C257      1.0  0.36509  0.29809  0.64143  1.0000
  C   C258      1.0  0.33039  0.29937  0.67934  1.0000
  C   C259      1.0  0.2802  0.2711  0.67734  1.0000
  C   C260      1.0  0.26635  0.23872999999999997  0.63821  1.0000
  Br  Br117     1.0  0.20389  0.18939  0.63959  1.0000
  Br  Br118     1.0  0.27691  0.19987  0.54416  1.0000
  Br  Br119     1.0  0.35451  0.33482  0.73593  1.0000
  Br  Br120     1.0  0.43439000000000005  0.33493  0.64673  1.0000
  C   C261      1.0  0.03880999999999999  0.22146  0.14945  1.0000
  C   C262      1.0  0.04909  0.25413  0.10999  1.0000
  C   C263      1.0  0.09136  0.29471  0.11103999999999999  1.0000
  C   C264      1.0  0.1273  0.29679  0.14793  1.0000
  C   C265      1.0  0.11964  0.26037  0.18506  1.0000
  C   C266      1.0  0.07265  0.22664  0.1878  1.0000
  Br  Br121     1.0  0.05137  0.19297  0.24586999999999995  1.0000
  Br  Br122     1.0  0.97628  0.17253999999999997  0.15302  1.0000
  Br  Br123     1.0  0.18434  0.35272999999999993  0.14951  1.0000
  Br  Br124     1.0  0.09981  0.34872  0.06324  1.0000
  C   C267      1.0  0.69827  0.79032  0.59948  1.0000
  C   C268      1.0  0.65159  0.75529  0.59708  1.0000
  C   C269      1.0  0.64015  0.71721  0.63287  1.0000
  C   C270      1.0  0.6744200000000001  0.71526  0.67059  1.0000
  C   C271      1.0  0.72324  0.74592  0.67018  1.0000
  C   C272      1.0  0.73411  0.7851499999999999  0.63567  1.0000
  Br  Br125     1.0  0.79614  0.83503  0.64014  1.0000
  Br  Br126     1.0  0.71477  0.84501  0.55311  1.0000
  Br  Br127     1.0  0.65068  0.6776  0.72605  1.0000
  Br  Br128     1.0  0.57645  0.66894  0.63279  1.0000
