data_image0
_chemical_formula_structural       C4HC2H3C3HCHC7H2CH4C4HC2HCHC3H2CHC5HCH2C2O2CO4Ni2ONiO3HOHC2O2CH2CHCH2C4H2CHC3H2CH2C6HCHC2H2CH5CHC2HCH3CHC2H2CH2CH2C4HC2H2CHC2HCHC2H2C4H2C2H2CHCOHCOHO5Ni3O3HOCOCHOCHCH2C4H2C3H2C2H2C2HCHCHCHCH2CHC3H2C3HCHC3HCHCHCHC3H2CH2CO2CHONiO3CHC2HC2HC4HC2HCH3C2NiC3HC3HC2HC2H2OCOCH2OCH3CNiH2OCHOH3CH3CH3COH2CHC2HCHCHC2H2C6HCH2C6H2CH3OHNiOHC2HC2H2C2HC3H4C2HOCH3C3HCHCHCH3C2HC3H3CHC2HCONiO3CHC2HC2H2C2H3C3HC2H2C2HC2H2C3HC3H3CHC3HC7H2CO2COCO3Ni3O3HOH2CHO3C4HC5HC2H5C4H2C2HC2H2C3HCH3CHCHC2HCH3C2HCHCH3CO3NiO2H2OHOC2HC3HCHCH4C2HC2H2CHCH2C2HC3HCHC2H2C3HCH4C2HC8OCO2CH3O3HNi3O3HO4HC3HC5HCHC2HCH2C6H5
_chemical_formula_sum              "C336 H270 O78 Ni18"
_cell_length_a       12.37999
_cell_length_b       12.197449999999998
_cell_length_c       87.48364
_cell_angle_alpha    90.16123
_cell_angle_beta     90.15362
_cell_angle_gamma    119.40815000000002

_space_group_name_H-M_alt    "P 1"
_space_group_IT_number       1

loop_
  _space_group_symop_operation_xyz
  'x, y, z'

loop_
  _atom_site_type_symbol
  _atom_site_label
  _atom_site_symmetry_multiplicity
  _atom_site_fract_x
  _atom_site_fract_y
  _atom_site_fract_z
  _atom_site_occupancy
  C   C1        1.0  0.60957  0.64891  0.00239  1.0000
  C   C2        1.0  0.13972  0.67702  0.00559  1.0000
  C   C3        1.0  0.6389099999999999  0.57629  0.012199999999999999  1.0000
  C   C4        1.0  0.5735  0.11925  0.008889999999999999  1.0000
  H   H1        1.0  0.011240000000000014  0.35957  0.009999999999999998  1.0000
  C   C5        1.0  0.0533  0.45836000000000005  0.013009999999999999  1.0000
  C   C6        1.0  0.16063999999999995  0.71334  0.020949999999999996  1.0000
  H   H2        1.0  0.20035000000000008  0.8118400000000001  0.02396  1.0000
  H   H3        1.0  0.6311299999999997  0.51067  0.03517  1.0000
  H   H4        1.0  0.3758899999999999  0.00523  0.012179999999999998  1.0000
  C   C7        1.0  0.4658499999999999  0.05505000000000001  0.01769  1.0000
  C   C8        1.0  0.6982399999999999  0.18145  0.03206  1.0000
  C   C9        1.0  0.55914  0.72071  0.00844  1.0000
  H   H5        1.0  0.5365999999999999  0.7774400000000001  0.00098  1.0000
  C   C10       1.0  0.61219  0.57044  0.027779999999999992  1.0000
  H   H6        1.0  0.78851  0.22967  0.03753  1.0000
  C   C11       1.0  0.6894299999999999  0.18519  0.01616  1.0000
  C   C12       1.0  0.07475  0.49476  0.028379999999999992  1.0000
  C   C13       1.0  0.12661999999999995  0.62226  0.032409999999999994  1.0000
  C   C14       1.0  0.53244  0.71479  0.024029999999999996  1.0000
  C   C15       1.0  0.4745699999999999  0.0515  0.0336  1.0000
  C   C16       1.0  0.55582  0.63696  0.03366999999999999  1.0000
  C   C17       1.0  0.5911499999999998  0.11149  0.04081  1.0000
  H   H7        1.0  0.04990000000000003  0.42393  0.03715  1.0000
  H   H8        1.0  0.49065  0.768  0.028529999999999996  1.0000
  C   C18       1.0  0.14311999999999994  0.66026  0.04863  1.0000
  H   H9        1.0  0.34229999999999994  0.77408  0.04712  1.0000
  H   H10       1.0  0.31858  0.50482  0.0433  1.0000
  H   H11       1.0  0.3911899999999998  0.999  0.04028  1.0000
  H   H12       1.0  0.7096099999999999  0.99585  0.05303  1.0000
  C   C19       1.0  0.26202999999999993  0.7407200000000002  0.05445999999999999  1.0000
  C   C20       1.0  0.3847299999999999  0.54442  0.05261999999999999  1.0000
  C   C21       1.0  0.5117999999999999  0.61668  0.04957  1.0000
  C   C22       1.0  0.6021199999999999  0.08885  0.05715  1.0000
  H   H13       1.0  0.94749  0.55544  0.053849999999999995  1.0000
  C   C23       1.0  0.6636999999999998  0.0233  0.061519999999999984  1.0000
  C   C24       1.0  0.03991999999999999  0.61648  0.058289999999999995  1.0000
  H   H14       1.0  0.49731000000000003  0.17669  0.06503  1.0000
  C   C25       1.0  0.59681  0.6661400000000001  0.06169999999999999  1.0000
  H   H15       1.0  0.6952399999999999  0.72124  0.05942999999999998  1.0000
  C   C26       1.0  0.27818  0.7743600000000002  0.06989  1.0000
  C   C27       1.0  0.3424899999999999  0.52463  0.06769  1.0000
  C   C28       1.0  0.54364  0.12447000000000001  0.06826999999999998  1.0000
  H   H16       1.0  0.24382999999999996  0.4707200000000001  0.06986  1.0000
  H   H17       1.0  0.37089999999999995  0.8300800000000002  0.07442  1.0000
  C   C29       1.0  0.66166  0.98812  0.07673  1.0000
  H   H18       1.0  0.7077799999999999  0.9355200000000001  0.07986  1.0000
  C   C30       1.0  0.05596999999999995  0.65092  0.07374  1.0000
  C   C31       1.0  0.17535999999999996  0.7294100000000001  0.07964  1.0000
  C   C32       1.0  0.42713000000000007  0.5771400000000001  0.07986999999999998  1.0000
  C   C33       1.0  0.55481  0.6458900000000001  0.07679  1.0000
  C   C34       1.0  0.54047  0.08819  0.0835  1.0000
  H   H19       1.0  0.9758699999999999  0.61552  0.08114  1.0000
  C   C35       1.0  0.5948  0.01483  0.08768  1.0000
  H   H20       1.0  0.62131  0.6863900000000001  0.08605  1.0000
  H   H21       1.0  0.49018999999999996  0.11135  0.09183  1.0000
  C   C36       1.0  0.19417999999999996  0.7533800000000002  0.09619  1.0000
  C   C37       1.0  0.38169999999999993  0.57119  0.09561  1.0000
  O   O1        1.0  0.26785999999999993  0.55002  0.09778  1.0000
  O   O2        1.0  0.28474  0.86154  0.10121999999999998  1.0000
  C   C38       1.0  0.56491  0.9492300000000002  0.10254999999999999  1.0000
  O   O3        1.0  0.5839299999999998  0.85334  0.10450999999999999  1.0000
  O   O4        1.0  0.12808  0.6624800000000001  0.10581  1.0000
  O   O5        1.0  0.4529899999999999  0.58184  0.10730999999999999  1.0000
  O   O6        1.0  0.524  0.98944  0.11390999999999997  1.0000
  Ni  Ni1       1.0  0.20606000000000002  0.58005  0.11798999999999997  1.0000
  Ni  Ni2       1.0  0.3516999999999999  0.8825300000000001  0.12265999999999999  1.0000
  O   O7        1.0  0.35702999999999996  0.72832  0.12329999999999999  1.0000
  Ni  Ni3       1.0  0.5100999999999999  0.72998  0.12268999999999997  1.0000
  O   O8        1.0  0.26112  0.46627  0.12863  1.0000
  O   O9        1.0  0.17937  0.80616  0.13192  1.0000
  O   O10       1.0  0.12348  0.59863  0.13696  1.0000
  H   H22       1.0  0.3452999999999999  0.7154  0.13434  1.0000
  O   O11       1.0  0.5876399999999999  0.8809600000000001  0.13817  1.0000
  H   H23       1.0  0.8897999999999998  0.52792  0.14389999999999997  1.0000
  C   C39       1.0  0.13315  0.70787  0.14126  1.0000
  C   C40       1.0  0.33595999999999987  0.50069  0.14072  1.0000
  O   O12       1.0  0.4508999999999999  0.59632  0.13992999999999997  1.0000
  O   O13       1.0  0.4327499999999999  0.92898  0.14369  1.0000
  C   C41       1.0  0.52005  0.90259  0.14822  1.0000
  H   H24       1.0  0.08137999999999998  0.24049  0.14124  1.0000
  H   H25       1.0  0.48319999999999996  0.45328  0.15957  1.0000
  C   C42       1.0  0.8991899999999997  0.50377  0.15588  1.0000
  H   H26       1.0  0.9206699999999998  0.42573  0.15599  1.0000
  C   C43       1.0  0.29864999999999997  0.42031  0.15449999999999997  1.0000
  H   H27       1.0  0.74451  0.04324  0.16132  1.0000
  H   H28       1.0  0.8077399999999999  0.47049  0.16143  1.0000
  C   C44       1.0  0.09188000000000002  0.72056  0.15676  1.0000
  C   C45       1.0  0.39115  0.42233  0.16405  1.0000
  C   C46       1.0  0.9982999999999997  0.6150800000000001  0.1645  1.0000
  C   C47       1.0  0.06709  0.30272  0.1493  1.0000
  H   H29       1.0  0.2284199999999999  0.91739  0.1588  1.0000
  H   H30       1.0  0.31655  0.7125  0.15953  1.0000
  C   C48       1.0  0.5506699999999999  0.91058  0.16463  1.0000
  H   H31       1.0  0.0551  0.37311  0.1427  1.0000
  C   C49       1.0  0.6721299999999999  0.99223  0.16962  1.0000
  C   C50       1.0  0.17623  0.36628  0.16004  1.0000
  C   C51       1.0  0.1594599999999999  0.83482  0.16474  1.0000
  H   H32       1.0  0.5388899999999999  0.38503  0.18233  1.0000
  H   H33       1.0  0.9795599999999998  0.24336  0.15557  1.0000
  C   C52       1.0  0.34957999999999995  0.71409  0.17123999999999998  1.0000
  H   H34       1.0  0.3779799999999999  0.64142  0.17226999999999998  1.0000
  H   H35       1.0  0.8987599999999999  0.1058  0.18050999999999998  1.0000
  C   C53       1.0  0.36655999999999994  0.39013  0.17954999999999996  1.0000
  C   C54       1.0  0.45813  0.83939  0.17548  1.0000
  C   C55       1.0  0.9922999999999997  0.61764  0.18049  1.0000
  C   C56       1.0  0.1565  0.35334  0.17584999999999998  1.0000
  C   C57       1.0  0.25148999999999994  0.36597  0.18572  1.0000
  C   C58       1.0  0.14395  0.84115  0.18057  1.0000
  H   H36       1.0  0.4204499999999999  0.29239  0.19581  1.0000
  C   C59       1.0  0.46294999999999986  0.38219  0.18936  1.0000
  H   H37       1.0  0.2706399999999999  0.68907  0.17907  1.0000
  C   C60       1.0  0.8346499999999999  0.06962  0.19037999999999997  1.0000
  C   C61       1.0  0.7010499999999998  0.00467  0.1853  1.0000
  H   H38       1.0  0.9273999999999998  0.53351  0.18655999999999998  1.0000
  H   H39       1.0  0.7625599999999999  0.73211  0.20581  1.0000
  C   C62       1.0  0.06286000000000003  0.73036  0.18859  1.0000
  H   H40       1.0  0.50437  0.4622800000000001  0.19752999999999996  1.0000
  H   H41       1.0  0.8537099999999999  0.00146  0.1965  1.0000
  H   H42       1.0  0.25703999999999994  0.04522  0.18097  1.0000
  H   H43       1.0  0.06551  0.32642  0.18039999999999998  1.0000
  H   H44       1.0  0.7861  0.62175  0.19475  1.0000
  C   C63       1.0  0.48285  0.8690900000000001  0.19097999999999998  1.0000
  H   H45       1.0  0.0999  0.13906  0.19714999999999996  1.0000
  C   C64       1.0  0.22039999999999998  0.96411  0.18894  1.0000
  C   C65       1.0  0.6042  0.9466500000000001  0.19605999999999996  1.0000
  H   H46       1.0  0.8548199999999999  0.15  0.19805999999999999  1.0000
  C   C66       1.0  0.83349  0.71744  0.19988999999999996  1.0000
  H   H47       1.0  0.16360999999999998  0.97924  0.19759  1.0000
  H   H48       1.0  0.4097399999999999  0.82141  0.19925  1.0000
  H   H49       1.0  0.87357  0.7889200000000001  0.1907  1.0000
  C   C67       1.0  0.22311  0.3344  0.20206  1.0000
  H   H50       1.0  0.4113399999999999  0.5916  0.20179  1.0000
  C   C68       1.0  0.14372  0.2094  0.20605999999999997  1.0000
  C   C69       1.0  0.04275999999999993  0.73404  0.20526  1.0000
  H   H51       1.0  0.2998500000000001  0.9633900000000001  0.19474  1.0000
  H   H52       1.0  0.59689  0.7624300000000002  0.21344999999999997  1.0000
  C   C70       1.0  0.9338899999999999  0.7299400000000001  0.21077  1.0000
  H   H53       1.0  0.2619  0.58259  0.20334  1.0000
  H   H54       1.0  0.9837399999999997  0.98343  0.21527999999999994  1.0000
  C   C71       1.0  0.63043  0.9531300000000001  0.21263  1.0000
  H   H55       1.0  0.7083099999999999  0.21605  0.20617999999999997  1.0000
  H   H56       1.0  0.2158  0.74385  0.21139  1.0000
  C   C72       1.0  0.13411  0.74447  0.21562  1.0000
  C   C73       1.0  0.27132  0.42830000000000007  0.21355  1.0000
  C   C74       1.0  0.33086  0.56522  0.20938999999999997  1.0000
  C   C75       1.0  0.6237  0.84777  0.21991999999999998  1.0000
  H   H57       1.0  0.54217  0.12238000000000002  0.20856  1.0000
  C   C76       1.0  0.11647  0.17527  0.22138999999999998  1.0000
  C   C77       1.0  0.9206699999999998  0.74211  0.22648999999999997  1.0000
  H   H58       1.0  0.36376999999999987  0.62696  0.21964  1.0000
  H   H59       1.0  0.5498999999999999  0.64617  0.23668999999999998  1.0000
  C   C78       1.0  0.00852  0.04891000000000001  0.22512  1.0000
  H   H60       1.0  0.9271499999999998  0.059800000000000006  0.22793999999999995  1.0000
  C   C79       1.0  0.6332399999999999  0.16238  0.21449999999999997  1.0000
  C   C80       1.0  0.64956  0.05827000000000001  0.22143  1.0000
  H   H61       1.0  0.8383499999999998  0.74219  0.23056999999999994  1.0000
  C   C81       1.0  0.2533299999999999  0.39258999999999994  0.22902999999999996  1.0000
  H   H62       1.0  0.03083  0.005740000000000002  0.23477  1.0000
  C   C82       1.0  0.64631  0.85074  0.23566  1.0000
  C   C83       1.0  0.6052199999999999  0.72935  0.24413999999999997  1.0000
  H   H63       1.0  0.68633  0.72336  0.24836999999999998  1.0000
  H   H64       1.0  0.63579  0.22903  0.22335999999999998  1.0000
  C   C84       1.0  0.12092999999999998  0.75665  0.23139999999999997  1.0000
  C   C85       1.0  0.018000000000000065  0.76688  0.23673  1.0000
  C   C86       1.0  0.17938999999999994  0.26565  0.233  1.0000
  C   C87       1.0  0.6845399999999999  0.06552000000000001  0.23683  1.0000
  H   H65       1.0  0.26123  0.70527  0.23696999999999996  1.0000
  H   H66       1.0  0.2968799999999999  0.46322  0.23792  1.0000
  C   C88       1.0  0.69473  0.96638  0.24356999999999998  1.0000
  C   C89       1.0  0.21337  0.75237  0.2423  1.0000
  H   H67       1.0  0.5460699999999998  0.72363  0.25397  1.0000
  H   H68       1.0  0.7104699999999999  0.15081  0.24332999999999994  1.0000
  C   C90       1.0  0.17871999999999993  0.22553000000000004  0.24892  1.0000
  H   H69       1.0  0.16637999999999997  0.6976200000000001  0.25268  1.0000
  C   C91       1.0  0.014749999999999992  0.81514  0.25234  1.0000
  O   O14       1.0  0.22303999999999996  0.14843  0.25186  1.0000
  H   H70       1.0  0.2848  0.8495  0.24551999999999996  1.0000
  C   C92       1.0  0.78401  0.99589  0.25626  1.0000
  O   O15       1.0  0.8780599999999998  0.11268  0.25736  1.0000
  H   H71       1.0  0.00949  0.01957  0.26063  1.0000
  O   O16       1.0  0.14490999999999998  0.27555  0.26017999999999997  1.0000
  O   O17       1.0  0.9061899999999998  0.7962600000000001  0.25766  1.0000
  O   O18       1.0  0.11801999999999996  0.8724099999999999  0.26079  1.0000
  O   O19       1.0  0.7586499999999999  0.9126100000000003  0.26744  1.0000
  O   O20       1.0  0.023140000000000004  0.028150000000000005  0.27173  1.0000
  Ni  Ni4       1.0  0.18305999999999994  0.04663  0.27207  1.0000
  Ni  Ni5       1.0  0.0005300000000000045  0.17056000000000002  0.27459  1.0000
  Ni  Ni6       1.0  0.8849799999999999  0.87212  0.2772899999999999  1.0000
  O   O21       1.0  0.27185999999999994  0.21959  0.28337  1.0000
  O   O22       1.0  0.97994  0.79352  0.28698  1.0000
  O   O23       1.0  0.8551399999999999  0.09902  0.28907999999999995  1.0000
  H   H72       1.0  0.32825999999999994  0.50702  0.29511  1.0000
  O   O24       1.0  0.11124999999999997  0.23943  0.29321  1.0000
  C   C93       1.0  0.21965999999999997  0.24577000000000002  0.29484  1.0000
  O   O25       1.0  0.16623  0.96257  0.29317  1.0000
  C   C94       1.0  0.07086999999999999  0.85397  0.29678  1.0000
  H   H73       1.0  0.2727899999999999  0.81356  0.29918  1.0000
  O   O26       1.0  0.8656999999999998  0.9288800000000001  0.29818  1.0000
  C   C95       1.0  0.84309  0.02256  0.30037  1.0000
  H   H74       1.0  0.18900999999999996  0.47440000000000004  0.30545  1.0000
  C   C96       1.0  0.28801  0.50018  0.30663  1.0000
  H   H75       1.0  0.33886  0.59483  0.31202  1.0000
  H   H76       1.0  0.92077  0.28089  0.3068199999999999  1.0000
  C   C97       1.0  0.28639  0.29204  0.30948999999999993  1.0000
  C   C98       1.0  0.06518  0.79888  0.31195999999999996  1.0000
  C   C99       1.0  0.2987399999999999  0.4032299999999999  0.31618999999999997  1.0000
  C   C100      1.0  0.29222999999999993  0.85415  0.3109  1.0000
  H   H77       1.0  0.34673999999999994  0.95817  0.31025  1.0000
  H   H78       1.0  0.6406599999999999  0.8282800000000001  0.31227  1.0000
  C   C101      1.0  0.7782699999999998  0.02424  0.31444  1.0000
  C   C102      1.0  0.17333  0.81463  0.31949999999999995  1.0000
  C   C103      1.0  0.30933  0.21021000000000006  0.31842  1.0000
  H   H79       1.0  0.30549999999999994  0.12801  0.3131999999999999  1.0000
  H   H80       1.0  0.34998  0.8200700000000001  0.31672  1.0000
  C   C104      1.0  0.67744  0.91137  0.31949999999999995  1.0000
  C   C105      1.0  0.9320499999999998  0.25667  0.31869999999999993  1.0000
  H   H81       1.0  0.017670000000000005  0.24951  0.31977  1.0000
  H   H82       1.0  0.86717  0.7212000000000001  0.31356  1.0000
  C   C106      1.0  0.9507099999999998  0.73611  0.31941  1.0000
  C   C107      1.0  0.8220299999999998  0.13439  0.32354  1.0000
  H   H83       1.0  0.9427299999999997  0.33584  0.32598999999999995  1.0000
  C   C108      1.0  0.31271999999999994  0.41967000000000004  0.33208  1.0000
  H   H84       1.0  0.31478  0.50099  0.3373499999999999  1.0000
  C   C109      1.0  0.32726  0.22862  0.33429999999999993  1.0000
  H   H85       1.0  0.50362  0.7023  0.33135999999999993  1.0000
  C   C110      1.0  0.9433399999999998  0.69437  0.33444999999999997  1.0000
  H   H86       1.0  0.054240000000000045  0.5059800000000001  0.3422  1.0000
  C   C111      1.0  0.16783  0.78667  0.33513  1.0000
  H   H87       1.0  0.20984000000000003  0.58815  0.34998  1.0000
  H   H88       1.0  0.25219999999999987  0.80953  0.34134999999999993  1.0000
  C   C112      1.0  0.32221999999999995  0.33072  0.34125  1.0000
  H   H89       1.0  0.37350999999999995  0.07922000000000001  0.33664  1.0000
  C   C113      1.0  0.05325000000000005  0.7254200000000001  0.34263999999999994  1.0000
  C   C114      1.0  0.11039999999999996  0.52855  0.35281  1.0000
  C   C115      1.0  0.34375  0.13488  0.3438  1.0000
  H   H90       1.0  0.09619999999999997  0.43832000000000004  0.35766  1.0000
  H   H91       1.0  0.9953099999999998  0.83045  0.36603  1.0000
  C   C116      1.0  0.017009999999999956  0.75887  0.36982  1.0000
  C   C117      1.0  0.04893000000000001  0.69414  0.35907  1.0000
  C   C118      1.0  0.07369000000000002  0.59824  0.36402  1.0000
  H   H92       1.0  0.13655999999999993  0.18882  0.36067  1.0000
  C   C119      1.0  0.07637  0.57649  0.37971  1.0000
  H   H93       1.0  0.10513  0.51034  0.38357  1.0000
  C   C120      1.0  0.21475999999999995  0.26601  0.3663999999999999  1.0000
  C   C121      1.0  0.20832999999999993  0.28679  0.38209  1.0000
  C   C122      1.0  0.32255  0.34346  0.35814  1.0000
  H   H94       1.0  0.25472  0.06905  0.34937  1.0000
  C   C123      1.0  0.42644  0.43968  0.36581  1.0000
  H   H95       1.0  0.33777  0.9928  0.37554999999999994  1.0000
  C   C124      1.0  0.41545999999999994  0.46828  0.38106999999999996  1.0000
  H   H96       1.0  0.2987600000000001  0.8425700000000002  0.38352999999999987  1.0000
  C   C125      1.0  0.013730000000000055  0.73214  0.38543  1.0000
  H   H97       1.0  0.06914  0.09503  0.3866199999999999  1.0000
  C   C126      1.0  0.055080000000000004  0.64907  0.3904499999999999  1.0000
  C   C127      1.0  0.30525  0.39555000000000007  0.3891  1.0000
  C   C128      1.0  0.10039  0.19080000000000003  0.39124  1.0000
  H   H98       1.0  0.022439999999999998  0.21127  0.39064  1.0000
  H   H99       1.0  0.8971799999999998  0.81047  0.39186  1.0000
  C   C129      1.0  0.9736899999999998  0.79862  0.3967099999999999  1.0000
  H   H100      1.0  0.053289999999999976  0.89263  0.39948999999999996  1.0000
  H   H101      1.0  0.12643999999999994  0.18952  0.40336  1.0000
  C   C130      1.0  0.10863999999999999  0.66385  0.40578999999999993  1.0000
  O   O27       1.0  0.18192000000000003  0.42934000000000005  0.40801  1.0000
  O   O28       1.0  0.19716000000000003  0.7771900000000002  0.41006  1.0000
  C   C131      1.0  0.29012  0.4387  0.40433  1.0000
  H   H102      1.0  0.9383799999999998  0.74362  0.40741  1.0000
  O   O29       1.0  0.05648000000000003  0.56946  0.4156599999999999  1.0000
  Ni  Ni7       1.0  0.15238999999999997  0.50147  0.42747  1.0000
  O   O30       1.0  0.21926  0.40458  0.4395  1.0000
  O   O31       1.0  0.10119  0.54119  0.44747999999999993  1.0000
  O   O32       1.0  0.16045999999999994  0.74584  0.44186  1.0000
  C   C132      1.0  0.13293999999999995  0.65607  0.4519399999999999  1.0000
  H   H103      1.0  0.9125999999999999  0.58933  0.4654  1.0000
  C   C133      1.0  0.11151999999999997  0.67608  0.4679  1.0000
  C   C134      1.0  0.9895299999999996  0.6212  0.47335999999999995  1.0000
  H   H104      1.0  0.13600999999999996  0.43910000000000005  0.47128999999999993  1.0000
  C   C135      1.0  0.9659399999999999  0.59692  0.48896  1.0000
  C   C136      1.0  0.06424000000000007  0.6271100000000001  0.49918  1.0000
  H   H105      1.0  0.9605899999999999  0.38378  0.50793  1.0000
  C   C137      1.0  0.9869999999999998  0.44875  0.51748  1.0000
  C   C138      1.0  0.03888999999999999  0.57834  0.5149  1.0000
  C   C139      1.0  0.9700399999999998  0.40275000000000005  0.5323899999999999  1.0000
  C   C140      1.0  0.07229999999999999  0.6615000000000001  0.52735  1.0000
  H   H106      1.0  0.11273000000000008  0.7617200000000001  0.5254499999999999  1.0000
  C   C141      1.0  0.9986399999999998  0.48516  0.54488  1.0000
  C   C142      1.0  0.05132999999999999  0.61517  0.54227  1.0000
  H   H107      1.0  0.07326000000000009  0.67989  0.5517899999999999  1.0000
  C   C143      1.0  0.04367  0.48993  0.57288  1.0000
  H   H108      1.0  0.13861999999999994  0.56229  0.5709  1.0000
  H   H109      1.0  0.06260000000000002  0.50642  0.59736  1.0000
  H   H110      1.0  0.08066000000000001  0.4887600000000001  0.65756  1.0000
  C   C144      1.0  0.07974999999999997  0.23849  0.73451  1.0000
  C   C145      1.0  0.06198  0.16099  0.7480799999999999  1.0000
  Ni  Ni8       1.0  0.015430000000000024  0.80212  0.7740399999999998  1.0000
  C   C146      1.0  0.05626999999999997  0.19378  0.79267  1.0000
  C   C147      1.0  0.07890999999999995  0.44348  0.6814199999999999  1.0000
  C   C148      1.0  0.11407000000000002  0.42002000000000006  0.86314  1.0000
  H   H111      1.0  0.12421999999999998  0.43305  0.88781  1.0000
  C   C149      1.0  0.04373  0.3981700000000001  0.72268  1.0000
  C   C150      1.0  0.10173999999999996  0.52378  0.9587899999999998  1.0000
  C   C151      1.0  0.046539999999999984  0.51009  0.9856099999999998  1.0000
  H   H112      1.0  0.19732999999999995  0.10234  0.72554  1.0000
  C   C152      1.0  0.061380000000000004  0.34269  0.7357699999999999  1.0000
  C   C153      1.0  0.0025599999999999785  0.49535  0.7245  1.0000
  H   H113      1.0  0.051310000000000064  0.3745500000000001  0.7469999999999999  1.0000
  C   C154      1.0  0.10081999999999997  0.38341000000000003  0.8083699999999999  1.0000
  C   C155      1.0  0.10618999999999994  0.43638  0.8228199999999998  1.0000
  H   H114      1.0  0.21384999999999996  0.32692  0.85503  1.0000
  H   H115      1.0  0.17223999999999995  0.55496  0.9500199999999999  1.0000
  O   O33       1.0  0.14088  0.20774  0.7595  1.0000
  C   C156      1.0  0.13692  0.54463  0.9741999999999998  1.0000
  O   O34       1.0  0.10979000000000005  0.8316500000000002  0.7937699999999999  1.0000
  C   C157      1.0  0.08374  0.54919  0.0015799999999999998  1.0000
  H   H116      1.0  0.03691999999999994  0.5646  0.71507  1.0000
  H   H117      1.0  0.038209999999999994  0.54841  0.73537  1.0000
  O   O35       1.0  0.16152  0.19202  0.7904699999999999  1.0000
  C   C158      1.0  0.23091999999999993  0.41238  0.8614699999999998  1.0000
  H   H118      1.0  0.09111000000000005  0.4387400000000001  0.78521  1.0000
  H   H119      1.0  0.15073  0.53781  0.82412  1.0000
  H   H120      1.0  0.24172  0.44583  0.6727299999999999  1.0000
  C   C159      1.0  0.21709000000000003  0.49341000000000007  0.68179  1.0000
  Ni  Ni9       1.0  0.188  0.10098000000000001  0.77277  1.0000
  H   H121      1.0  0.15333999999999998  0.08537  0.81605  1.0000
  H   H122      1.0  0.16352  0.7478  0.9968299999999999  1.0000
  O   O36       1.0  0.17497  0.84036  0.7632199999999998  1.0000
  C   C160      1.0  0.15890999999999994  0.46795  0.7947799999999999  1.0000
  H   H123      1.0  0.27063  0.40988  0.8727699999999999  1.0000
  O   O37       1.0  0.21477999999999997  0.030000000000000002  0.75348  1.0000
  H   H124      1.0  0.2994200000000001  0.49657000000000007  0.8551899999999999  1.0000
  H   H125      1.0  0.26588999999999996  0.59609  0.67949  1.0000
  H   H126      1.0  0.25231  0.47833000000000003  0.69278  1.0000
  C   C161      1.0  0.21274999999999994  0.9389  0.79697  1.0000
  H   H127      1.0  0.23436999999999997  0.59171  0.9772399999999998  1.0000
  H   H128      1.0  0.18875000000000003  0.56776  0.79757  1.0000
  H   H129      1.0  0.23379999999999987  0.72374  0.7426899999999999  1.0000
  C   C162      1.0  0.23351  0.93332  0.7534699999999998  1.0000
  H   H130      1.0  0.14824999999999994  0.73377  0.6972199999999998  1.0000
  H   H131      1.0  0.13049999999999992  0.84393  0.68541  1.0000
  H   H132      1.0  0.24150999999999995  0.46213  0.7909999999999999  1.0000
  C   C163      1.0  0.24839999999999995  0.12730999999999998  0.82065  1.0000
  O   O38       1.0  0.27063  0.026920000000000003  0.78634  1.0000
  H   H133      1.0  0.25173  0.17853  0.8313199999999998  1.0000
  H   H134      1.0  0.19831999999999989  0.89227  0.7039599999999999  1.0000
  C   C164      1.0  0.19221  0.83404  0.69388  1.0000
  H   H135      1.0  0.24991999999999995  0.63283  0.7090599999999999  1.0000
  C   C165      1.0  0.2943399999999999  0.80837  0.7364399999999999  1.0000
  C   C166      1.0  0.27856999999999993  0.9471400000000001  0.81135  1.0000
  H   H136      1.0  0.31405999999999995  0.19581000000000004  0.81233  1.0000
  C   C167      1.0  0.18655999999999995  0.69135  0.49388999999999994  1.0000
  H   H137      1.0  0.30898999999999993  0.60954  0.72689  1.0000
  C   C168      1.0  0.3172  0.92625  0.74191  1.0000
  H   H138      1.0  0.32563  0.80613  0.8043699999999999  1.0000
  C   C169      1.0  0.28256999999999993  0.02659  0.82337  1.0000
  C   C170      1.0  0.20511000000000001  0.41725000000000007  0.4755899999999999  1.0000
  H   H139      1.0  0.16520999999999997  0.28678000000000003  0.52159  1.0000
  H   H140      1.0  0.16749999999999998  0.43793  0.49905  1.0000
  C   C171      1.0  0.21009000000000005  0.7180600000000001  0.47834999999999994  1.0000
  C   C172      1.0  0.3295699999999999  0.8679100000000001  0.8135499999999999  1.0000
  C   C173      1.0  0.22221  0.41562  0.4913799999999999  1.0000
  C   C174      1.0  0.3286199999999999  0.67493  0.7171699999999999  1.0000
  C   C175      1.0  0.28492  0.40267  0.46549  1.0000
  C   C176      1.0  0.30500999999999995  0.45825  0.45018  1.0000
  H   H141      1.0  0.26267  0.71179  0.5016  1.0000
  C   C177      1.0  0.34657999999999994  0.7997300000000002  0.7225699999999999  1.0000
  H   H142      1.0  0.40985999999999984  0.20956000000000002  0.7397399999999998  1.0000
  H   H143      1.0  0.29285  0.80545  0.8651699999999999  1.0000
  C   C178      1.0  0.32835999999999993  0.01816999999999999  0.8377  1.0000
  C   C179      1.0  0.36948999999999993  0.36766  0.47128  1.0000
  C   C180      1.0  0.41038  0.03648999999999999  0.7348099999999997  1.0000
  C   C181      1.0  0.31578  0.39399  0.4971699999999999  1.0000
  C   C182      1.0  0.25979  0.35342  0.52482  1.0000
  C   C183      1.0  0.3875  0.86971  0.82746  1.0000
  H   H144      1.0  0.2843899999999999  0.75814  0.8921499999999999  1.0000
  H   H145      1.0  0.25882999999999995  0.8741300000000001  0.66413  1.0000
  C   C184      1.0  0.31896999999999986  0.87504  0.6872899999999998  1.0000
  H   H146      1.0  0.32547  0.07416  0.84718  1.0000
  H   H147      1.0  0.22342  0.32159  0.54888  1.0000
  H   H148      1.0  0.30433  0.65235  0.41378999999999994  1.0000
  O   O39       1.0  0.3079299999999999  0.65169  0.42502  1.0000
  H   H149      1.0  0.3043699999999999  0.7609800000000001  0.47429  1.0000
  Ni  Ni10      1.0  0.3089899999999999  0.80717  0.42807  1.0000
  O   O40       1.0  0.3811699999999999  0.47533  0.41449  1.0000
  H   H150      1.0  0.42965999999999993  0.35301  0.46357  1.0000
  C   C185      1.0  0.38475  0.36313  0.48707  1.0000
  C   C186      1.0  0.4123799999999999  0.90851  0.7136199999999999  1.0000
  H   H151      1.0  0.41320999999999997  0.6869  0.7113199999999998  1.0000
  C   C187      1.0  0.4536799999999999  0.02682  0.72034  1.0000
  C   C188      1.0  0.46519  0.16320000000000004  0.7426  1.0000
  H   H152      1.0  0.46765000000000007  0.15343  0.7551999999999999  1.0000
  H   H153      1.0  0.46771  0.76201  0.81807  1.0000
  C   C189      1.0  0.44613999999999976  0.7878200000000001  0.82937  1.0000
  C   C190      1.0  0.38501999999999986  0.94419  0.8396899999999998  1.0000
  H   H154      1.0  0.38182999999999995  0.7011700000000001  0.83566  1.0000
  C   C191      1.0  0.34975  0.41612  0.51356  1.0000
  C   C192      1.0  0.29247  0.37441  0.5402999999999999  1.0000
  C   C193      1.0  0.33651999999999993  0.89162  0.67146  1.0000
  H   H155      1.0  0.29828000000000005  0.9033000000000002  0.8994099999999999  1.0000
  H   H156      1.0  0.37081000000000003  0.9848  0.39525  1.0000
  H   H157      1.0  0.32331  0.96331  0.5336399999999999  1.0000
  H   H158      1.0  0.45448  0.34201  0.4914199999999999  1.0000
  C   C194      1.0  0.42083999999999994  0.8993200000000001  0.69683  1.0000
  C   C195      1.0  0.38413  0.88649  0.86683  1.0000
  H   H159      1.0  0.41613  0.18374000000000001  0.3527  1.0000
  O   O41       1.0  0.41636  0.54876  0.44671  1.0000
  C   C196      1.0  0.3510400000000001  0.8574000000000003  0.89524  1.0000
  H   H160      1.0  0.5458799999999999  0.5497  0.34742  1.0000
  H   H161      1.0  0.5806799999999999  0.43446000000000007  0.35555  1.0000
  H   H162      1.0  0.44008999999999987  0.78538  0.34165  1.0000
  C   C197      1.0  0.52532  0.77893  0.33973  1.0000
  C   C198      1.0  0.62793  0.9033700000000001  0.33412  1.0000
  C   C199      1.0  0.76964  0.12685  0.33799  1.0000
  H   H163      1.0  0.7433099999999999  0.58024  0.33326  1.0000
  C   C200      1.0  0.5508399999999999  0.50467  0.35819  1.0000
  H   H164      1.0  0.4812899999999999  0.012180000000000003  0.35642999999999997  1.0000
  C   C201      1.0  0.6774599999999997  0.01111  0.34361  1.0000
  H   H165      1.0  0.80631  0.20957  0.34528999999999993  1.0000
  C   C202      1.0  0.81867  0.62329  0.34194  1.0000
  H   H166      1.0  0.81325  0.5457  0.3491  1.0000
  H   H167      1.0  0.6221799999999997  0.57882  0.36566  1.0000
  H   H168      1.0  0.5529899999999999  0.75292  0.35062  1.0000
  C   C203      1.0  0.53661  0.9953900000000002  0.36471999999999993  1.0000
  C   C204      1.0  0.6464699999999999  0.9992900000000001  0.36006  1.0000
  H   H169      1.0  0.49245  0.54787  0.38665999999999995  1.0000
  C   C205      1.0  0.3679199999999999  0.94403  0.38382  1.0000
  C   C206      1.0  0.49255999999999994  0.95979  0.37968  1.0000
  C   C207      1.0  0.71923  0.97772  0.37077  1.0000
  H   H170      1.0  0.8183700000000002  0.9124800000000001  0.35646  1.0000
  H   H171      1.0  0.90557  0.0766  0.36208999999999997  1.0000
  H   H172      1.0  0.8028299999999998  0.68919  0.3491099999999999  1.0000
  C   C208      1.0  0.83734  0.9805100000000001  0.36592  1.0000
  H   H173      1.0  0.8792699999999998  0.95422  0.3754199999999999  1.0000
  C   C209      1.0  0.5606299999999999  0.92808  0.39012  1.0000
  C   C210      1.0  0.67783  0.94688  0.38587999999999995  1.0000
  H   H174      1.0  0.7328399999999998  0.92847  0.39407  1.0000
  C   C211      1.0  0.50208  0.85331  0.4040099999999999  1.0000
  O   O42       1.0  0.5175399999999999  0.75468  0.40669  1.0000
  Ni  Ni11      1.0  0.45704999999999996  0.64663  0.42638  1.0000
  O   O43       1.0  0.46614000000000005  0.9036200000000001  0.41507999999999995  1.0000
  O   O44       1.0  0.55869  0.8121000000000002  0.43883  1.0000
  O   O45       1.0  0.41284999999999994  0.8605500000000001  0.44738  1.0000
  C   C212      1.0  0.50835  0.84395  0.44996  1.0000
  H   H175      1.0  0.62099  0.07056  0.46439  1.0000
  C   C213      1.0  0.56478  0.87265  0.46526  1.0000
  C   C214      1.0  0.6011399999999999  0.9913900000000001  0.47170999999999996  1.0000
  H   H176      1.0  0.52164  0.68203  0.47014999999999996  1.0000
  C   C215      1.0  0.5445099999999999  0.77273  0.4749199999999999  1.0000
  C   C216      1.0  0.59767  0.0046999999999999984  0.48756  1.0000
  H   H177      1.0  0.87108  0.5487400000000001  0.4929799999999999  1.0000
  H   H178      1.0  0.61817  0.09487000000000001  0.49237  1.0000
  C   C217      1.0  0.5369999999999999  0.7847  0.49072  1.0000
  C   C218      1.0  0.5578599999999999  0.89928  0.49703999999999987  1.0000
  H   H179      1.0  0.38754999999999995  0.96102  0.5070699999999999  1.0000
  H   H180      1.0  0.5055599999999999  0.70269  0.49787  1.0000
  H   H181      1.0  0.5423799999999999  0.55065  0.5093599999999999  1.0000
  C   C219      1.0  0.4716999999999999  0.50301  0.51793  1.0000
  C   C220      1.0  0.52271  0.90452  0.51305  1.0000
  C   C221      1.0  0.4312499999999999  0.93754  0.5162699999999999  1.0000
  H   H182      1.0  0.9319299999999998  0.3027  0.53423  1.0000
  C   C222      1.0  0.50323  0.52746  0.5333799999999999  1.0000
  C   C223      1.0  0.5760999999999998  0.87103  0.52505  1.0000
  H   H183      1.0  0.5973199999999999  0.59586  0.53658  1.0000
  H   H184      1.0  0.64566  0.8439200000000001  0.5226799999999999  1.0000
  C   C224      1.0  0.3943299999999999  0.93815  0.5313299999999999  1.0000
  C   C225      1.0  0.41506999999999994  0.46009000000000005  0.54467  1.0000
  H   H185      1.0  0.7757499999999999  0.2934  0.55387  1.0000
  C   C226      1.0  0.45110999999999996  0.90953  0.54341  1.0000
  C   C227      1.0  0.5411099999999999  0.87426  0.54016  1.0000
  H   H186      1.0  0.45207999999999987  0.11601  0.55532  1.0000
  H   H187      1.0  0.6124  0.44422  0.5556399999999999  1.0000
  C   C228      1.0  0.8401199999999999  0.33745  0.56327  1.0000
  C   C229      1.0  0.43670999999999993  0.045459999999999993  0.5638299999999999  1.0000
  C   C230      1.0  0.45432  0.46824000000000005  0.56083  1.0000
  H   H188      1.0  0.5860799999999998  0.85238  0.54936  1.0000
  C   C231      1.0  0.55689  0.45347000000000004  0.5645699999999999  1.0000
  C   C232      1.0  0.9616099999999999  0.43439000000000005  0.56051  1.0000
  C   C233      1.0  0.42644  0.92981  0.55944  1.0000
  H   H189      1.0  0.4516599999999999  0.16626  0.58253  1.0000
  H   H190      1.0  0.6601099999999999  0.42715000000000003  0.5825199999999999  1.0000
  H   H191      1.0  0.7037099999999997  0.23161  0.58023  1.0000
  C   C234      1.0  0.79902  0.30258  0.57823  1.0000
  H   H192      1.0  0.39233  0.74774  0.5673999999999999  1.0000
  C   C235      1.0  0.40509  0.8391300000000002  0.5706599999999998  1.0000
  C   C236      1.0  0.4363799999999999  0.07405  0.57929  1.0000
  C   C237      1.0  0.38371  0.4802  0.5726  1.0000
  H   H193      1.0  0.30657999999999996  0.49527000000000004  0.5698999999999999  1.0000
  C   C238      1.0  0.5837799999999999  0.4432  0.57983  1.0000
  C   C239      1.0  0.43034  0.98955  0.59052  1.0000
  C   C240      1.0  0.5060799999999999  0.4427  0.59146  1.0000
  C   C241      1.0  0.8770599999999997  0.36715  0.59057  1.0000
  C   C242      1.0  0.001060000000000009  0.45726000000000006  0.5878699999999999  1.0000
  C   C243      1.0  0.40832  0.8694600000000001  0.58616  1.0000
  C   C244      1.0  0.40865  0.46596000000000004  0.5878599999999999  1.0000
  H   H194      1.0  0.4014499999999999  0.80257  0.59476  1.0000
  H   H195      1.0  0.34881  0.46714000000000006  0.5967999999999999  1.0000
  C   C245      1.0  0.4793799999999999  0.03791  0.60582  1.0000
  O   O46       1.0  0.43222  0.27228  0.60918  1.0000
  O   O47       1.0  0.59946  0.09016  0.60818  1.0000
  C   C246      1.0  0.5099299999999998  0.39125  0.60643  1.0000
  O   O48       1.0  0.78015  0.43627  0.6089  1.0000
  C   C247      1.0  0.82285  0.35935000000000006  0.60563  1.0000
  O   O49       1.0  0.4039599999999999  0.02893  0.61689  1.0000
  O   O50       1.0  0.57892  0.46698  0.61744  1.0000
  O   O51       1.0  0.8316899999999998  0.28792  0.6162199999999999  1.0000
  Ni  Ni12      1.0  0.43096999999999996  0.18538000000000002  0.6295499999999999  1.0000
  Ni  Ni13      1.0  0.68431  0.16442  0.62841  1.0000
  Ni  Ni14      1.0  0.7052099999999998  0.43849  0.62912  1.0000
  O   O52       1.0  0.6039799999999999  0.26164  0.63172  1.0000
  O   O53       1.0  0.5490699999999998  0.01431  0.64012  1.0000
  O   O54       1.0  0.42624  0.33099  0.6419  1.0000
  H   H196      1.0  0.46855  0.60167  0.64698  1.0000
  O   O55       1.0  0.8489899999999998  0.44462  0.6412699999999999  1.0000
  H   H197      1.0  0.6061999999999999  0.26183  0.64296  1.0000
  H   H198      1.0  0.62005  0.71302  0.65443  1.0000
  C   C248      1.0  0.52091  0.65246  0.6573999999999999  1.0000
  H   H199      1.0  0.48172  0.71217  0.66131  1.0000
  O   O56       1.0  0.78792  0.23705000000000004  0.64727  1.0000
  O   O57       1.0  0.41397  0.07988  0.6489299999999999  1.0000
  O   O58       1.0  0.6319799999999998  0.46835  0.64829  1.0000
  C   C249      1.0  0.48165  0.02408  0.65131  1.0000
  C   C250      1.0  0.51241  0.40539000000000003  0.65191  1.0000
  C   C251      1.0  0.83603  0.35705  0.65131  1.0000
  C   C252      1.0  0.4562199999999999  0.9462800000000001  0.66527  1.0000
  H   H200      1.0  0.6679399999999998  0.94777  0.6558099999999999  1.0000
  C   C253      1.0  0.47408999999999996  0.43644  0.66645  1.0000
  C   C254      1.0  0.50949  0.5627400000000001  0.66986  1.0000
  C   C255      1.0  0.89472  0.39515000000000006  0.66643  1.0000
  C   C256      1.0  0.02377000000000004  0.44993000000000005  0.66765  1.0000
  C   C257      1.0  0.5397799999999999  0.60624  0.6849799999999999  1.0000
  H   H201      1.0  0.5782199999999997  0.70559  0.68749  1.0000
  C   C258      1.0  0.55383  0.95256  0.6744599999999998  1.0000
  C   C259      1.0  0.6768799999999998  0.98134  0.66776  1.0000
  H   H202      1.0  0.7422299999999997  0.08363000000000001  0.6685  1.0000
  H   H203      1.0  0.63698  0.21373  0.67238  1.0000
  H   H204      1.0  0.66816  0.37394  0.67332  1.0000
  H   H205      1.0  0.71765  0.9325500000000001  0.67433  1.0000
  H   H206      1.0  0.3999  0.25036  0.67582  1.0000
  C   C260      1.0  0.43762  0.34954000000000013  0.67841  1.0000
  C   C261      1.0  0.6843299999999998  0.30247  0.67898  1.0000
  C   C262      1.0  0.8213299999999999  0.34924  0.67965  1.0000
  C   C263      1.0  0.53584  0.93214  0.69027  1.0000
  H   H207      1.0  0.8119599999999998  0.72501  0.6889  1.0000
  H   H208      1.0  0.08842999999999997  0.22157  0.69563  1.0000
  C   C264      1.0  0.46764  0.39231000000000005  0.69359  1.0000
  C   C265      1.0  0.53102  0.5233  0.69661  1.0000
  H   H209      1.0  0.6429299999999999  0.2853800000000001  0.6905599999999998  1.0000
  C   C266      1.0  0.8752799999999997  0.34178  0.69337  1.0000
  C   C267      1.0  0.002920000000000011  0.38524  0.69432  1.0000
  H   H210      1.0  0.13902  0.07507  0.70636  1.0000
  H   H211      1.0  0.61262  0.94573  0.6975399999999999  1.0000
  C   C268      1.0  0.8051  0.64538  0.69575  1.0000
  C   C269      1.0  0.08198  0.25608  0.70684  1.0000
  C   C270      1.0  0.051240000000000015  0.35227  0.7080399999999999  1.0000
  H   H212      1.0  0.4453799999999999  0.51423  0.72515  1.0000
  C   C271      1.0  0.60584  0.57471  0.7108099999999999  1.0000
  H   H213      1.0  0.75677  0.55747  0.68896  1.0000
  H   H214      1.0  0.81683  0.29614  0.7031499999999999  1.0000
  H   H215      1.0  0.9002499999999998  0.6619100000000001  0.69807  1.0000
  C   C272      1.0  0.11731999999999997  0.08732  0.71835  1.0000
  H   H216      1.0  0.3899599999999999  0.20057  0.70196  1.0000
  C   C273      1.0  0.4370699999999999  0.29895  0.70632  1.0000
  H   H217      1.0  0.5167999999999999  0.11101  0.71417  1.0000
  C   C274      1.0  0.54576  0.56271  0.72478  1.0000
  C   C275      1.0  0.73712  0.63491  0.71044  1.0000
  H   H218      1.0  0.03367000000000001  0.99939  0.72191  1.0000
  C   C276      1.0  0.09475  0.19765000000000002  0.71996  1.0000
  H   H219      1.0  0.37392999999999993  0.30785  0.71456  1.0000
  H   H220      1.0  0.52323  0.3165  0.7123199999999998  1.0000
  H   H221      1.0  0.45393  0.49577  0.7524799999999999  1.0000
  C   C277      1.0  0.61436  0.60978  0.73835  1.0000
  C   C278      1.0  0.8056399999999998  0.6913099999999999  0.72377  1.0000
  H   H222      1.0  0.8997699999999997  0.44811  0.72473  1.0000
  C   C279      1.0  0.54687  0.58101  0.7534099999999999  1.0000
  H   H223      1.0  0.53402  0.66138  0.75692  1.0000
  C   C280      1.0  0.7455099999999998  0.68217  0.7376599999999998  1.0000
  H   H224      1.0  0.9060699999999999  0.74421  0.7232499999999998  1.0000
  H   H225      1.0  0.56214  0.22529  0.7387999999999999  1.0000
  H   H226      1.0  0.59892  0.56211  0.7624199999999999  1.0000
  C   C281      1.0  0.8201200000000001  0.7538500000000001  0.75112  1.0000
  O   O59       1.0  0.95526  0.05817  0.74987  1.0000
  O   O60       1.0  0.9316599999999998  0.76815  0.75322  1.0000
  O   O61       1.0  0.7769499999999999  0.8081599999999998  0.7603699999999999  1.0000
  Ni  Ni15      1.0  0.88853  0.98011  0.7711499999999998  1.0000
  O   O62       1.0  0.0272300000000001  0.9630900000000001  0.7762199999999999  1.0000
  O   O63       1.0  0.9701199999999999  0.15772  0.7817899999999999  1.0000
  H   H227      1.0  0.025260000000000022  0.9680500000000001  0.7874399999999999  1.0000
  H   H228      1.0  0.99012  0.76298  0.8223599999999999  1.0000
  O   O64       1.0  0.84686  0.71976  0.78493  1.0000
  H   H229      1.0  0.9839299999999997  0.89756  0.81486  1.0000
  O   O65       1.0  0.8073499999999999  0.88198  0.7910199999999997  1.0000
  C   C282      1.0  0.9486899999999998  0.8249600000000001  0.8238399999999998  1.0000
  C   C283      1.0  0.81004  0.77802  0.79481  1.0000
  H   H230      1.0  0.97968  0.8746300000000001  0.8350099999999999  1.0000
  C   C284      1.0  0.042190000000000005  0.25139000000000006  0.80674  1.0000
  C   C285      1.0  0.80958  0.74709  0.82305  1.0000
  C   C286      1.0  0.7468599999999999  0.7127100000000001  0.8088699999999999  1.0000
  H   H231      1.0  0.93809  0.07284  0.81795  1.0000
  C   C287      1.0  0.9844299999999999  0.17423  0.8193199999999999  1.0000
  H   H232      1.0  0.6885099999999998  0.058800000000000005  0.83767  1.0000
  C   C288      1.0  0.6193599999999999  0.62705  0.80839  1.0000
  H   H233      1.0  0.5708899999999999  0.60278  0.79749  1.0000
  H   H234      1.0  0.7908099999999998  0.72822  0.84747  1.0000
  H   H235      1.0  0.53508  0.83736  0.83574  1.0000
  H   H236      1.0  0.6053499999999998  0.14208  0.8337  1.0000
  C   C289      1.0  0.74305  0.69903  0.83656  1.0000
  C   C290      1.0  0.6556699999999999  0.12074000000000001  0.8426799999999999  1.0000
  H   H237      1.0  0.7373399999999998  0.21153000000000002  0.8460199999999998  1.0000
  C   C291      1.0  0.05338  0.35919  0.8355999999999998  1.0000
  C   C292      1.0  0.9924399999999998  0.22658  0.8338499999999999  1.0000
  H   H238      1.0  0.64363  0.39699  0.83887  1.0000
  H   H239      1.0  0.90955  0.46241  0.84123  1.0000
  C   C293      1.0  0.5529999999999999  0.57534  0.8219099999999999  1.0000
  H   H240      1.0  0.4816599999999999  0.32458  0.8336299999999999  1.0000
  C   C294      1.0  0.6162299999999999  0.6110199999999999  0.8361599999999999  1.0000
  H   H241      1.0  0.8758499999999999  0.04340999999999999  0.8440899999999999  1.0000
  H   H242      1.0  0.8127099999999999  0.55425  0.8556  1.0000
  C   C295      1.0  0.57364  0.05662  0.85624  1.0000
  C   C296      1.0  0.54732  0.34872000000000003  0.8432899999999999  1.0000
  H   H243      1.0  0.90107  0.17311  0.85602  1.0000
  C   C297      1.0  0.9458299999999998  0.14057000000000003  0.84755  1.0000
  C   C298      1.0  0.95787  0.45795  0.8513599999999999  1.0000
  C   C299      1.0  0.04503000000000001  0.41709  0.85013  1.0000
  H   H244      1.0  0.36984  0.54251  0.8166299999999997  1.0000
  C   C300      1.0  0.45177  0.9559  0.85414  1.0000
  H   H245      1.0  0.53064  0.25954  0.84858  1.0000
  C   C301      1.0  0.5539699999999999  0.55355  0.8507699999999999  1.0000
  C   C302      1.0  0.41465999999999986  0.48913  0.8208499999999999  1.0000
  H   H246      1.0  0.024069999999999987  0.13593  0.85311  1.0000
  H   H247      1.0  0.7079499999999997  0.1812  0.87275  1.0000
  C   C303      1.0  0.8304699999999999  0.52479  0.8668599999999999  1.0000
  C   C304      1.0  0.61797  0.09844999999999997  0.8710999999999998  1.0000
  C   C305      1.0  0.52967  0.43102999999999997  0.8547499999999998  1.0000
  H   H248      1.0  0.39464  0.41321  0.81245  1.0000
  C   C306      1.0  0.9267799999999999  0.485  0.86573  1.0000
  H   H249      1.0  0.37082999999999994  0.44467000000000007  0.8317999999999999  1.0000
  H   H250      1.0  0.74359  0.44361  0.87093  1.0000
  H   H251      1.0  0.56296  0.72455  0.8591  1.0000
  H   H252      1.0  0.8617  0.60582  0.8748299999999999  1.0000
  C   C307      1.0  0.5484899999999999  0.63223  0.86216  1.0000
  C   C308      1.0  0.5415699999999999  0.04145  0.8837399999999999  1.0000
  H   H253      1.0  0.49122999999999994  0.30052  0.87324  1.0000
  C   C309      1.0  0.50678  0.39309  0.87009  1.0000
  C   C310      1.0  0.9783199999999997  0.46366  0.8790299999999998  1.0000
  C   C311      1.0  0.42856  0.9284  0.8816899999999999  1.0000
  C   C312      1.0  0.07826999999999999  0.44066  0.87762  1.0000
  C   C313      1.0  0.5292599999999998  0.48181  0.88159  1.0000
  C   C314      1.0  0.53816  0.59783  0.87762  1.0000
  C   C315      1.0  0.56601  0.11426000000000001  0.89797  1.0000
  C   C316      1.0  0.90981  0.43364  0.8935499999999997  1.0000
  O   O66       1.0  0.50496  0.1751  0.90055  1.0000
  C   C317      1.0  0.58218  0.46976000000000007  0.89611  1.0000
  O   O67       1.0  0.70286  0.5153  0.89707  1.0000
  O   O68       1.0  0.8432  0.31466  0.8974299999999997  1.0000
  C   C318      1.0  0.5477699999999998  0.6894400000000002  0.88983  1.0000
  H   H254      1.0  0.64225  0.73568  0.8949299999999998  1.0000
  H   H255      1.0  0.52996  0.76331  0.8850699999999999  1.0000
  H   H256      1.0  0.41093  0.85572  0.90461  1.0000
  O   O69       1.0  0.50895  0.41112000000000004  0.90764  1.0000
  O   O70       1.0  0.63414  0.10346  0.9087699999999999  1.0000
  O   O71       1.0  0.9305599999999999  0.52484  0.9032899999999999  1.0000
  H   H257      1.0  0.47838999999999987  0.63967  0.8989299999999999  1.0000
  Ni  Ni16      1.0  0.52509  0.27628  0.92047  1.0000
  Ni  Ni17      1.0  0.7796499999999997  0.25575999999999993  0.9185799999999997  1.0000
  Ni  Ni18      1.0  0.79751  0.52751  0.9165  1.0000
  O   O72       1.0  0.69931  0.3536  0.9212899999999998  1.0000
  O   O73       1.0  0.50985  0.1278  0.93404  1.0000
  O   O74       1.0  0.93834  0.38736  0.92892  1.0000
  H   H258      1.0  0.7080399999999999  0.36244  0.93246  1.0000
  O   O75       1.0  0.6831599999999999  0.57031  0.9289799999999999  1.0000
  O   O76       1.0  0.5305099999999998  0.38353  0.9391899999999999  1.0000
  O   O77       1.0  0.7107699999999998  0.16990000000000002  0.93882  1.0000
  O   O78       1.0  0.9075799999999999  0.5553  0.9346999999999999  1.0000
  H   H259      1.0  0.6675599999999998  0.007240000000000003  0.9622  1.0000
  C   C319      1.0  0.5981399999999999  0.13982  0.9436999999999998  1.0000
  C   C320      1.0  0.6163299999999999  0.50336  0.94081  1.0000
  C   C321      1.0  0.9404899999999999  0.47124  0.93882  1.0000
  H   H260      1.0  0.4238399999999999  0.50501  0.95516  1.0000
  C   C322      1.0  0.62177  0.05077  0.9681899999999999  1.0000
  C   C323      1.0  0.5694899999999999  0.11226000000000001  0.96001  1.0000
  C   C324      1.0  0.50958  0.5504800000000001  0.96166  1.0000
  C   C325      1.0  0.62035  0.56796  0.95515  1.0000
  C   C326      1.0  0.9761899999999999  0.46924  0.9547299999999999  1.0000
  H   H261      1.0  0.6636199999999998  0.005409999999999996  0.9903599999999999  1.0000
  C   C327      1.0  0.6200799999999999  0.05022  0.98415  1.0000
  H   H262      1.0  0.4203499999999999  0.56415  0.98202  1.0000
  C   C328      1.0  0.50867  0.16636  0.96794  1.0000
  C   C329      1.0  0.50765  0.58452  0.97686  1.0000
  H   H263      1.0  0.4673800000000001  0.21346000000000004  0.9617699999999999  1.0000
  C   C330      1.0  0.73105  0.62888  0.9635999999999999  1.0000
  H   H264      1.0  0.8172099999999998  0.6435399999999999  0.9586399999999999  1.0000
  H   H265      1.0  0.7884799999999998  0.38781  0.9631  1.0000
  C   C331      1.0  0.8856299999999998  0.42925  0.96616  1.0000
  C   C332      1.0  0.56584  0.11084  0.99209  1.0000
  C   C333      1.0  0.5077  0.16651  0.98393  1.0000
  C   C334      1.0  0.61659  0.63673  0.9856899999999998  1.0000
  C   C335      1.0  0.72916  0.66278  0.97884  1.0000
  C   C336      1.0  0.92059  0.44932000000000005  0.98154  1.0000
  H   H266      1.0  0.8140699999999998  0.70423  0.9855099999999999  1.0000
  H   H267      1.0  0.8501699999999998  0.42287  0.99026  1.0000
  H   H268      1.0  0.67751  0.52024  0.007649999999999998  1.0000
  H   H269      1.0  0.77285  0.23644  0.009459999999999998  1.0000
  H   H270      1.0  0.46488999999999997  0.21288  0.9899699999999998  1.0000
