data_image0
_chemical_formula_structural       NiH2C4H2OHOH3COCOC2HCHOC2H2C4HC9HO2C2H2CHOC3NiOCO2CH2COC7NiO2C5OHC2OH2C2HOH2C3H2OCH2C2H2NiHOC2HCNiCH2COH5COCH3NiH3OHCO2CH3O2HCHC2HCHONiCOHC2H2CHOHC2H2C2HC3HC5HC4H2CHCH5C4H5CHCH2C4HOHCNiCHOHOC2OC2OH2C4HC5HCH2C5HCHCH2C3H3CHC2H2C3HCHC2HC3H4C2HCH2CHC3HC2H2CHC3HC3OCOHCOH2COHCHCNiHCHCOHCH2C4H2CHC6HC10HCH2C6HCHC2HCHCHC5H3C3O2CO2HO3Ni3O3HOHC2OHOC2HC2HCH3C3H2C4HCH3C4H2C3H2C2H3C2HCH3CHCHCH3C2H2CHCHC3H2C3HC2H2CHC5H3CH2C4HOHOCOHO3Ni3O4HO2CH2OCHCHCHCHCHC2HCHC2HC2HCHCHC5H3C2HCH4C3HCH4CHC2H2C3HCH5C3HC5H3C2HC2HC2HCH2C2H2CHC2O3HO3Ni3O4HO3C3H2CHC2HC2HC2HC2
_chemical_formula_sum              "Ni18 H246 C324 O78"
_cell_length_a       10.39484
_cell_length_b       14.3503
_cell_length_c       85.35516
_cell_angle_alpha    90.22495
_cell_angle_beta     90.23382
_cell_angle_gamma    119.38054999999999

_space_group_name_H-M_alt    "P 1"
_space_group_IT_number       1

loop_
  _space_group_symop_operation_xyz
  'x, y, z'

loop_
  _atom_site_type_symbol
  _atom_site_label
  _atom_site_symmetry_multiplicity
  _atom_site_fract_x
  _atom_site_fract_y
  _atom_site_fract_z
  _atom_site_occupancy
  Ni  Ni1       1.0  0.07963999999999993  0.9240599999999999  0.27918  1.0000
  H   H1        1.0  0.1350999999999999  0.4391899999999999  0.29609  1.0000
  H   H2        1.0  0.7528  0.39269999999999994  0.11899999999999998  1.0000
  C   C1        1.0  0.98695  0.68728  0.46081999999999995  1.0000
  C   C2        1.0  0.95201  0.5910500000000001  0.48510000000000003  1.0000
  C   C3        1.0  0.921  0.14705  0.23044  1.0000
  C   C4        1.0  0.7276099999999998  0.3382799999999999  0.19935  1.0000
  H   H3        1.0  0.8781899999999999  0.3272399999999999  0.36103  1.0000
  H   H4        1.0  0.79624  0.07553  0.19337999999999997  1.0000
  O   O1        1.0  0.9822299999999999  0.19773  0.2681  1.0000
  H   H5        1.0  0.08197000000000002  0.61686  0.32362  1.0000
  O   O2        1.0  0.024839999999999997  0.1557  0.3009  1.0000
  H   H6        1.0  0.9499499999999997  0.98936  0.19294  1.0000
  H   H7        1.0  0.06784  0.04806  0.26395  1.0000
  H   H8        1.0  0.95229  0.51348  0.38282  1.0000
  C   C5        1.0  0.8829299999999999  0.1629  0.21527  1.0000
  O   O3        1.0  0.08829999999999999  0.05718  0.27528  1.0000
  C   C6        1.0  0.13761  0.49017  0.31999  1.0000
  O   O4        1.0  0.7581499999999999  0.5821  0.13126  1.0000
  C   C7        1.0  0.14336999999999994  0.42274  0.30833  1.0000
  C   C8        1.0  0.018019999999999953  0.4961499999999999  0.35949  1.0000
  H   H9        1.0  0.7892499999999999  0.40759  0.20735000000000003  1.0000
  C   C9        1.0  0.77986  0.59154  0.11581999999999999  1.0000
  H   H10       1.0  0.18253  0.85168  0.31128  1.0000
  O   O5        1.0  0.16794999999999985  0.9315399999999998  0.25781  1.0000
  C   C10       1.0  0.03629999999999999  0.54927  0.37389  1.0000
  C   C11       1.0  0.005580000000000007  0.23446  0.24033  1.0000
  H   H11       1.0  0.32081999999999994  0.24956  0.19282  1.0000
  H   H12       1.0  0.78339  0.40865  0.16949  1.0000
  C   C12       1.0  0.06184  0.2166  0.25518  1.0000
  C   C13       1.0  0.83313  0.33018  0.18807  1.0000
  C   C14       1.0  0.9610299999999999  0.94339  0.16909  1.0000
  C   C15       1.0  0.021820000000000027  0.99555  0.18341  1.0000
  H   H13       1.0  0.1137999999999999  0.9042599999999998  0.32675  1.0000
  C   C16       1.0  0.14263999999999993  0.46604  0.33601  1.0000
  C   C17       1.0  0.13663999999999998  0.5352  0.34875  1.0000
  C   C18       1.0  0.007299999999999994  0.52951  0.47808  1.0000
  C   C19       1.0  0.9375299999999998  0.26805  0.2097  1.0000
  C   C20       1.0  0.13663999999999998  0.25387  0.30007  1.0000
  C   C21       1.0  0.051429999999999955  0.63078  0.45401  1.0000
  C   C22       1.0  0.8472  0.37063999999999997  0.17287  1.0000
  C   C23       1.0  0.15591999999999995  0.33285  0.31237  1.0000
  C   C24       1.0  0.20091999999999982  0.8849899999999998  0.32333  1.0000
  H   H14       1.0  0.1929299999999999  0.8209199999999999  0.33121  1.0000
  O   O6        1.0  0.8776399999999998  0.68322  0.10953  1.0000
  O   O7        1.0  0.2862299999999999  0.9813799999999998  0.28815  1.0000
  C   C25       1.0  0.9244799999999997  0.28843  0.1929  1.0000
  C   C26       1.0  0.04498000000000001  0.33876  0.23540999999999998  1.0000
  H   H15       1.0  0.07483999999999999  0.4143299999999999  0.25814  1.0000
  H   H16       1.0  0.3642399999999999  0.20306  0.23499  1.0000
  C   C27       1.0  0.16795999999999994  0.6431  0.37729  1.0000
  H   H17       1.0  0.0162599999999999  0.4688699999999999  0.48475  1.0000
  O   O8        1.0  0.8980999999999999  0.46534  0.14281  1.0000
  C   C28       1.0  0.27294999999999997  0.02204  0.25176  1.0000
  C   C29       1.0  0.013109999999999905  0.3550199999999999  0.21999  1.0000
  C   C30       1.0  0.3084299999999999  0.24255999999999997  0.20571  1.0000
  Ni  Ni2       1.0  0.92087  0.61012  0.14716  1.0000
  O   O9        1.0  0.19838999999999998  0.23223  0.25578  1.0000
  C   C31       1.0  0.05681999999999995  0.54918  0.4625600000000001  1.0000
  O   O10       1.0  0.9959199999999999  0.8419  0.13297  1.0000
  O   O11       1.0  0.9307799999999998  0.74464  0.15539  1.0000
  C   C32       1.0  0.32095999999999997  0.132  0.22768  1.0000
  H   H18       1.0  0.21114  0.24990999999999994  0.20915999999999998  1.0000
  H   H19       1.0  0.11289999999999986  0.7921199999999998  0.23641000000000004  1.0000
  C   C33       1.0  0.25859999999999994  0.63636  0.3513  1.0000
  O   O12       1.0  0.18585000000000002  0.72458  0.40276  1.0000
  C   C34       1.0  0.001469999999999944  0.83721  0.14831  1.0000
  C   C35       1.0  0.05429999999999981  0.9359699999999999  0.1578  1.0000
  C   C36       1.0  0.16649999999999998  0.38075  0.33998  1.0000
  C   C37       1.0  0.13442000000000007  0.6693  0.43925999999999993  1.0000
  C   C38       1.0  0.17676  0.31545  0.32826  1.0000
  C   C39       1.0  0.28987  0.13845  0.2118  1.0000
  C   C40       1.0  0.28611  0.03329  0.23442999999999997  1.0000
  Ni  Ni3       1.0  0.27362999999999993  0.18327999999999994  0.27493  1.0000
  O   O13       1.0  0.22305999999999998  0.28515  0.28775  1.0000
  O   O14       1.0  0.18675999999999995  0.7708199999999998  0.43533  1.0000
  C   C41       1.0  0.17450999999999997  0.04397  0.1861  1.0000
  C   C42       1.0  0.95144  0.36995  0.16245  1.0000
  C   C43       1.0  0.12544  0.43313  0.24631999999999998  1.0000
  C   C44       1.0  0.27053  0.6931  0.36513999999999996  1.0000
  C   C45       1.0  0.34077  0.05820000000000001  0.29871  1.0000
  O   O15       1.0  0.14507  0.60063  0.42952  1.0000
  H   H20       1.0  0.09959  0.14807  0.33223  1.0000
  C   C46       1.0  0.21908999999999998  0.66507  0.39371  1.0000
  C   C47       1.0  0.2274  0.04485  0.20237  1.0000
  O   O16       1.0  0.35305999999999993  0.15174  0.29552  1.0000
  H   H21       1.0  0.3457699999999998  0.6698199999999997  0.34271  1.0000
  H   H22       1.0  0.04932999999999994  0.43551999999999996  0.21589999999999998  1.0000
  C   C48       1.0  0.013409999999999995  0.27429  0.18185  1.0000
  C   C49       1.0  0.23924000000000006  0.94251  0.22457  1.0000
  H   H23       1.0  0.40875999999999996  0.31065  0.21093  1.0000
  O   O17       1.0  0.35819  0.10505  0.26096  1.0000
  H   H24       1.0  0.11970999999999998  0.50389  0.24199000000000004  1.0000
  H   H25       1.0  0.17676999999999998  0.3650399999999999  0.3522  1.0000
  C   C50       1.0  0.20449  0.94812  0.20882  1.0000
  C   C51       1.0  0.9947  0.44069  0.14854  1.0000
  C   C52       1.0  0.34953999999999996  0.98328  0.32511999999999996  1.0000
  H   H26       1.0  0.35815999999999987  0.85549  0.37273  1.0000
  H   H27       1.0  0.01703999999999996  0.6010699999999999  0.12396  1.0000
  O   O18       1.0  0.04920000000000005  0.61826  0.16608  1.0000
  C   C53       1.0  0.025269999999999983  0.31278  0.16651  1.0000
  H   H28       1.0  0.10531999999999994  0.50442  0.45746999999999993  1.0000
  H   H29       1.0  0.15622  0.87629  0.20164  1.0000
  C   C54       1.0  0.22220999999999988  0.83874  0.23077  1.0000
  C   C55       1.0  0.20444  0.22529999999999994  0.33284  1.0000
  H   H30       1.0  0.3571299999999999  0.9638699999999998  0.35002  1.0000
  H   H31       1.0  0.07505999999999999  0.23484  0.18525  1.0000
  Ni  Ni4       1.0  0.08003  0.77314  0.11873  1.0000
  H   H32       1.0  0.24313999999999988  0.4540299999999999  0.24730000000000002  1.0000
  O   O19       1.0  0.06926999999999994  0.6608199999999999  0.13136  1.0000
  C   C56       1.0  0.42335999999999996  0.05002  0.31227  1.0000
  C   C57       1.0  0.3972  0.80376  0.36724  1.0000
  H   H33       1.0  0.39941999999999994  0.13731  0.36734  1.0000
  C   C58       1.0  0.20658  0.00648  0.15896  1.0000
  Ni  Ni5       1.0  0.34151999999999993  0.84124  0.41777  1.0000
  C   C59       1.0  0.26825  0.060719999999999996  0.17317  1.0000
  H   H34       1.0  0.44563  0.84001  0.35585  1.0000
  H   H35       1.0  0.22805999999999976  0.7886899999999998  0.22117  1.0000
  C   C60       1.0  0.41924  0.00634  0.33979  1.0000
  O   O20       1.0  0.2929299999999999  0.62008  0.39923  1.0000
  H   H36       1.0  0.3115699999999999  0.85393  0.23929999999999998  1.0000
  H   H37       1.0  0.24933999999999995  0.23636999999999997  0.34496  1.0000
  H   H38       1.0  0.07068999999999999  0.28264  0.14282  1.0000
  H   H39       1.0  0.28645  0.2219  0.3249  1.0000
  H   H40       1.0  0.18759999999999993  0.51648  0.18306  1.0000
  C   C61       1.0  0.11852999999999998  0.29414  0.1548  1.0000
  O   O21       1.0  0.1371  0.49847  0.14489  1.0000
  C   C62       1.0  0.19402999999999992  0.68002  0.16738  1.0000
  H   H41       1.0  0.12458999999999999  0.22095  0.15772  1.0000
  H   H42       1.0  0.39656  0.008200000000000002  0.46466  1.0000
  H   H43       1.0  0.27823  0.01155  0.14944  1.0000
  Ni  Ni6       1.0  0.34235999999999994  0.61657  0.42208  1.0000
  H   H44       1.0  0.23587  0.19422  0.55535  1.0000
  H   H45       1.0  0.22332999999999995  0.15327999999999997  0.58349  1.0000
  H   H46       1.0  0.4839099999999998  0.8005099999999999  0.37444  1.0000
  O   O22       1.0  0.4767899999999999  0.90037  0.39867  1.0000
  H   H47       1.0  0.5453199999999999  0.25625  0.37646999999999997  1.0000
  C   C63       1.0  0.5194  0.19561999999999996  0.36708  1.0000
  O   O23       1.0  0.18105999999999983  0.7340399999999999  0.10093  1.0000
  O   O24       1.0  0.4839  0.97788  0.43105999999999994  1.0000
  C   C64       1.0  0.25883  0.59286  0.18859  1.0000
  H   H48       1.0  0.27269  0.42859  0.19988999999999998  1.0000
  H   H49       1.0  0.18022  0.4599  0.08925  1.0000
  H   H50       1.0  0.41822  0.76883  0.43639  1.0000
  O   O25       1.0  0.4357299999999998  0.7670399999999999  0.42508999999999997  1.0000
  O   O26       1.0  0.2740199999999998  0.8752199999999999  0.12865  1.0000
  H   H51       1.0  0.28843  0.88094  0.17714  1.0000
  C   C65       1.0  0.2677299999999999  0.68614  0.18235  1.0000
  H   H52       1.0  0.45457  0.21898999999999996  0.17148  1.0000
  C   C66       1.0  0.19336  0.6454  0.09916  1.0000
  C   C67       1.0  0.57446  0.12324  0.31361  1.0000
  H   H53       1.0  0.15651  0.07383  0.00612  1.0000
  C   C68       1.0  0.43204999999999993  0.1369  0.17427  1.0000
  H   H54       1.0  0.54618  0.23814  0.3557  1.0000
  O   O27       1.0  0.2036600000000001  0.59175  0.11135  1.0000
  Ni  Ni7       1.0  0.2437599999999999  0.6508299999999999  0.13404  1.0000
  C   C69       1.0  0.57017  0.07949  0.34121  1.0000
  O   O28       1.0  0.27585999999999994  0.7278199999999999  0.15523  1.0000
  H   H55       1.0  0.34101  0.48826  0.2188  1.0000
  C   C70       1.0  0.31411999999999995  0.17332999999999998  0.56039  1.0000
  C   C71       1.0  0.3071299999999999  0.15024  0.57635  1.0000
  H   H56       1.0  0.23223999999999995  0.36340999999999996  0.1549  1.0000
  H   H57       1.0  0.31155  0.46865  0.38649999999999995  1.0000
  C   C72       1.0  0.51221  0.06803000000000001  0.46555  1.0000
  H   H58       1.0  0.59421  0.14268  0.39466  1.0000
  O   O29       1.0  0.40309999999999996  0.6039  0.44386  1.0000
  H   H59       1.0  0.48498  0.13155  0.48738999999999993  1.0000
  C   C73       1.0  0.60607  0.13779  0.36949  1.0000
  C   C74       1.0  0.23857999999999996  0.52637  0.08135  1.0000
  H   H60       1.0  0.4764499999999999  0.13703  0.1861  1.0000
  H   H61       1.0  0.6338699999999999  0.17037999999999998  0.30354  1.0000
  C   C75       1.0  0.23525999999999983  0.62232  0.08364  1.0000
  C   C76       1.0  0.35810999999999993  0.5011  0.20599999999999996  1.0000
  H   H62       1.0  0.42474  0.43011  0.3981  1.0000
  C   C77       1.0  0.24855999999999998  0.14901  0.00236  1.0000
  C   C78       1.0  0.56823  0.98238  0.4432  1.0000
  C   C79       1.0  0.63465  0.11688  0.3847999999999999  1.0000
  H   H63       1.0  0.37279999999999996  0.3812  0.37854  1.0000
  C   C80       1.0  0.35017  0.59897  0.20117  1.0000
  C   C81       1.0  0.56222  0.13832  0.47838  1.0000
  C   C82       1.0  0.64349  0.09316  0.35667  1.0000
  C   C83       1.0  0.61338  0.06999999999999998  0.4545699999999999  1.0000
  C   C84       1.0  0.64987  0.13573  0.32782  1.0000
  H   H64       1.0  0.49324  0.11425  0.16582  1.0000
  C   C85       1.0  0.40488  0.4519999999999999  0.38622999999999996  1.0000
  C   C86       1.0  0.3662799999999998  0.7863999999999998  0.18907999999999997  1.0000
  C   C87       1.0  0.61844  0.96599  0.39973  1.0000
  C   C88       1.0  0.39385  0.8886799999999999  0.18143  1.0000
  H   H65       1.0  0.5467199999999998  0.7017999999999999  0.47931  1.0000
  H   H66       1.0  0.77276  0.8977999999999998  0.15384  1.0000
  C   C89       1.0  0.79681  0.8902999999999998  0.16632  1.0000
  H   H67       1.0  0.6425799999999999  0.34954  0.19304  1.0000
  C   C90       1.0  0.76939  0.0686  0.20601999999999998  1.0000
  H   H68       1.0  0.88545  0.06658999999999998  0.23450999999999997  1.0000
  H   H69       1.0  0.66003  0.06345  0.20747  1.0000
  H   H70       1.0  0.6689799999999999  0.26408  0.20636  1.0000
  H   H71       1.0  0.7463600000000001  0.9282  0.17357  1.0000
  H   H72       1.0  0.7445599999999999  0.80425  0.16934  1.0000
  C   C91       1.0  0.70269  0.49781  0.10546  1.0000
  C   C92       1.0  0.6516199999999999  0.51109  0.09083  1.0000
  C   C93       1.0  0.73177  0.35277  0.09457999999999998  1.0000
  C   C94       1.0  0.7266800000000001  0.41049  0.10755999999999999  1.0000
  H   H73       1.0  0.62552  0.57481  0.08915  1.0000
  H   H74       1.0  0.7629799999999999  0.29155  0.09612  1.0000
  H   H75       1.0  0.8575799999999998  0.14634  0.32297  1.0000
  H   H76       1.0  0.86312  0.223  0.33971  1.0000
  H   H77       1.0  0.76586  0.014719999999999999  0.34954  1.0000
  C   C95       1.0  0.8153099999999999  0.19748  0.32788  1.0000
  H   H78       1.0  0.92427  0.98263  0.36845  1.0000
  C   C96       1.0  0.7292099999999999  0.0436  0.35935  1.0000
  H   H79       1.0  0.85391  0.27011  0.32059  1.0000
  H   H80       1.0  0.75768  0.87374  0.37637  1.0000
  C   C97       1.0  0.8364099999999999  0.96068  0.37734  1.0000
  C   C98       1.0  0.75565  0.02223  0.37472  1.0000
  C   C99       1.0  0.68836  0.04551999999999999  0.38731  1.0000
  C   C100      1.0  0.87459  0.39707999999999993  0.35603  1.0000
  H   H81       1.0  0.7821499999999999  0.40332  0.36145  1.0000
  O   O30       1.0  0.6930599999999999  0.9688  0.41238  1.0000
  H   H82       1.0  0.28886  0.77406  0.07316  1.0000
  C   C101      1.0  0.3015  0.70373  0.07245  1.0000
  Ni  Ni8       1.0  0.6452999999999999  0.83685  0.42557  1.0000
  C   C102      1.0  0.32739  0.51926  0.06968  1.0000
  H   H83       1.0  0.88995  0.97866  0.3890799999999999  1.0000
  O   O31       1.0  0.51209  0.5992  0.41409  1.0000
  H   H84       1.0  0.33684  0.44754  0.06867  1.0000
  O   O32       1.0  0.67059  0.76939  0.40603000000000006  1.0000
  C   C103      1.0  0.39261999999999997  0.87985  0.12310999999999998  1.0000
  C   C104      1.0  0.3916599999999999  0.69704  0.06083999999999999  1.0000
  O   O33       1.0  0.4057599999999999  0.7936499999999999  0.1238  1.0000
  C   C105      1.0  0.6070899999999999  0.66522  0.40385  1.0000
  C   C106      1.0  0.41012999999999994  0.60671  0.05993999999999999  1.0000
  O   O34       1.0  0.6524099999999999  0.7248999999999999  0.43988  1.0000
  H   H85       1.0  0.4505899999999998  0.7633599999999999  0.05293  1.0000
  H   H86       1.0  0.44229  0.08479  0.12201  1.0000
  C   C107      1.0  0.47346  0.96115  0.11106  1.0000
  C   C108      1.0  0.35314  0.21789  0.013309999999999999  1.0000
  C   C109      1.0  0.462  0.05488  0.11111999999999998  1.0000
  C   C110      1.0  0.3616299999999999  0.17803  0.02852  1.0000
  H   H87       1.0  0.53452  0.86351  0.09691  1.0000
  C   C111      1.0  0.52111  0.6064  0.04988  1.0000
  C   C112      1.0  0.5144699999999999  0.9307899999999999  0.09707999999999999  1.0000
  C   C113      1.0  0.37222999999999995  0.14723  0.04132  1.0000
  C   C114      1.0  0.54077  0.54718  0.37997  1.0000
  C   C115      1.0  0.6499299999999999  0.62351  0.3901  1.0000
  H   H88       1.0  0.4434099999999997  0.9566499999999998  0.18984  1.0000
  C   C116      1.0  0.45066  0.09891  0.09696  1.0000
  H   H89       1.0  0.4237899999999999  0.16295  0.09701  1.0000
  H   H90       1.0  0.4706799999999999  0.907  0.17146  1.0000
  C   C117      1.0  0.39591  0.11261999999999998  0.05597  1.0000
  C   C118      1.0  0.42527  0.08586999999999997  0.06825  1.0000
  C   C119      1.0  0.46522  0.055769999999999986  0.08279  1.0000
  C   C120      1.0  0.5100699999999999  0.9782399999999999  0.08292  1.0000
  C   C121      1.0  0.46856  0.31659  0.00836  1.0000
  H   H91       1.0  0.5321  0.94988  0.07202  1.0000
  C   C122      1.0  0.61296  0.60349  0.0416  1.0000
  H   H92       1.0  0.46753  0.51061  0.20295999999999997  1.0000
  C   C123      1.0  0.4471199999999998  0.7911099999999999  0.20242999999999997  1.0000
  H   H93       1.0  0.54754  0.37166  0.0168  1.0000
  H   H94       1.0  0.47306  0.50957  0.35576  1.0000
  C   C124      1.0  0.56276  0.55868  0.36373  1.0000
  C   C125      1.0  0.4424699999999999  0.69886  0.20830999999999997  1.0000
  C   C126      1.0  0.79397  0.68452  0.38436999999999993  1.0000
  H   H95       1.0  0.88285  0.73475  0.39236  1.0000
  H   H96       1.0  0.5125799999999998  0.8665799999999998  0.20842  1.0000
  H   H97       1.0  0.6098499999999999  0.7776699999999999  0.34932  1.0000
  C   C127      1.0  0.71843  0.59728  0.03189  1.0000
  H   H98       1.0  0.34834  0.66886  0.23797  1.0000
  C   C128      1.0  0.6978499999999997  0.63785  0.3578  1.0000
  C   C129      1.0  0.81876  0.69335  0.36815  1.0000
  H   H99       1.0  0.5212199999999999  0.85802  0.33026  1.0000
  H   H100      1.0  0.69439  0.6728999999999999  0.19986999999999996  1.0000
  C   C130      1.0  0.53008  0.70818  0.22241  1.0000
  C   C131      1.0  0.80432  0.58951  0.02324  1.0000
  C   C132      1.0  0.4667599999999999  0.7020499999999998  0.23709  1.0000
  H   H101      1.0  0.7497699999999999  0.81291  0.19817999999999997  1.0000
  C   C133      1.0  0.66008  0.75759  0.33979  1.0000
  H   H102      1.0  0.05434  0.80135  0.37151  1.0000
  C   C134      1.0  0.7540600000000001  0.75208  0.20576  1.0000
  C   C135      1.0  0.70191  0.67941  0.34191  1.0000
  H   H103      1.0  0.9693199999999997  0.8381899999999999  0.35614  1.0000
  C   C136      1.0  0.97029  0.7695399999999998  0.36197  1.0000
  C   C137      1.0  0.60861  0.87313  0.32166  1.0000
  C   C138      1.0  0.68426  0.75012  0.22126  1.0000
  H   H104      1.0  0.36933  0.68209  0.26608  1.0000
  H   H105      1.0  0.6884699999999998  0.9597199999999999  0.32156  1.0000
  H   H106      1.0  0.8184  0.4101399999999999  0.01712  1.0000
  H   H107      1.0  0.5074399999999999  0.08502999999999998  0.00938  1.0000
  C   C139      1.0  0.8780399999999999  0.47454  0.00894  1.0000
  C   C140      1.0  0.6876899999999998  0.81213  0.32556  1.0000
  H   H108      1.0  0.55388  0.84776  0.31001  1.0000
  C   C141      1.0  0.5565  0.74933  0.25027  1.0000
  H   H109      1.0  0.8711399999999999  0.77216  0.20721  1.0000
  H   H110      1.0  0.67088  0.48249  0.33386  1.0000
  C   C142      1.0  0.61165  0.10435  0.00399  1.0000
  H   H111      1.0  0.004809999999999952  0.72787  0.35341  1.0000
  C   C143      1.0  0.4866199999999998  0.7464399999999998  0.26585  1.0000
  C   C144      1.0  0.7621299999999998  0.6506799999999998  0.32926  1.0000
  C   C145      1.0  0.7741999999999999  0.80056  0.23430999999999996  1.0000
  H   H112      1.0  0.54535  0.73042  0.27547  1.0000
  C   C146      1.0  0.71127  0.80548  0.24852  1.0000
  C   C147      1.0  0.7763599999999999  0.55146  0.32995  1.0000
  H   H113      1.0  0.8648299999999999  0.56428  0.33837  1.0000
  H   H114      1.0  0.4909900000000001  0.8242499999999999  0.26805  1.0000
  C   C148      1.0  0.78214  0.8026499999999999  0.31466  1.0000
  H   H115      1.0  0.89339  0.84088  0.23319  1.0000
  C   C149      1.0  0.74133  0.1473  0.01303  1.0000
  C   C150      1.0  0.8100999999999998  0.7165199999999998  0.316  1.0000
  C   C151      1.0  0.7446199999999998  0.19275999999999993  0.02818  1.0000
  H   H116      1.0  0.80333  0.53087  0.31831  1.0000
  C   C152      1.0  0.80682  0.8757199999999998  0.26096  1.0000
  C   C153      1.0  0.87349  0.16566  0.0061  1.0000
  C   C154      1.0  0.7442099999999999  0.23443999999999998  0.04044  1.0000
  O   O35       1.0  0.8089599999999998  0.9377299999999997  0.29597  1.0000
  C   C155      1.0  0.8704199999999999  0.8901999999999999  0.30367  1.0000
  O   O36       1.0  0.87066  0.83803  0.27064  1.0000
  H   H117      1.0  0.87217  0.70267  0.30699  1.0000
  C   C156      1.0  0.7361899999999999  0.28438  0.05437  1.0000
  O   O37       1.0  0.8036999999999997  0.9656699999999999  0.26402  1.0000
  H   H118      1.0  0.6201599999999999  0.46564999999999995  0.06647  1.0000
  H   H119      1.0  0.9734599999999999  0.19545999999999997  0.01309  1.0000
  C   C157      1.0  0.72078  0.32552999999999993  0.06602  1.0000
  O   O38       1.0  0.007059999999999956  0.91489  0.30096  1.0000
  H   H120      1.0  0.2560599999999998  0.65722  0.31417  1.0000
  C   C158      1.0  0.65175  0.45093999999999995  0.0779  1.0000
  H   H121      1.0  0.08436  0.58157  0.30361  1.0000
  C   C159      1.0  0.70081  0.37644  0.07962  1.0000
  Ni  Ni9       1.0  0.91849  0.06525  0.28174  1.0000
  H   H122      1.0  0.8519399999999998  0.3860999999999999  0.34326  1.0000
  C   C160      1.0  0.1398999999999999  0.59205  0.31515  1.0000
  H   H123      1.0  0.7629299999999999  0.99326  0.21019999999999997  1.0000
  C   C161      1.0  0.89913  0.57703  0.012129999999999998  1.0000
  O   O39       1.0  0.6355399999999999  0.92376  0.4438099999999999  1.0000
  H   H124      1.0  0.9778699999999999  0.74821  0.45423  1.0000
  C   C162      1.0  0.54267  0.65274  0.44868  1.0000
  H   H125      1.0  0.6127199999999999  0.4946999999999999  0.4476299999999999  1.0000
  H   H126      1.0  0.84023  0.15387  0.4469  1.0000
  C   C163      1.0  0.598  0.51621  0.45941  1.0000
  C   C164      1.0  0.5793699999999999  0.60566  0.46194  1.0000
  C   C165      1.0  0.7619799999999999  0.14982  0.45559  1.0000
  C   C166      1.0  0.9399999999999998  0.66874  0.47636  1.0000
  H   H127      1.0  0.8957299999999999  0.71571  0.48164999999999997  1.0000
  H   H128      1.0  0.9282999999999999  0.27723  0.46957  1.0000
  C   C167      1.0  0.5882199999999997  0.45055999999999996  0.47194  1.0000
  H   H129      1.0  0.59854  0.38  0.46982999999999997  1.0000
  C   C168      1.0  0.81165  0.22028  0.46837  1.0000
  C   C169      1.0  0.56142  0.63307  0.47722999999999993  1.0000
  C   C170      1.0  0.56131  0.4747  0.48707  1.0000
  C   C171      1.0  0.7134999999999999  0.21027  0.48029  1.0000
  C   C172      1.0  0.5529499999999999  0.56798  0.48977  1.0000
  C   C173      1.0  0.91195  0.57736  0.50141  1.0000
  H   H130      1.0  0.5351999999999999  0.5882599999999999  0.50151  1.0000
  C   C174      1.0  0.5367  0.40231  0.49977  1.0000
  C   C175      1.0  0.7708099999999998  0.25149  0.49565999999999993  1.0000
  C   C176      1.0  0.81861  0.27806  0.50876  1.0000
  C   C177      1.0  0.51467  0.34508  0.51088  1.0000
  C   C178      1.0  0.87721  0.56855  0.51502  1.0000
  C   C179      1.0  0.48779  0.28316  0.5245  1.0000
  C   C180      1.0  0.8717899999999998  0.29915  0.52431  1.0000
  C   C181      1.0  0.8370799999999999  0.56076  0.53095  1.0000
  C   C182      1.0  0.4642399999999999  0.23544999999999994  0.53667  1.0000
  C   C183      1.0  0.9124299999999997  0.30824  0.53774  1.0000
  H   H131      1.0  0.98365  0.46522  0.55918  1.0000
  C   C184      1.0  0.8055199999999999  0.55574  0.54462  1.0000
  H   H132      1.0  0.61575  0.15111  0.55082  1.0000
  H   H133      1.0  0.55341  0.41581  0.55894  1.0000
  C   C185      1.0  0.43001  0.1794  0.55133  1.0000
  C   C186      1.0  0.95939  0.31044  0.55368  1.0000
  C   C187      1.0  0.97817  0.39324  0.56381  1.0000
  C   C188      1.0  0.52834  0.14966  0.55785  1.0000
  C   C189      1.0  0.7733799999999997  0.55083  0.56111  1.0000
  C   C190      1.0  0.64055  0.46816  0.56692  1.0000
  H   H134      1.0  0.95055  0.15723  0.55193  1.0000
  C   C191      1.0  0.96074  0.22034  0.55973  1.0000
  H   H135      1.0  0.9839899999999998  0.6869799999999999  0.56716  1.0000
  C   C192      1.0  0.9796299999999998  0.37993  0.58003  1.0000
  C   C193      1.0  0.52076  0.1257  0.57381  1.0000
  H   H136      1.0  0.98517  0.44151  0.58779  1.0000
  C   C194      1.0  0.8822499999999999  0.62136  0.57155  1.0000
  H   H137      1.0  0.6021699999999999  0.10855999999999998  0.57893  1.0000
  C   C195      1.0  0.62274  0.44982  0.58307  1.0000
  H   H138      1.0  0.52261  0.38277  0.58739  1.0000
  C   C196      1.0  0.9613699999999998  0.20676  0.57591  1.0000
  C   C197      1.0  0.4163  0.1332  0.58333  1.0000
  C   C198      1.0  0.95961  0.28297  0.58612  1.0000
  C   C199      1.0  0.8646799999999999  0.60296  0.58767  1.0000
  C   C200      1.0  0.7388999999999999  0.5129  0.59343  1.0000
  H   H139      1.0  0.9507799999999998  0.13301  0.58049  1.0000
  H   H140      1.0  0.9535699999999998  0.65413  0.59558  1.0000
  H   H141      1.0  0.007500000000000011  0.74141  0.00453  1.0000
  C   C201      1.0  0.98416  0.66068  0.0018699999999999997  1.0000
  C   C202      1.0  0.89745  0.24993  0.60184  1.0000
  C   C203      1.0  0.44186  0.14853  0.60033  1.0000
  O   O40       1.0  0.77298  0.1579  0.60336  1.0000
  O   O41       1.0  0.42983  0.22665  0.6073  1.0000
  C   C204      1.0  0.74635  0.47018  0.60886  1.0000
  O   O42       1.0  0.4614400000000001  0.07825  0.6086  1.0000
  O   O43       1.0  0.8711499999999999  0.4731  0.61306  1.0000
  H   H142      1.0  0.6935  0.28068  0.61325  1.0000
  O   O44       1.0  0.9705699999999998  0.30826999999999993  0.61425  1.0000
  O   O45       1.0  0.6349599999999999  0.43946999999999997  0.61885  1.0000
  O   O46       1.0  0.6867  0.26598  0.62454  1.0000
  Ni  Ni10      1.0  0.6415299999999999  0.12014000000000002  0.62239  1.0000
  Ni  Ni11      1.0  0.5232199999999999  0.28897  0.62819  1.0000
  Ni  Ni12      1.0  0.8799499999999998  0.37281  0.62994  1.0000
  O   O47       1.0  0.81824  0.13465  0.63461  1.0000
  O   O48       1.0  0.38502  0.14803  0.63831  1.0000
  O   O49       1.0  0.52  0.06276  0.64179  1.0000
  H   H143      1.0  0.17214  0.89051  0.64556  1.0000
  O   O50       1.0  0.8260499999999998  0.46042  0.64548  1.0000
  H   H144      1.0  0.7009099999999999  0.8906999999999999  0.66084  1.0000
  C   C205      1.0  0.8595899999999997  0.18676  0.64797  1.0000
  C   C206      1.0  0.4327599999999999  0.09701  0.64736  1.0000
  O   O51       1.0  0.9076699999999999  0.29033999999999993  0.64844  1.0000
  H   H145      1.0  0.31554  0.85569  0.64855  1.0000
  O   O52       1.0  0.58034  0.3496  0.65022  1.0000
  C   C207      1.0  0.22932  0.86713  0.65444  1.0000
  C   C208      1.0  0.71475  0.41621  0.65523  1.0000
  H   H146      1.0  0.14604999999999985  0.7894  0.65944  1.0000
  C   C209      1.0  0.65547  0.94544  0.65885  1.0000
  C   C210      1.0  0.8707199999999999  0.13253  0.66216  1.0000
  H   H147      1.0  0.6587999999999999  0.9603399999999999  0.64612  1.0000
  C   C211      1.0  0.36890999999999996  0.06164  0.66307  1.0000
  H   H148      1.0  0.09943999999999999  0.24647  0.66679  1.0000
  H   H149      1.0  0.5386199999999999  0.9041299999999998  0.66261  1.0000
  H   H150      1.0  0.6870399999999999  0.58296  0.66526  1.0000
  C   C212      1.0  0.29777  0.95214  0.66699  1.0000
  C   C213      1.0  0.99697  0.18464  0.67169  1.0000
  C   C214      1.0  0.7431499999999999  0.045709999999999994  0.66841  1.0000
  H   H151      1.0  0.45230999999999993  0.22159  0.67195  1.0000
  H   H152      1.0  0.71852  0.26068  0.67069  1.0000
  C   C215      1.0  0.7339599999999998  0.45706  0.67141  1.0000
  C   C216      1.0  0.40591  0.13825  0.67496  1.0000
  C   C217      1.0  0.7105599999999997  0.54336  0.67474  1.0000
  C   C218      1.0  0.2877099999999999  0.92233  0.68279  1.0000
  H   H153      1.0  0.90497  0.3427199999999999  0.67826  1.0000
  C   C219      1.0  0.78591  0.31077  0.68065  1.0000
  H   H154      1.0  0.22558999999999996  0.22322  0.68888  1.0000
  H   H155      1.0  0.75065  0.73673  0.68623  1.0000
  H   H156      1.0  0.24257999999999988  0.83877  0.68579  1.0000
  C   C220      1.0  0.9900499999999998  0.15857  0.68764  1.0000
  C   C221      1.0  0.72608  0.03913  0.68469  1.0000
  C   C222      1.0  0.7579599999999999  0.4024599999999999  0.6838  1.0000
  C   C223      1.0  0.39083  0.10868  0.69077  1.0000
  H   H157      1.0  0.022649999999999983  0.8084  0.69972  1.0000
  H   H158      1.0  0.021649999999999982  0.93414  0.69815  1.0000
  C   C224      1.0  0.13092  0.19837  0.69691  1.0000
  C   C225      1.0  0.71377  0.57743  0.69028  1.0000
  C   C226      1.0  0.8502599999999999  0.09274  0.69453  1.0000
  H   H159      1.0  0.62029  0.9825  0.6896  1.0000
  H   H160      1.0  0.7550099999999998  0.2569  0.69087  1.0000
  C   C227      1.0  0.6777099999999999  0.66573  0.69335  1.0000
  C   C228      1.0  0.33049  0.99959  0.69473  1.0000
  H   H161      1.0  0.46853000000000017  0.27246  0.69856  1.0000
  H   H162      1.0  0.15281  0.26901  0.70412  1.0000
  H   H163      1.0  0.56141  0.63802  0.68987  1.0000
  C   C229      1.0  0.021820000000000027  0.87455  0.7064  1.0000
  C   C230      1.0  0.7652999999999999  0.4381  0.69924  1.0000
  H   H164      1.0  0.1256  0.13423  0.70455  1.0000
  C   C231      1.0  0.44761999999999996  0.19449  0.70333  1.0000
  H   H165      1.0  0.72328  0.89532  0.70664  1.0000
  H   H166      1.0  0.9179  0.83922  0.71317  1.0000
  H   H167      1.0  0.6908399999999998  0.69147  0.70576  1.0000
  C   C232      1.0  0.7435799999999999  0.52487  0.70265  1.0000
  H   H168      1.0  0.47340999999999994  0.53366  0.71769  1.0000
  C   C233      1.0  0.2981399999999999  0.9656  0.7113  1.0000
  H   H169      1.0  0.36652  0.17373999999999998  0.71292  1.0000
  C   C234      1.0  0.8357699999999999  0.06483  0.71148  1.0000
  H   H170      1.0  0.9447099999999999  0.28295  0.70842  1.0000
  H   H171      1.0  0.79082  0.39934  0.70866  1.0000
  H   H172      1.0  0.55226  0.20449999999999996  0.70833  1.0000
  C   C235      1.0  0.7650499999999998  0.9566299999999998  0.71569  1.0000
  C   C236      1.0  0.1540199999999999  0.9268399999999999  0.71714  1.0000
  H   H173      1.0  0.48308  0.41115  0.71847  1.0000
  H   H174      1.0  0.7987  0.25206  0.72209  1.0000
  C   C237      1.0  0.5045199999999999  0.48426  0.72506  1.0000
  H   H175      1.0  0.5500199999999998  0.77357  0.72505  1.0000
  C   C238      1.0  0.9056099999999999  0.2539  0.72037  1.0000
  H   H176      1.0  0.52528  0.020960000000000003  0.71757  1.0000
  C   C239      1.0  0.7782599999999998  0.57018  0.71875  1.0000
  C   C240      1.0  0.41608999999999996  0.9981499999999999  0.72193  1.0000
  C   C241      1.0  0.8853199999999998  0.144  0.72344  1.0000
  H   H177      1.0  0.01159000000000002  0.6316  0.71565  1.0000
  H   H178      1.0  0.4319  0.45804  0.7355  1.0000
  C   C242      1.0  0.66512  0.54803  0.72974  1.0000
  C   C243      1.0  0.7386299999999998  0.92677  0.73143  1.0000
  C   C244      1.0  0.13437999999999997  0.94084  0.73303  1.0000
  H   H179      1.0  0.024329999999999907  0.9144099999999998  0.73748  1.0000
  C   C245      1.0  0.6229499999999998  0.8139599999999999  0.7353  1.0000
  C   C246      1.0  0.9254299999999998  0.6197799999999999  0.72384  1.0000
  H   H180      1.0  0.98793  0.31332  0.72866  1.0000
  H   H181      1.0  0.55057  0.81354  0.74487  1.0000
  C   C247      1.0  0.8879299999999999  0.11379  0.73903  1.0000
  H   H182      1.0  0.67724  0.76703  0.73862  1.0000
  C   C248      1.0  0.39846  0.018619999999999994  0.73767  1.0000
  C   C249      1.0  0.8136699999999999  0.005189999999999999  0.74327  1.0000
  C   C250      1.0  0.2563099999999998  0.9912699999999998  0.74315  1.0000
  C   C251      1.0  0.70346  0.58874  0.74512  1.0000
  C   C252      1.0  0.9607899999999998  0.6456099999999999  0.73966  1.0000
  H   H183      1.0  0.61813  0.58119  0.75311  1.0000
  H   H184      1.0  0.9377299999999998  0.17512  0.748  1.0000
  H   H185      1.0  0.63289  0.11976999999999997  0.74124  1.0000
  C   C253      1.0  0.85218  0.64252  0.74997  1.0000
  H   H186      1.0  0.15595  0.62798  0.7385  1.0000
  H   H187      1.0  0.1896799999999999  0.7586499999999999  0.74437  1.0000
  C   C254      1.0  0.53193  0.07365  0.74822  1.0000
  C   C255      1.0  0.11216999999999991  0.67165  0.74549  1.0000
  C   C256      1.0  0.23366  0.01781  0.75919  1.0000
  C   C257      1.0  0.8230999999999998  0.97538  0.7598  1.0000
  H   H188      1.0  0.54324  0.013249999999999994  0.7552899999999999  1.0000
  O   O53       1.0  0.15709  0.06717  0.7614  1.0000
  H   H189      1.0  0.52444  0.13232999999999998  0.75614  1.0000
  O   O54       1.0  0.7667199999999997  0.8745799999999998  0.76369  1.0000
  C   C258      1.0  0.89672  0.7103099999999999  0.76435  1.0000
  O   O55       1.0  0.03150999999999984  0.7908399999999998  0.76533  1.0000
  H   H190      1.0  0.10847999999999998  0.64706  0.75788  1.0000
  O   O56       1.0  0.8886799999999998  0.05041  0.7705  1.0000
  O   O57       1.0  0.27724999999999983  0.9830599999999999  0.77118  1.0000
  O   O58       1.0  0.7981799999999994  0.6969799999999998  0.77506  1.0000
  Ni  Ni13      1.0  0.07001  0.06937  0.78226  1.0000
  Ni  Ni14      1.0  0.13004999999999983  0.86995  0.7853  1.0000
  Ni  Ni15      1.0  0.79065  0.82555  0.78584  1.0000
  O   O59       1.0  0.9946599999999999  0.9222899999999999  0.7875999999999999  1.0000
  O   O60       1.0  0.26312  0.11466  0.79388  1.0000
  O   O61       1.0  0.7459199999999999  0.9376599999999999  0.7970099999999999  1.0000
  O   O62       1.0  0.0022700000000000138  0.74018  0.79897  1.0000
  H   H191      1.0  0.0007000000000000181  0.93048  0.79907  1.0000
  O   O63       1.0  0.9732999999999999  0.08809999999999998  0.8016499999999999  1.0000
  O   O64       1.0  0.24805999999999997  0.95951  0.8036500000000001  1.0000
  C   C259      1.0  0.27597999999999995  0.059639999999999985  0.8057099999999999  1.0000
  H   H192      1.0  0.6408899999999998  0.57515  0.82072  1.0000
  H   H193      1.0  0.6569599999999999  0.1109  0.8087100000000002  1.0000
  O   O65       1.0  0.8035800000000001  0.7584000000000002  0.80687  1.0000
  C   C260      1.0  0.84144  0.014249999999999995  0.8065699999999999  1.0000
  H   H194      1.0  0.8435799999999998  0.21983  0.81156  1.0000
  C   C261      1.0  0.91445  0.7407699999999999  0.81022  1.0000
  H   H195      1.0  0.41785  0.30051  0.8052899999999998  1.0000
  C   C262      1.0  0.74034  0.1627  0.81758  1.0000
  H   H196      1.0  0.39144999999999985  0.9939299999999998  0.8287  1.0000
  C   C263      1.0  0.33307  0.11207  0.8211300000000001  1.0000
  H   H197      1.0  0.6293100000000001  0.68446  0.83029  1.0000
  C   C264      1.0  0.65868  0.62038  0.8318399999999999  1.0000
  H   H198      1.0  0.69594  0.20909  0.82376  1.0000
  C   C265      1.0  0.80333  0.016039999999999992  0.82313  1.0000
  C   C266      1.0  0.3735  0.05916  0.83231  1.0000
  H   H199      1.0  0.58166  0.56309  0.84056  1.0000
  C   C267      1.0  0.9363299999999998  0.7160099999999998  0.8265999999999999  1.0000
  H   H200      1.0  0.22324999999999995  0.2568099999999999  0.8083999999999999  1.0000
  C   C268      1.0  0.33185999999999993  0.28474  0.81417  1.0000
  C   C269      1.0  0.77185  0.09533  0.82879  1.0000
  H   H201      1.0  0.17129999999999998  0.78128  0.8237699999999999  1.0000
  C   C270      1.0  0.32294999999999996  0.20314  0.82585  1.0000
  C   C271      1.0  0.8170999999999998  0.6684499999999999  0.83728  1.0000
  H   H202      1.0  0.8556299999999999  0.8935  0.82943  1.0000
  C   C272      1.0  0.8287199999999999  0.9527299999999999  0.83377  1.0000
  H   H203      1.0  0.47669  0.98361  0.85392  1.0000
  C   C273      1.0  0.08001  0.74662  0.8318999999999999  1.0000
  H   H204      1.0  0.36350999999999983  0.3625699999999999  0.81998  1.0000
  C   C274      1.0  0.38820999999999994  0.08854  0.8481500000000001  1.0000
  C   C275      1.0  0.43661000000000005  0.033420000000000005  0.8598200000000001  1.0000
  C   C276      1.0  0.77462  0.11377  0.84502  1.0000
  C   C277      1.0  0.32014999999999993  0.22374999999999995  0.84185  1.0000
  C   C278      1.0  0.84634  0.66295  0.8532100000000001  1.0000
  H   H205      1.0  0.7552599999999999  0.17687  0.8493799999999999  1.0000
  H   H206      1.0  0.66094  0.33163  0.85627  1.0000
  H   H207      1.0  0.528  0.09363999999999999  0.8672  1.0000
  C   C279      1.0  0.10649999999999998  0.73156  0.8476  1.0000
  C   C280      1.0  0.3562  0.16884  0.8530199999999999  1.0000
  H   H208      1.0  0.7562899999999999  0.63159  0.8615100000000001  1.0000
  C   C281      1.0  0.8325199999999999  0.97142  0.8499299999999999  1.0000
  H   H209      1.0  0.34248999999999985  0.8001299999999999  0.84376  1.0000
  H   H210      1.0  0.55622  0.4011  0.85369  1.0000
  H   H211      1.0  0.30135  0.28841  0.84555  1.0000
  H   H212      1.0  0.3431399999999998  0.9810099999999998  0.8674399999999999  1.0000
  C   C282      1.0  0.98885  0.69072  0.85838  1.0000
  C   C283      1.0  0.8028999999999998  0.051419999999999993  0.85564  1.0000
  C   C284      1.0  0.60998  0.37389  0.86236  1.0000
  H   H213      1.0  0.94565  0.8835999999999999  0.8552499999999998  1.0000
  C   C285      1.0  0.25709999999999994  0.75023  0.85243  1.0000
  H   H214      1.0  0.02743999999999999  0.28822  0.86402  1.0000
  H   H215      1.0  0.25487  0.67229  0.8533299999999999  1.0000
  H   H216      1.0  0.9887699999999999  0.50958  0.8651799999999998  1.0000
  H   H217      1.0  0.6987699999999999  0.44666  0.868  1.0000
  C   C286      1.0  0.86806  0.90533  0.86092  1.0000
  H   H218      1.0  0.09004999999999995  0.19185999999999998  0.8618599999999998  1.0000
  C   C287      1.0  0.3763399999999999  0.20389999999999997  0.8695899999999999  1.0000
  C   C288      1.0  0.058819999999999976  0.23516999999999996  0.8704399999999999  1.0000
  H   H219      1.0  0.923  0.9498199999999999  0.87178  1.0000
  H   H220      1.0  0.29021  0.79185  0.8639499999999999  1.0000
  C   C289      1.0  0.4994999999999999  0.30123  0.87423  1.0000
  C   C290      1.0  0.006610000000000024  0.6554  0.87413  1.0000
  C   C291      1.0  0.8048499999999998  0.07213999999999998  0.8727399999999998  1.0000
  H   H221      1.0  0.76504  0.83143  0.86402  1.0000
  C   C292      1.0  0.9866699999999998  0.55244  0.87559  1.0000
  H   H222      1.0  0.8644699999999998  0.34466  0.87853  1.0000
  H   H223      1.0  0.18049000000000004  0.06307000000000001  0.8771599999999999  1.0000
  H   H224      1.0  0.96776  0.84323  0.89065  1.0000
  H   H225      1.0  0.59186  0.93365  0.87653  1.0000
  H   H226      1.0  0.15689999999999996  0.28574  0.8778800000000001  1.0000
  C   C293      1.0  0.27646  0.13665  0.8808599999999999  1.0000
  C   C294      1.0  0.9306199999999999  0.15639  0.88005  1.0000
  C   C295      1.0  0.6836799999999998  0.0032899999999999887  0.8818899999999998  1.0000
  H   H227      1.0  0.09824999999999998  0.8651799999999998  0.8752799999999998  1.0000
  C   C296      1.0  0.061199999999999935  0.83127  0.8870900000000002  1.0000
  C   C297      1.0  0.014099999999999988  0.71416  0.8877799999999999  1.0000
  C   C298      1.0  0.8982399999999999  0.38234  0.89032  1.0000
  C   C299      1.0  0.9436299999999999  0.49887999999999993  0.88988  1.0000
  C   C300      1.0  0.5228  0.32875  0.8901299999999999  1.0000
  H   H228      1.0  0.61739  0.40380999999999995  0.89366  1.0000
  H   H229      1.0  0.99458  0.37588  0.8943999999999999  1.0000
  H   H230      1.0  0.80254  0.33771999999999996  0.8981399999999999  1.0000
  C   C301      1.0  0.29921999999999993  0.16427  0.89682  1.0000
  C   C302      1.0  0.92974  0.17259999999999998  0.89628  1.0000
  H   H231      1.0  0.15504999999999997  0.8764899999999999  0.8953  1.0000
  C   C303      1.0  0.6785  0.025799999999999993  0.8978299999999999  1.0000
  C   C304      1.0  0.4286299999999999  0.25868  0.90156  1.0000
  H   H232      1.0  0.027450000000000016  0.23502  0.90203  1.0000
  C   C305      1.0  0.98229  0.6633799999999999  0.90243  1.0000
  C   C306      1.0  0.9447599999999999  0.55536  0.9036099999999999  1.0000
  H   H233      1.0  0.07693  0.040309999999999985  0.90257  1.0000
  C   C307      1.0  0.7981099999999999  0.11775999999999999  0.90468  1.0000
  H   H234      1.0  0.49268000000000006  0.86968  0.90272  1.0000
  H   H235      1.0  0.46132999999999996  0.9807  0.90639  1.0000
  C   C308      1.0  0.5439699999999998  0.9531099999999999  0.9072399999999999  1.0000
  C   C309      1.0  0.18378  0.09406  0.9084799999999998  1.0000
  H   H236      1.0  0.9882499999999999  0.70845  0.9129  1.0000
  H   H237      1.0  0.22066999999999995  0.04336  0.9146799999999999  1.0000
  C   C310      1.0  0.47053999999999996  0.28578  0.91825  1.0000
  H   H238      1.0  0.16247  0.14327  0.91704  1.0000
  C   C311      1.0  0.9112899999999999  0.50286  0.9191799999999999  1.0000
  C   C312      1.0  0.77553  0.16926  0.9187  1.0000
  O   O66       1.0  0.64923  0.1681  0.92025  1.0000
  O   O67       1.0  0.96147  0.43687999999999994  0.9224899999999999  1.0000
  O   O68       1.0  0.55241  0.38639  0.92227  1.0000
  H   H239      1.0  0.5733499999999998  0.9516999999999998  0.91973  1.0000
  O   O69       1.0  0.8855  0.22199  0.9287599999999999  1.0000
  O   O70       1.0  0.4258  0.21074  0.9289299999999999  1.0000
  O   O71       1.0  0.85712  0.53714  0.9303099999999999  1.0000
  Ni  Ni16      1.0  0.9145599999999999  0.34845  0.94226  1.0000
  Ni  Ni17      1.0  0.56774  0.17814999999999998  0.94095  1.0000
  Ni  Ni18      1.0  0.67105  0.43372  0.9430099999999999  1.0000
  O   O72       1.0  0.7161699999999998  0.32181  0.94478  1.0000
  O   O73       1.0  0.6760599999999999  0.11602999999999998  0.95334  1.0000
  O   O74       1.0  0.99348  0.4839399999999999  0.95593  1.0000
  O   O75       1.0  0.4758899999999999  0.34614999999999996  0.95583  1.0000
  H   H240      1.0  0.7142499999999998  0.31799999999999995  0.9562699999999998  1.0000
  O   O76       1.0  0.45788  0.18073  0.96031  1.0000
  O   O77       1.0  0.8991099999999997  0.26047  0.9610399999999999  1.0000
  O   O78       1.0  0.7952200000000001  0.5060700000000001  0.96283  1.0000
  C   C313      1.0  0.7769  0.17056  0.96435  1.0000
  C   C314      1.0  0.4521299999999999  0.26622  0.96538  1.0000
  C   C315      1.0  0.9137799999999999  0.49956  0.96673  1.0000
  H   H241      1.0  0.07459999999999999  0.70111  0.9786999999999999  1.0000
  H   H242      1.0  0.9853099999999998  0.17797  0.98447  1.0000
  C   C316      1.0  0.75551  0.13041  0.9804999999999999  1.0000
  H   H243      1.0  0.19523  0.11436  0.97792  1.0000
  C   C317      1.0  0.9712199999999998  0.5310999999999999  0.98269  1.0000
  C   C318      1.0  0.39736  0.26411  0.98127  1.0000
  H   H244      1.0  0.51963  0.06940999999999999  0.9807299999999999  1.0000
  C   C319      1.0  0.023250000000000035  0.63788  0.98725  1.0000
  C   C320      1.0  0.8800999999999999  0.15564  0.98987  1.0000
  H   H245      1.0  0.58719  0.41226999999999997  0.9885999999999999  1.0000
  C   C321      1.0  0.27051  0.17205  0.98638  1.0000
  C   C322      1.0  0.6184999999999999  0.09517  0.98774  1.0000
  H   H246      1.0  0.8826799999999998  0.36984  0.9911799999999998  1.0000
  C   C323      1.0  0.4905999999999998  0.33980999999999995  0.99237  1.0000
  C   C324      1.0  0.9162599999999999  0.45193  0.9942699999999999  1.0000
