data_image0
_chemical_formula_structural       CHCHC2OCOHC2HCNiOCO5NiONiOCH2CHCH2COCO2C5HC2HC2HCH2CH2C4HCHC3HCHC2HCHCHC3HC3H5C3HC2HC5H2CHC2H2C3H2C3HC2HCOHC2O2N2ONi2O3CNiONCO2HCO2C2OC7HC2HC2HC2H3C9O2C2NOCOHOCO2NiNNiNNiO3HOCO2C4HCH2CHC3H2C6HCH2C5H2CH3C3HC3HCHCHCHC2HC2HC3HCHCHC2H2CH2C3HC2HCHC4HCHOCHC2O2CONiHCONiO3HOCOHCNiHC2O2HC4HOCHCHC3HC4H3CH3C5HCHC3HCHC3HC3H3C2HC2H2C2H2C2H2CHC4HC3H2C2HC5H2C2O2COHO3Ni2ONiNOHO2CO2C2HOCHC6NC6NCHC2HNC3NC4HC2O2CHCOHO3NONi3O4CHCO2C3H2CHCHC2HC3HCHC6HCHCHCH2CHCHC2H2C2HC2HC3HCHC2HCHC3HCH2C2H2C3HC2HCH2C4OHC4HO2CH2NiCOCOHO2NiONiO2C2O2HCHCOHC2HC2HC8H2CH2C2H3C2H2C3H2C5HCHC2HCHC2H2CHC2HCHC2H2C3HCHC3HCHC2HC3HC2HCHC2OHCO5HNNiNNi2OCOCO2HC2OC4NCO2C2HCHC2HCHCHC2HC7OC3OCO3CNNiNONONi2O2HO2C2O2HC4H3C3HC2HC4HCHCH3C3HC3HC2H5C6HC4HC2HCH2C2HCH3C2HCHC2HC3HC2
_chemical_formula_sum              "C450 H243 O117 Ni27 N18"
_cell_length_a       11.07938
_cell_length_b       11.2844
_cell_length_c       127.60133
_cell_angle_alpha    90.00248
_cell_angle_beta     90.03115
_cell_angle_gamma    119.81558000000001

_space_group_name_H-M_alt    "P 1"
_space_group_IT_number       1

loop_
  _space_group_symop_operation_xyz
  'x, y, z'

loop_
  _atom_site_type_symbol
  _atom_site_label
  _atom_site_symmetry_multiplicity
  _atom_site_fract_x
  _atom_site_fract_y
  _atom_site_fract_z
  _atom_site_occupancy
  C   C1        1.0  0.39702  0.42894999999999994  0.002290000000000001  1.0000
  H   H1        1.0  0.40509000000000006  0.40868  0.010470000000000004  1.0000
  C   C2        1.0  0.36908  0.5641  0.98874  1.0000
  H   H2        1.0  0.7168699999999999  0.36281  0.99956  1.0000
  C   C3        1.0  0.67322  0.25411  0.9983300000000003  1.0000
  C   C4        1.0  0.6277  0.0316  0.00431  1.0000
  O   O1        1.0  0.03019000000000002  0.35565  1e-05  1.0000
  C   C5        1.0  0.02038  0.23547  0.0018100000000000004  1.0000
  O   O2        1.0  0.23750000000000004  0.62997  0.005800000000000001  1.0000
  H   H3        1.0  0.35420000000000007  0.64803  0.98638  1.0000
  C   C6        1.0  0.37909000000000004  0.53947  0.9993900000000002  1.0000
  C   C7        1.0  0.69036  0.17328000000000002  0.005930000000000002  1.0000
  H   H4        1.0  0.63708  0.96702  0.01015  1.0000
  C   C8        1.0  0.34382000000000007  0.6115  0.00738  1.0000
  Ni  Ni1       1.0  0.049970000000000056  0.4943600000000001  0.01132  1.0000
  O   O3        1.0  0.08754000000000003  0.21935  0.00962  1.0000
  C   C9        1.0  0.79172  0.241  0.014540000000000004  1.0000
  O   O4        1.0  0.40003  0.63262  0.01675  1.0000
  O   O5        1.0  0.8298200000000001  0.17044  0.02063  1.0000
  O   O6        1.0  0.85104  0.37342  0.01554  1.0000
  O   O7        1.0  0.04033000000000007  0.6399300000000001  0.01995  1.0000
  O   O8        1.0  0.37809000000000004  0.44554  0.030940000000000006  1.0000
  Ni  Ni2       1.0  0.03702000000000002  0.23275  0.02494  1.0000
  O   O9        1.0  0.11024999999999996  0.42444  0.0229  1.0000
  Ni  Ni3       1.0  0.28174  0.55651  0.02968000000000001  1.0000
  O   O10       1.0  0.21277  0.22375  0.02966  1.0000
  C   C10       1.0  0.31758000000000003  0.32216000000000006  0.03469  1.0000
  H   H5        1.0  0.04658000000000005  0.43163000000000007  0.027900000000000008  1.0000
  H   H6        1.0  0.15171  0.91226  0.03937  1.0000
  C   C11       1.0  0.10833999999999999  0.68467  0.028860000000000007  1.0000
  H   H7        1.0  0.36316  0.1061  0.0363  1.0000
  C   C12       1.0  0.38466  0.2898  0.04335  1.0000
  H   H8        1.0  0.43454000000000004  0.47258000000000006  0.05211  1.0000
  H   H9        1.0  0.8952200000000001  0.47543  0.03933000000000001  1.0000
  C   C13       1.0  0.0362  0.69292  0.03825  1.0000
  O   O11       1.0  0.008620000000000008  0.26633  0.04058000000000001  1.0000
  C   C14       1.0  0.08884000000000009  0.8178  0.04352  1.0000
  O   O12       1.0  0.23679  0.70881  0.029740000000000006  1.0000
  O   O13       1.0  0.18976000000000007  0.48688  0.04403  1.0000
  C   C15       1.0  0.38942  0.1678  0.043330000000000014  1.0000
  C   C16       1.0  0.43387  0.37624  0.05211  1.0000
  C   C17       1.0  0.9424800000000001  0.57217  0.043450000000000016  1.0000
  C   C18       1.0  0.07038000000000005  0.8199800000000002  0.05435  1.0000
  C   C19       1.0  0.10973000000000001  0.35583  0.04677000000000001  1.0000
  H   H10       1.0  0.42579  0.028250000000000004  0.05250000000000001  1.0000
  C   C20       1.0  0.4279700000000001  0.12531  0.052420000000000015  1.0000
  C   C21       1.0  0.4738800000000001  0.33473  0.061140000000000014  1.0000
  H   H11       1.0  0.8604700000000002  0.47851  0.058380000000000015  1.0000
  C   C22       1.0  0.9226800000000001  0.57391  0.05426  1.0000
  C   C23       1.0  0.99547  0.69684  0.05987  1.0000
  H   H12       1.0  0.12246000000000001  0.91618  0.05853000000000001  1.0000
  C   C24       1.0  0.4670700000000001  0.20736000000000002  0.06144  1.0000
  H   H13       1.0  0.50657  0.39986  0.06801  1.0000
  H   H14       1.0  0.11912000000000005  0.50126  0.06403  1.0000
  C   C25       1.0  0.10755000000000003  0.3179100000000001  0.05778000000000001  1.0000
  H   H15       1.0  0.09714  0.1261  0.054100000000000016  1.0000
  H   H16       1.0  0.7190800000000002  0.2625  0.06876000000000003  1.0000
  C   C26       1.0  0.10462999999999997  0.40132  0.06581  1.0000
  C   C27       1.0  0.09258  0.19018000000000002  0.06023000000000001  1.0000
  C   C28       1.0  0.49706  0.15912  0.07129000000000003  1.0000
  C   C29       1.0  0.015279999999999985  0.69355  0.07131  1.0000
  H   H17       1.0  0.23922000000000002  0.78819  0.07025000000000003  1.0000
  C   C30       1.0  0.6353700000000002  0.20688  0.07429000000000002  1.0000
  H   H18       1.0  0.7958900000000001  0.59387  0.07497  1.0000
  C   C31       1.0  0.89979  0.62971  0.07799000000000003  1.0000
  C   C32       1.0  0.07543000000000002  0.35246  0.0761  1.0000
  C   C33       1.0  0.14938999999999997  0.73995  0.07536000000000002  1.0000
  H   H19       1.0  0.2823  0.04809  0.07623  1.0000
  C   C34       1.0  0.38955  0.08574  0.07849  1.0000
  H   H20       1.0  0.06582000000000009  0.41424000000000005  0.08217000000000003  1.0000
  C   C35       1.0  0.05175000000000002  0.22108000000000003  0.07841000000000002  1.0000
  C   C36       1.0  0.06612999999999998  0.14254  0.07052  1.0000
  H   H21       1.0  0.05011  0.04178  0.07228  1.0000
  C   C37       1.0  0.6667800000000002  0.19303  0.08467000000000002  1.0000
  H   H22       1.0  0.77433  0.24076  0.08709000000000003  1.0000
  C   C38       1.0  0.91775  0.60677  0.08851  1.0000
  H   H23       1.0  0.79643  0.008950000000000001  0.08254000000000003  1.0000
  C   C39       1.0  0.16725999999999996  0.71664  0.08585  1.0000
  C   C40       1.0  0.42088  0.06986  0.08884  1.0000
  C   C41       1.0  0.5600000000000002  0.12929  0.09210000000000003  1.0000
  H   H24       1.0  0.82759  0.55389  0.09353000000000003  1.0000
  C   C42       1.0  0.86316  0.04476  0.08938000000000003  1.0000
  C   C43       1.0  0.051309999999999995  0.6468  0.09241000000000003  1.0000
  C   C44       1.0  0.9965800000000001  0.15938  0.08869  1.0000
  H   H25       1.0  0.27064  0.74732  0.08875  1.0000
  H   H26       1.0  0.3375  0.02057  0.0945  1.0000
  H   H27       1.0  0.62071  0.35957  0.10243000000000002  1.0000
  H   H28       1.0  0.9328300000000003  0.38693000000000005  0.09945  1.0000
  H   H29       1.0  0.71774  0.87977  0.09903000000000003  1.0000
  C   C45       1.0  0.8180100000000001  0.97244  0.09875  1.0000
  C   C46       1.0  0.06772999999999998  0.60061  0.10288000000000003  1.0000
  C   C47       1.0  0.08153  0.20573  0.09761  1.0000
  H   H30       1.0  0.18426  0.29506  0.09716  1.0000
  C   C48       1.0  0.5936400000000001  0.15694  0.10333  1.0000
  C   C49       1.0  0.9981099999999999  0.46092  0.10526  1.0000
  H   H31       1.0  0.5621900000000001  0.95635  0.10698000000000003  1.0000
  C   C50       1.0  0.5923700000000001  0.05705  0.10998000000000002  1.0000
  C   C51       1.0  0.62383  0.28359  0.10743000000000003  1.0000
  C   C52       1.0  0.90645  0.012850000000000002  0.10748  1.0000
  C   C53       1.0  0.15525999999999998  0.69531  0.11041000000000001  1.0000
  C   C54       1.0  0.03672  0.13244  0.10698000000000003  1.0000
  H   H32       1.0  0.21044  0.8035300000000001  0.10863000000000003  1.0000
  H   H33       1.0  0.9530600000000001  0.30812  0.11691000000000003  1.0000
  C   C55       1.0  0.011330000000000019  0.4161500000000001  0.11514000000000003  1.0000
  H   H34       1.0  0.88297  0.7647  0.10605  1.0000
  C   C56       1.0  0.62779  0.08681000000000001  0.12061000000000002  1.0000
  C   C57       1.0  0.65494  0.31185  0.11802  1.0000
  H   H35       1.0  0.6714200000000001  0.4078  0.12113000000000003  1.0000
  H   H36       1.0  0.86942  0.04669  0.12812  1.0000
  C   C58       1.0  0.8765300000000003  0.9154600000000002  0.11608000000000003  1.0000
  C   C59       1.0  0.1694300000000001  0.6504900000000001  0.12034000000000003  1.0000
  C   C60       1.0  0.8712800000000002  0.79119  0.11399  1.0000
  H   H37       1.0  0.10585  0.16464  0.11369  1.0000
  H   H38       1.0  0.62522  0.00891  0.12571  1.0000
  C   C61       1.0  0.66095  0.21550000000000002  0.12465  1.0000
  C   C62       1.0  0.8637300000000002  0.9499800000000002  0.12643000000000004  1.0000
  C   C63       1.0  0.09521  0.51047  0.12283000000000002  1.0000
  H   H39       1.0  0.23506000000000002  0.72482  0.12614  1.0000
  C   C64       1.0  0.84978  0.8619000000000001  0.13466  1.0000
  C   C65       1.0  0.86084  0.70539  0.12218  1.0000
  H   H40       1.0  0.87022  0.61629  0.12053  1.0000
  C   C66       1.0  0.69423  0.24937000000000004  0.13587  1.0000
  O   O14       1.0  0.012940000000000023  0.33367  0.13601000000000005  1.0000
  H   H41       1.0  0.8456500000000001  0.89157  0.14267000000000005  1.0000
  C   C67       1.0  0.09210000000000004  0.46335  0.13372000000000006  1.0000
  C   C68       1.0  0.8524500000000002  0.7410700000000001  0.13257  1.0000
  O   O15       1.0  0.6665100000000003  0.33940000000000003  0.14009  1.0000
  O   O16       1.0  0.9882600000000001  0.65389  0.14027  1.0000
  N   N1        1.0  0.33372  0.24114000000000002  0.15977  1.0000
  N   N2        1.0  0.32877  0.94147  0.16614  1.0000
  O   O17       1.0  0.73488  0.17944  0.14180000000000006  1.0000
  Ni  Ni4       1.0  0.7329400000000003  0.42151000000000016  0.15482000000000007  1.0000
  Ni  Ni5       1.0  0.91824  0.27096  0.14993  1.0000
  O   O18       1.0  0.9063000000000001  0.42774  0.15415  1.0000
  O   O19       1.0  0.78995  0.61431  0.14875  1.0000
  O   O20       1.0  0.10311000000000001  0.33754  0.15761  1.0000
  C   C69       1.0  0.87938  0.6699000000000002  0.14103000000000004  1.0000
  Ni  Ni6       1.0  0.0696  0.60041  0.15227000000000004  1.0000
  O   O21       1.0  0.16456000000000007  0.55079  0.14114  1.0000
  N   N3        1.0  0.007960000000000057  0.98303  0.16669000000000006  1.0000
  C   C70       1.0  0.4138400000000002  0.9939  0.17248000000000005  1.0000
  O   O22       1.0  0.6383700000000002  0.22457  0.16114  1.0000
  O   O23       1.0  0.8114600000000001  0.16843  0.16288000000000005  1.0000
  H   H42       1.0  0.9168200000000002  0.41853000000000007  0.16171  1.0000
  C   C71       1.0  0.15234000000000006  0.4341400000000001  0.16503  1.0000
  O   O24       1.0  0.0018799999999999856  0.69067  0.1629  1.0000
  O   O25       1.0  0.17399  0.5591  0.16317  1.0000
  C   C72       1.0  0.30177  0.2795  0.16709  1.0000
  C   C73       1.0  0.70643  0.17859000000000003  0.16684000000000004  1.0000
  O   O26       1.0  0.79139  0.51822  0.16924000000000006  1.0000
  C   C74       1.0  0.91571  0.62653  0.17085000000000006  1.0000
  C   C75       1.0  0.0053800000000000575  0.9166400000000001  0.17369  1.0000
  C   C76       1.0  0.51988  0.05912  0.18042000000000005  1.0000
  C   C77       1.0  0.66215  0.13361  0.1777  1.0000
  C   C78       1.0  0.19766  0.40815  0.1753  1.0000
  C   C79       1.0  0.0014600000000000732  0.8334200000000002  0.18244000000000005  1.0000
  C   C80       1.0  0.26227000000000006  0.3275100000000001  0.17625  1.0000
  H   H43       1.0  0.33857000000000004  0.23231  0.18704  1.0000
  C   C81       1.0  0.9469  0.6912200000000001  0.18127  1.0000
  C   C82       1.0  0.29694000000000004  0.30091  0.18623  1.0000
  H   H44       1.0  0.37148  0.9966  0.19306000000000006  1.0000
  C   C83       1.0  0.48086  0.04589000000000001  0.19098000000000007  1.0000
  C   C84       1.0  0.7633  0.17748  0.18563000000000004  1.0000
  H   H45       1.0  0.13806  0.53851  0.18354000000000006  1.0000
  C   C85       1.0  0.18286000000000005  0.47251000000000004  0.18424  1.0000
  C   C86       1.0  0.0439  0.8934  0.19234000000000007  1.0000
  H   H46       1.0  0.09323000000000001  0.0034000000000000002  0.19316  1.0000
  H   H47       1.0  0.8728200000000002  0.22933  0.18357000000000007  1.0000
  H   H48       1.0  0.87167  0.4993000000000001  0.18941  1.0000
  C   C87       1.0  0.91968  0.60932  0.19021000000000005  1.0000
  C   C88       1.0  0.22566000000000005  0.45254000000000005  0.19407000000000005  1.0000
  C   C89       1.0  0.27577  0.36057  0.19518  1.0000
  C   C90       1.0  0.58235  0.10541000000000002  0.19882000000000005  1.0000
  C   C91       1.0  0.72388  0.16299  0.19617  1.0000
  C   C92       1.0  0.02569000000000001  0.81225  0.20116  1.0000
  C   C93       1.0  0.21829000000000015  0.5272  0.20301  1.0000
  C   C94       1.0  0.95568  0.66902  0.20017000000000004  1.0000
  C   C95       1.0  0.27738  0.30505  0.20556  1.0000
  O   O27       1.0  0.20625000000000013  0.8669000000000001  0.2138  1.0000
  O   O28       1.0  0.55319  0.25918  0.21009000000000005  1.0000
  C   C96       1.0  0.54261  0.13754  0.20891000000000007  1.0000
  C   C97       1.0  0.8293000000000001  0.21125  0.20423  1.0000
  N   N4        1.0  0.21306000000000017  0.58703  0.2102  1.0000
  O   O29       1.0  0.16042999999999996  0.19795  0.20883  1.0000
  C   C98       1.0  0.09741000000000014  0.8779600000000001  0.21092000000000005  1.0000
  O   O30       1.0  0.37902000000000013  0.3820700000000001  0.21226000000000006  1.0000
  H   H49       1.0  0.31108  0.11451  0.21481  1.0000
  O   O31       1.0  0.51599  0.05374  0.21698  1.0000
  C   C99       1.0  0.91626  0.5828700000000001  0.20935000000000006  1.0000
  O   O32       1.0  0.03849000000000012  0.9253200000000001  0.21748  1.0000
  O   O33       1.0  0.31422000000000005  0.12917  0.22242  1.0000
  Ni  Ni7       1.0  0.47043  0.30905  0.22228000000000006  1.0000
  N   N5        1.0  0.91344  0.24966  0.21072000000000005  1.0000
  Ni  Ni8       1.0  0.3353700000000001  0.9788300000000001  0.22611  1.0000
  N   N6        1.0  0.88454  0.51415  0.21672000000000005  1.0000
  Ni  Ni9       1.0  0.13734  0.11981000000000001  0.22328  1.0000
  O   O34       1.0  0.19666000000000003  0.3064200000000001  0.22939000000000007  1.0000
  O   O35       1.0  0.5969000000000001  0.27129  0.23163  1.0000
  O   O36       1.0  0.41912  0.37797  0.23503  1.0000
  H   H50       1.0  0.12559000000000006  0.47541  0.23821  1.0000
  O   O37       1.0  0.08949000000000001  0.043050000000000005  0.23796000000000006  1.0000
  C   C100      1.0  0.29555  0.36509  0.23653000000000005  1.0000
  O   O38       1.0  0.16059000000000004  0.88667  0.23566000000000006  1.0000
  O   O39       1.0  0.45581  0.06471000000000002  0.23935000000000006  1.0000
  C   C101      1.0  0.55208  0.19401  0.24008  1.0000
  C   C102      1.0  0.18223000000000003  0.48351  0.24534  1.0000
  C   C103      1.0  0.2742000000000001  0.43168000000000006  0.24576  1.0000
  C   C104      1.0  0.12924000000000005  0.9602900000000001  0.24187000000000006  1.0000
  H   H51       1.0  0.67359  0.45545  0.24745  1.0000
  C   C105      1.0  0.62233  0.24654000000000004  0.25027  1.0000
  H   H52       1.0  0.09594999999999998  0.5902  0.25366  1.0000
  H   H53       1.0  0.42475000000000007  0.41236000000000006  0.25532  1.0000
  C   C106      1.0  0.66699  0.38205  0.2532200000000001  1.0000
  H   H54       1.0  0.59058  0.050960000000000005  0.25561  1.0000
  C   C107      1.0  0.16527000000000006  0.54851  0.2541200000000001  1.0000
  C   C108      1.0  0.16536  0.97231  0.25297  1.0000
  C   C109      1.0  0.34996  0.4472400000000001  0.25498  1.0000
  H   H55       1.0  0.33077  0.1802  0.25139  1.0000
  H   H56       1.0  0.9970800000000001  0.7723100000000002  0.25717  1.0000
  C   C110      1.0  0.6195400000000001  0.15443  0.25782  1.0000
  C   C111      1.0  0.23706000000000002  0.55857  0.26349  1.0000
  C   C112      1.0  0.3289099999999999  0.50685  0.26384  1.0000
  C   C113      1.0  0.27031  0.0979  0.25676  1.0000
  C   C114      1.0  0.08150000000000007  0.86843  0.26002  1.0000
  C   C115      1.0  0.69132  0.41996  0.2638100000000001  1.0000
  H   H57       1.0  0.71923  0.52302  0.2660700000000001  1.0000
  C   C116      1.0  0.21067000000000013  0.61611  0.2731  1.0000
  H   H58       1.0  0.4284  0.74385  0.2770600000000001  1.0000
  H   H59       1.0  0.38334000000000007  0.51192  0.27102  1.0000
  C   C117      1.0  0.29318  0.11982999999999999  0.26748  1.0000
  C   C118      1.0  0.10164999999999993  0.89194  0.2708200000000001  1.0000
  C   C119      1.0  0.6714400000000001  0.32258  0.2715  1.0000
  C   C120      1.0  0.6427900000000001  0.19187  0.2683800000000001  1.0000
  C   C121      1.0  0.3219800000000001  0.70426  0.2796200000000001  1.0000
  H   H60       1.0  0.37246  0.21848  0.2702900000000001  1.0000
  H   H61       1.0  0.03042000000000008  0.8156400000000001  0.2762400000000001  1.0000
  C   C122      1.0  0.20970000000000005  0.01698  0.27455  1.0000
  H   H62       1.0  0.631  0.11684  0.27419  1.0000
  H   H63       1.0  0.9868100000000001  0.50538  0.27138  1.0000
  H   H64       1.0  0.8096400000000001  0.28686  0.28774  1.0000
  C   C123      1.0  0.07371000000000001  0.57161  0.2763500000000001  1.0000
  C   C124      1.0  0.29605  0.7366  0.28965  1.0000
  C   C125      1.0  0.23164000000000007  0.043050000000000005  0.28584  1.0000
  H   H65       1.0  0.42367  0.03764  0.28608  1.0000
  C   C126      1.0  0.66545  0.35237  0.28275  1.0000
  C   C127      1.0  0.74174  0.32505  0.29021000000000013  1.0000
  C   C128      1.0  0.04844  0.61048  0.28613  1.0000
  H   H66       1.0  0.38251  0.79969  0.2947800000000001  1.0000
  C   C129      1.0  0.35065  0.05396000000000001  0.29061  1.0000
  H   H67       1.0  0.5165  0.42092  0.2804600000000001  1.0000
  C   C130      1.0  0.5780500000000001  0.40201  0.28609  1.0000
  H   H68       1.0  0.9435600000000001  0.58321  0.28827  1.0000
  C   C131      1.0  0.15878000000000006  0.6875800000000001  0.29302  1.0000
  H   H69       1.0  0.0489  0.06234  0.28798  1.0000
  C   C132      1.0  0.73714  0.3549  0.3008000000000001  1.0000
  C   C133      1.0  0.14004000000000003  0.06865  0.29167  1.0000
  H   H70       1.0  0.9935200000000002  0.78881  0.2992400000000001  1.0000
  C   C134      1.0  0.12972999999999998  0.71227  0.3038900000000001  1.0000
  C   C135      1.0  0.37569  0.08586  0.30124  1.0000
  H   H71       1.0  0.46720000000000006  0.0924  0.30487  1.0000
  C   C136      1.0  0.5667400000000002  0.42374  0.2967400000000001  1.0000
  C   C137      1.0  0.16498000000000002  0.10106  0.30229  1.0000
  C   C138      1.0  0.64795  0.40259  0.3041700000000001  1.0000
  H   H72       1.0  0.80357  0.34184  0.30635  1.0000
  C   C139      1.0  0.03728999999999999  0.76107  0.30574  1.0000
  H   H73       1.0  0.2554100000000001  0.63701  0.3111  1.0000
  C   C140      1.0  0.28297000000000005  0.10963000000000002  0.30717  1.0000
  H   H74       1.0  0.4931100000000001  0.4548  0.29922  1.0000
  C   C141      1.0  0.18453  0.67553  0.31242  1.0000
  C   C142      1.0  0.99764  0.77028  0.31596000000000013  1.0000
  H   H75       1.0  0.09023000000000003  0.11504000000000002  0.30680000000000013  1.0000
  H   H76       1.0  0.35927  0.97508  0.3211  1.0000
  C   C143      1.0  0.63882  0.42965000000000003  0.31549  1.0000
  H   H77       1.0  0.63103  0.6151  0.31276  1.0000
  H   H78       1.0  0.92446  0.80612  0.3172000000000001  1.0000
  C   C144      1.0  0.14338000000000006  0.6829300000000001  0.32265  1.0000
  C   C145      1.0  0.3275500000000001  0.04182  0.3247600000000001  1.0000
  C   C146      1.0  0.3013100000000001  0.13007  0.31863000000000014  1.0000
  H   H79       1.0  0.6392  0.2482  0.32097  1.0000
  C   C147      1.0  0.62979  0.54455  0.31857000000000013  1.0000
  C   C148      1.0  0.04717  0.72737  0.32447  1.0000
  H   H80       1.0  0.18422  0.65164  0.32914  1.0000
  C   C149      1.0  0.27006  0.2224  0.32365  1.0000
  H   H81       1.0  0.26078  0.29887  0.31915  1.0000
  C   C150      1.0  0.63878  0.34058  0.3232000000000001  1.0000
  C   C151      1.0  0.29947  0.02995  0.33548  1.0000
  C   C152      1.0  0.6243800000000002  0.57178  0.32919  1.0000
  C   C153      1.0  0.98663  0.71401  0.33502  1.0000
  H   H82       1.0  0.30856  0.95331  0.3399800000000001  1.0000
  C   C154      1.0  0.6377100000000001  0.37029  0.33384000000000014  1.0000
  H   H83       1.0  0.61907  0.66175  0.33139  1.0000
  O   O40       1.0  0.91674  0.7795900000000001  0.33675  1.0000
  C   C155      1.0  0.23765  0.20728  0.3343200000000001  1.0000
  H   H84       1.0  0.64102  0.30231  0.3396800000000001  1.0000
  C   C156      1.0  0.63715  0.48968  0.33691  1.0000
  C   C157      1.0  0.2415  0.10316  0.3400400000000001  1.0000
  O   O41       1.0  0.95876  0.60269  0.34039000000000014  1.0000
  O   O42       1.0  0.02659  0.02153  0.3493000000000001  1.0000
  C   C158      1.0  0.6708100000000001  0.53943  0.34788000000000013  1.0000
  O   O43       1.0  0.72218  0.48469  0.35428  1.0000
  Ni  Ni10      1.0  0.86838  0.8304  0.35084  1.0000
  H   H85       1.0  0.20017000000000001  0.26974  0.33794  1.0000
  C   C159      1.0  0.15586  0.048720000000000006  0.34945  1.0000
  O   O44       1.0  0.6812200000000002  0.65691  0.35038000000000014  1.0000
  Ni  Ni11      1.0  0.9356900000000001  0.57778  0.3565700000000001  1.0000
  O   O45       1.0  0.8007000000000001  0.89065  0.36332  1.0000
  O   O46       1.0  0.9567700000000002  0.75305  0.3593000000000001  1.0000
  O   O47       1.0  0.21125  0.035690000000000006  0.35813  1.0000
  H   H86       1.0  0.8818600000000001  0.71743  0.36455  1.0000
  O   O48       1.0  0.13833  0.61516  0.3581800000000001  1.0000
  C   C160      1.0  0.22199  0.7032  0.3650800000000001  1.0000
  O   O49       1.0  0.24917999999999998  0.82927  0.3644  1.0000
  H   H87       1.0  0.6187900000000001  0.67519  0.3753100000000001  1.0000
  C   C161      1.0  0.86015  0.9115200000000001  0.37266  1.0000
  Ni  Ni12      1.0  0.10516999999999993  0.88175  0.36824  1.0000
  H   H88       1.0  0.40162  0.85703  0.38056  1.0000
  C   C162      1.0  0.6536400000000002  0.7372900000000001  0.38233  1.0000
  C   C163      1.0  0.7729000000000003  0.8670400000000001  0.38209  1.0000
  O   O50       1.0  0.91094  0.53119  0.3725700000000001  1.0000
  O   O51       1.0  0.9968300000000001  0.9699200000000001  0.37361  1.0000
  H   H89       1.0  0.11843  0.43914  0.3719800000000001  1.0000
  C   C164      1.0  0.25192  0.65509  0.37504  1.0000
  C   C165      1.0  0.33302  0.75135  0.3827  1.0000
  C   C166      1.0  0.81731  0.94611  0.3912400000000001  1.0000
  C   C167      1.0  0.93534  0.61748  0.38051  1.0000
  H   H90       1.0  0.9091900000000003  0.04659  0.39112000000000013  1.0000
  O   O52       1.0  0.041479999999999975  0.74564  0.38037  1.0000
  C   C168      1.0  0.17515000000000006  0.51633  0.3778600000000001  1.0000
  H   H91       1.0  0.49206  0.5833400000000001  0.3918200000000001  1.0000
  C   C169      1.0  0.58291  0.6844  0.39174  1.0000
  H   H92       1.0  0.84078  0.35607  0.3870200000000001  1.0000
  C   C170      1.0  0.15871000000000005  0.47884  0.38846  1.0000
  C   C171      1.0  0.2213000000000001  0.5796300000000001  0.3962400000000001  1.0000
  C   C172      1.0  0.31489000000000006  0.7147600000000001  0.3932600000000001  1.0000
  H   H93       1.0  0.37012000000000006  0.79237  0.3991500000000001  1.0000
  C   C173      1.0  0.62906  0.76189  0.401  1.0000
  C   C174      1.0  0.83392  0.42056  0.393  1.0000
  C   C175      1.0  0.74649  0.89366  0.40066  1.0000
  C   C176      1.0  0.8763400000000001  0.55795  0.39086  1.0000
  H   H94       1.0  0.08962  0.37333  0.39061  1.0000
  H   H95       1.0  0.78585  0.95352  0.4077500000000001  1.0000
  H   H96       1.0  0.90785  0.74786  0.3974300000000001  1.0000
  C   C177      1.0  0.17555  0.54863  0.40732  1.0000
  H   H97       1.0  0.19071  0.36485  0.40816  1.0000
  H   H98       1.0  0.5258700000000001  0.49931  0.4079300000000001  1.0000
  H   H99       1.0  0.7588000000000003  0.26203  0.4046000000000001  1.0000
  C   C178      1.0  0.5603  0.70238  0.41116000000000014  1.0000
  C   C179      1.0  0.78667  0.36685000000000006  0.40298  1.0000
  C   C180      1.0  0.8712100000000003  0.64076  0.39886  1.0000
  C   C181      1.0  0.16670000000000007  0.43387000000000003  0.41238  1.0000
  C   C182      1.0  0.52363  0.5675400000000002  0.41379  1.0000
  H   H100      1.0  0.5622700000000002  0.8849700000000001  0.41665  1.0000
  C   C183      1.0  0.81981  0.58586  0.40877000000000013  1.0000
  H   H101      1.0  0.1471200000000001  0.7238400000000001  0.4090800000000001  1.0000
  C   C184      1.0  0.14459000000000005  0.63712  0.41293000000000013  1.0000
  C   C185      1.0  0.5456700000000001  0.78489  0.41873  1.0000
  C   C186      1.0  0.7737400000000001  0.44741  0.41082  1.0000
  H   H102      1.0  0.81427  0.6506300000000002  0.4147800000000001  1.0000
  C   C187      1.0  0.13256  0.41138  0.4230500000000001  1.0000
  H   H103      1.0  0.12923  0.32454  0.42694  1.0000
  C   C188      1.0  0.49266  0.5232  0.4241600000000001  1.0000
  C   C189      1.0  0.51662  0.74105  0.4291200000000001  1.0000
  C   C190      1.0  0.705  0.38426  0.4209200000000001  1.0000
  H   H104      1.0  0.8461  0.55545  0.4306000000000001  1.0000
  C   C191      1.0  0.11328000000000002  0.61615  0.4235700000000001  1.0000
  C   C192      1.0  0.10983000000000001  0.50491  0.42877  1.0000
  C   C193      1.0  0.49786000000000014  0.61282  0.43197000000000013  1.0000
  H   H105      1.0  0.46747000000000005  0.42029000000000005  0.4261500000000001  1.0000
  H   H106      1.0  0.5114200000000002  0.8075900000000001  0.4349900000000001  1.0000
  H   H107      1.0  0.53737  0.20325  0.4137200000000001  1.0000
  C   C194      1.0  0.586  0.25374  0.4210100000000001  1.0000
  C   C195      1.0  0.7593100000000003  0.45226  0.4304900000000001  1.0000
  H   H108      1.0  0.09570000000000009  0.6889400000000001  0.42788  1.0000
  C   C196      1.0  0.7028000000000002  0.38568  0.4399900000000001  1.0000
  C   C197      1.0  0.10198000000000006  0.49846  0.44035000000000013  1.0000
  H   H109      1.0  0.27410000000000007  0.7034200000000002  0.4423600000000001  1.0000
  H   H110      1.0  0.30093  0.3762  0.4408400000000001  1.0000
  C   C198      1.0  0.48466  0.5730800000000001  0.44313000000000013  1.0000
  C   C199      1.0  0.53064  0.18715  0.4304900000000001  1.0000
  H   H111      1.0  0.74847  0.43712000000000006  0.4473100000000001  1.0000
  H   H112      1.0  0.92753  0.2921500000000001  0.4411  1.0000
  C   C200      1.0  0.19207  0.61416  0.44621  1.0000
  C   C201      1.0  0.37165000000000004  0.4493599999999999  0.4464800000000001  1.0000
  H   H113      1.0  0.44248000000000004  0.08426000000000002  0.43044  1.0000
  H   H114      1.0  0.61655  0.02734  0.4437  1.0000
  C   C202      1.0  0.5928500000000001  0.25036  0.4400000000000001  1.0000
  H   H115      1.0  0.67159  0.75574  0.4480200000000001  1.0000
  C   C203      1.0  0.9977300000000002  0.38242  0.4455300000000001  1.0000
  C   C204      1.0  0.56789  0.051070000000000004  0.4501000000000001  1.0000
  C   C205      1.0  0.5801800000000003  0.6627700000000001  0.45054  1.0000
  C   C206      1.0  0.5554900000000002  0.16855000000000003  0.4497000000000001  1.0000
  H   H116      1.0  0.8949600000000001  0.29855  0.4602700000000001  1.0000
  C   C207      1.0  0.97928  0.386  0.4564000000000001  1.0000
  C   C208      1.0  0.06539  0.50544  0.4621000000000001  1.0000
  C   C209      1.0  0.17352000000000004  0.61766  0.45696  1.0000
  H   H117      1.0  0.24040000000000003  0.7096  0.46124  1.0000
  H   H118      1.0  0.25231  0.3307  0.4596000000000001  1.0000
  C   C210      1.0  0.34410000000000013  0.42374  0.45715  1.0000
  C   C211      1.0  0.43126000000000003  0.5204  0.46461000000000013  1.0000
  H   H119      1.0  0.5206999999999999  0.8695899999999999  0.45857  1.0000
  C   C212      1.0  0.45192  0.99176  0.46700000000000014  1.0000
  C   C213      1.0  0.51498  0.96241  0.4586000000000001  1.0000
  C   C214      1.0  0.44678  0.11377999999999999  0.4669  1.0000
  C   C215      1.0  0.55363  0.63647  0.46125  1.0000
  C   C216      1.0  0.4996400000000001  0.20242000000000002  0.4583000000000001  1.0000
  H   H120      1.0  0.4971200000000001  0.29682  0.4583200000000001  1.0000
  H   H121      1.0  0.62388  0.71033  0.4669  1.0000
  C   C217      1.0  0.03599000000000001  0.52016  0.47316000000000014  1.0000
  C   C218      1.0  0.382  0.51069  0.47549000000000013  1.0000
  O   O53       1.0  0.04852  0.63652  0.47629  1.0000
  O   O54       1.0  0.25347  0.4197  0.4777500000000001  1.0000
  C   C219      1.0  0.39399  0.89524  0.4758900000000001  1.0000
  O   O55       1.0  0.4304700000000001  0.80148  0.477  1.0000
  H   H122      1.0  0.4025700000000001  0.14025  0.47344  1.0000
  O   O56       1.0  0.007199999999999998  0.42202  0.47997  1.0000
  O   O57       1.0  0.2986800000000001  0.89695  0.48201  1.0000
  O   O58       1.0  0.46829  0.58529  0.4829400000000001  1.0000
  Ni  Ni13      1.0  0.15302000000000007  0.43401000000000006  0.49025000000000013  1.0000
  Ni  Ni14      1.0  0.14656  0.72714  0.49025000000000013  1.0000
  O   O59       1.0  0.24258  0.62858  0.49205  1.0000
  Ni  Ni15      1.0  0.4403900000000001  0.72318  0.49097  1.0000
  N   N7        1.0  0.73311  0.94027  0.50843  1.0000
  O   O60       1.0  0.9751700000000001  0.57781  0.49863000000000013  1.0000
  H   H123      1.0  0.23817  0.62764  0.49973  1.0000
  O   O61       1.0  0.2865  0.41769  0.5004  1.0000
  O   O62       1.0  0.45883  0.8915600000000001  0.4984000000000001  1.0000
  C   C220      1.0  0.9846700000000003  0.49252000000000007  0.50531  1.0000
  O   O63       1.0  0.017080000000000005  0.40091  0.5019400000000003  1.0000
  O   O64       1.0  0.2394999999999999  0.83805  0.50376  1.0000
  C   C221      1.0  0.3641900000000001  0.51279  0.50745  1.0000
  C   C222      1.0  0.37290000000000006  0.88524  0.5058500000000002  1.0000
  H   H124      1.0  0.47295  0.35559  0.51257  1.0000
  O   O65       1.0  0.45532  0.63967  0.5045400000000002  1.0000
  C   C223      1.0  0.65061  0.94342  0.5138000000000003  1.0000
  H   H125      1.0  0.9581200000000001  0.30473  0.51948  1.0000
  C   C224      1.0  0.44044000000000005  0.38993  0.5194000000000002  1.0000
  C   C225      1.0  0.5482200000000002  0.9478700000000001  0.52053  1.0000
  C   C226      1.0  0.9454200000000003  0.38563000000000003  0.52294  1.0000
  C   C227      1.0  0.9211000000000001  0.58758  0.5212000000000002  1.0000
  C   C228      1.0  0.9412900000000001  0.48485000000000006  0.51648  1.0000
  C   C229      1.0  0.9070200000000002  0.68693  0.51498  1.0000
  N   N8        1.0  0.8957200000000001  0.76682  0.51003  1.0000
  C   C230      1.0  0.34235  0.96925  0.52307  1.0000
  C   C231      1.0  0.37696  0.46916  0.5180900000000003  1.0000
  C   C232      1.0  0.42774  0.9444  0.51636  1.0000
  C   C233      1.0  0.34087000000000006  0.51889  0.5270200000000003  1.0000
  C   C234      1.0  0.47242  0.36383  0.52944  1.0000
  C   C235      1.0  0.56429  0.30934  0.53038  1.0000
  N   N9        1.0  0.63914  0.26629  0.53091  1.0000
  C   C236      1.0  0.5737  0.96399  0.53134  1.0000
  H   H126      1.0  0.6672300000000002  0.9689300000000001  0.53446  1.0000
  C   C237      1.0  0.9449700000000004  0.3958  0.53385  1.0000
  C   C238      1.0  0.91143  0.5921  0.5321400000000002  1.0000
  H   H127      1.0  0.2520000000000001  0.9707  0.51995  1.0000
  N   N10       1.0  0.22783000000000003  0.67078  0.5253  1.0000
  C   C239      1.0  0.27864000000000005  0.60333  0.52598  1.0000
  C   C240      1.0  0.42899000000000004  0.40652  0.53838  1.0000
  C   C241      1.0  0.4842500000000002  0.9826900000000001  0.5380600000000002  1.0000
  N   N11       1.0  0.0011599999999999898  0.23615  0.545  1.0000
  C   C242      1.0  0.9759400000000001  0.3072  0.54007  1.0000
  C   C243      1.0  0.9178300000000001  0.4937000000000001  0.5385500000000002  1.0000
  C   C244      1.0  0.36159000000000024  0.9737000000000001  0.5339200000000002  1.0000
  C   C245      1.0  0.36408000000000007  0.48469  0.53709  1.0000
  H   H128      1.0  0.33121  0.51874  0.5439100000000002  1.0000
  C   C246      1.0  0.53543  0.04265  0.5485600000000003  1.0000
  C   C247      1.0  0.44497000000000003  0.36403  0.5490100000000002  1.0000
  O   O66       1.0  0.67147  0.11939  0.5502200000000003  1.0000
  O   O67       1.0  0.79188  0.534  0.55237  1.0000
  C   C248      1.0  0.86665  0.47686000000000006  0.54953  1.0000
  H   H129      1.0  0.89458  0.67015  0.53567  1.0000
  C   C249      1.0  0.24903000000000003  0.9554500000000001  0.54066  1.0000
  O   O68       1.0  0.3818  0.23153  0.55125  1.0000
  H   H130      1.0  0.6192600000000003  0.29364000000000007  0.5549800000000003  1.0000
  O   O69       1.0  0.4457000000000001  0.013990000000000002  0.55632  1.0000
  O   O70       1.0  0.50621  0.45804  0.5564900000000003  1.0000
  O   O71       1.0  0.89965  0.40972000000000003  0.55645  1.0000
  N   N12       1.0  0.15812000000000007  0.9400200000000001  0.5460300000000002  1.0000
  O   O72       1.0  0.6180300000000001  0.28944000000000003  0.56267  1.0000
  Ni  Ni16      1.0  0.75023  0.23145  0.5639800000000003  1.0000
  Ni  Ni17      1.0  0.6684500000000003  0.4758  0.56525  1.0000
  Ni  Ni18      1.0  0.42551  0.15955  0.56433  1.0000
  O   O73       1.0  0.36843  0.2726  0.57287  1.0000
  O   O74       1.0  0.62683  0.04615  0.57157  1.0000
  O   O75       1.0  0.8429200000000001  0.52441  0.5736400000000003  1.0000
  O   O76       1.0  0.46047  0.09056  0.5780300000000003  1.0000
  C   C250      1.0  0.53446  0.028980000000000002  0.5787600000000003  1.0000
  H   H131      1.0  0.5413300000000002  0.7920500000000001  0.57811  1.0000
  C   C251      1.0  0.44487  0.34547  0.5807900000000003  1.0000
  O   O77       1.0  0.56943  0.45017000000000007  0.57905  1.0000
  O   O78       1.0  0.8240700000000001  0.32111  0.5785000000000002  1.0000
  C   C252      1.0  0.8444400000000001  0.44283000000000006  0.58094  1.0000
  C   C253      1.0  0.5071000000000001  0.93312  0.5874100000000002  1.0000
  C   C254      1.0  0.51431  0.81373  0.5857500000000002  1.0000
  H   H132      1.0  0.20470000000000002  0.12107000000000001  0.58699  1.0000
  H   H133      1.0  0.49065  0.62933  0.59261  1.0000
  C   C255      1.0  0.3986800000000001  0.29818  0.59167  1.0000
  H   H134      1.0  0.5798500000000002  0.46440000000000003  0.5990900000000002  1.0000
  C   C256      1.0  0.87572  0.48953  0.59188  1.0000
  H   H135      1.0  0.028430000000000063  0.6983200000000003  0.58805  1.0000
  C   C257      1.0  0.9742000000000001  0.62568  0.59427  1.0000
  C   C258      1.0  0.27405  0.17509  0.59344  1.0000
  H   H136      1.0  0.46637  0.05165  0.5987200000000003  1.0000
  C   C259      1.0  0.4700800000000001  0.95889  0.5973100000000002  1.0000
  C   C260      1.0  0.4847299999999999  0.72108  0.59394  1.0000
  C   C261      1.0  0.4855500000000001  0.36749  0.60023  1.0000
  H   H137      1.0  0.73164  0.29103  0.59828  1.0000
  C   C262      1.0  0.8083800000000002  0.39604  0.6000300000000002  1.0000
  H   H138      1.0  0.23064000000000004  0.49078  0.6058500000000002  1.0000
  C   C263      1.0  0.24072000000000002  0.11853  0.6034800000000002  1.0000
  C   C264      1.0  0.43965  0.86586  0.60546  1.0000
  C   C265      1.0  0.4480900000000001  0.74728  0.6038300000000002  1.0000
  C   C266      1.0  0.45209  0.31047  0.61029  1.0000
  C   C267      1.0  0.83775  0.4379700000000001  0.61044  1.0000
  C   C268      1.0  0.0048700000000000375  0.66742  0.60475  1.0000
  H   H139      1.0  0.08259999999999992  0.77184  0.60655  1.0000
  C   C269      1.0  0.29914  0.52445  0.6126  1.0000
  H   H140      1.0  0.14568  0.022400000000000007  0.6046800000000002  1.0000
  C   C270      1.0  0.42082  0.65219  0.6125300000000002  1.0000
  H   H141      1.0  0.41014000000000006  0.8860700000000001  0.61306  1.0000
  C   C271      1.0  0.33036  0.18482  0.6119300000000002  1.0000
  H   H142      1.0  0.52  0.36457  0.6168100000000002  1.0000
  H   H143      1.0  0.7849  0.36462000000000006  0.61665  1.0000
  C   C272      1.0  0.9356500000000002  0.5738  0.6128600000000002  1.0000
  H   H144      1.0  0.16330000000000003  0.34889  0.62174  1.0000
  C   C273      1.0  0.26118  0.44368  0.62161  1.0000
  H   H145      1.0  0.18527000000000002  0.6716  0.6227400000000002  1.0000
  C   C274      1.0  0.5088  0.69492  0.62129  1.0000
  C   C275      1.0  0.29291000000000006  0.12585  0.62258  1.0000
  H   H146      1.0  0.4785  0.11079  0.6247  1.0000
  H   H147      1.0  0.6036200000000003  0.7931300000000001  0.62125  1.0000
  C   C276      1.0  0.9688900000000001  0.61517  0.6239200000000003  1.0000
  C   C277      1.0  0.34641000000000005  0.48873000000000005  0.63057  1.0000
  H   H148      1.0  0.09394  0.11764000000000001  0.6226400000000002  1.0000
  C   C278      1.0  0.16669  0.09978  0.62708  1.0000
  C   C279      1.0  0.3823  0.0943  0.6282000000000002  1.0000
  H   H149      1.0  0.7628  0.57704  0.62781  1.0000
  C   C280      1.0  0.8617600000000001  0.5944200000000001  0.6308400000000002  1.0000
  C   C281      1.0  0.09910999999999998  0.64648  0.6279700000000003  1.0000
  C   C282      1.0  0.47156  0.61418  0.63028  1.0000
  H   H150      1.0  0.21296  0.64781  0.64162  1.0000
  C   C283      1.0  0.11499999999999999  0.63408  0.63872  1.0000
  H   H151      1.0  0.08666000000000001  0.36579  0.63922  1.0000
  C   C284      1.0  0.16375000000000006  0.36101  0.6441400000000003  1.0000
  C   C285      1.0  0.3002500000000001  0.41041000000000005  0.6404900000000002  1.0000
  H   H152      1.0  0.49944  0.42678  0.6439100000000002  1.0000
  C   C286      1.0  0.13457  0.05243  0.6373600000000003  1.0000
  H   H153      1.0  0.53745  0.65145  0.6371600000000002  1.0000
  C   C287      1.0  0.34635000000000005  0.03911  0.6383100000000003  1.0000
  C   C288      1.0  0.8777700000000003  0.5840799999999999  0.64159  1.0000
  C   C289      1.0  0.39644  0.39696  0.64684  1.0000
  H   H154      1.0  0.04096  0.041580000000000006  0.6409300000000002  1.0000
  C   C290      1.0  0.22338  0.020380000000000002  0.64304  1.0000
  H   H155      1.0  0.41352000000000005  0.010359999999999998  0.64241  1.0000
  H   H156      1.0  0.79315  0.5652  0.64683  1.0000
  C   C291      1.0  0.0012199999999999746  0.59398  0.64553  1.0000
  C   C292      1.0  0.12753  0.30888  0.6542800000000002  1.0000
  H   H157      1.0  0.022090000000000012  0.27071  0.6570100000000002  1.0000
  H   H158      1.0  0.96699  0.83551  0.65026  1.0000
  C   C293      1.0  0.36166  0.35012000000000004  0.6571300000000002  1.0000
  C   C294      1.0  0.0062200000000000024  0.55013  0.65647  1.0000
  C   C295      1.0  0.12987  0.61595  0.66238  1.0000
  H   H159      1.0  0.22009000000000012  0.7061000000000001  0.6593600000000002  1.0000
  C   C296      1.0  0.2283  0.3103  0.661  1.0000
  C   C297      1.0  0.046029999999999946  0.87098  0.6562900000000003  1.0000
  H   H160      1.0  0.43825  0.34478  0.66208  1.0000
  C   C298      1.0  0.18524999999999994  0.96428  0.65385  1.0000
  H   H161      1.0  0.39336  0.0836  0.66018  1.0000
  H   H162      1.0  0.79244  0.38483000000000006  0.65643  1.0000
  C   C299      1.0  0.8881000000000002  0.43837000000000004  0.66087  1.0000
  C   C300      1.0  0.007170000000000016  0.82638  0.66656  1.0000
  C   C301      1.0  0.28572  0.010260000000000002  0.6618700000000002  1.0000
  C   C302      1.0  0.13773  0.56451  0.67219  1.0000
  O   O79       1.0  0.08003000000000003  0.14959000000000003  0.67393  1.0000
  H   H163      1.0  0.8987400000000001  0.7561400000000001  0.6683000000000002  1.0000
  C   C303      1.0  0.19405000000000006  0.27009  0.67202  1.0000
  C   C304      1.0  0.89483  0.39033  0.6708000000000002  1.0000
  C   C305      1.0  0.24560000000000007  0.9686800000000001  0.67225  1.0000
  C   C306      1.0  0.021610000000000015  0.44784000000000007  0.6762700000000003  1.0000
  H   H164      1.0  0.23567000000000005  0.6119300000000001  0.6763900000000003  1.0000
  O   O80       1.0  0.9450200000000001  0.8977  0.6864  1.0000
  O   O81       1.0  0.29454  0.33599  0.67916  1.0000
  C   C307      1.0  0.10459000000000004  0.8817800000000001  0.6747100000000003  1.0000
  H   H165      1.0  0.8031400000000002  0.30275  0.67396  1.0000
  H   H166      1.0  0.32243  0.01224  0.67844  1.0000
  Ni  Ni19      1.0  0.9686600000000001  0.08609  0.6875600000000002  1.0000
  C   C308      1.0  0.053730000000000104  0.8812700000000001  0.68538  1.0000
  O   O82       1.0  0.93917  0.24854  0.68715  1.0000
  C   C309      1.0  0.03838999999999997  0.37162  0.6850500000000003  1.0000
  O   O83       1.0  0.14274000000000006  0.43252  0.69153  1.0000
  H   H167      1.0  0.19579  0.14035  0.6898300000000003  1.0000
  O   O84       1.0  0.8433500000000002  0.03205  0.7001500000000003  1.0000
  O   O85       1.0  0.14235  0.15941  0.6950600000000002  1.0000
  Ni  Ni20      1.0  0.26877  0.35071  0.69532  1.0000
  O   O86       1.0  0.13603  0.90383  0.6935300000000002  1.0000
  Ni  Ni21      1.0  0.14665  0.03245  0.7050200000000002  1.0000
  O   O87       1.0  0.44237  0.33342  0.69917  1.0000
  O   O88       1.0  0.35541000000000006  0.11628  0.7048300000000002  1.0000
  C   C310      1.0  0.43595  0.24753  0.7064  1.0000
  C   C311      1.0  0.8594500000000003  0.9697200000000001  0.7082700000000002  1.0000
  O   O89       1.0  0.9415800000000001  0.9170900000000001  0.70771  1.0000
  O   O90       1.0  0.23471  0.36676  0.71118  1.0000
  H   H168      1.0  0.51114  0.4971  0.7148900000000002  1.0000
  C   C312      1.0  0.7774  0.9496  0.71781  1.0000
  H   H169      1.0  0.7422600000000001  0.7464500000000001  0.7208400000000003  1.0000
  C   C313      1.0  0.15789999999999998  0.26365  0.71757  1.0000
  O   O91       1.0  0.16934  0.15206  0.7176  1.0000
  H   H170      1.0  0.49028  0.11350000000000002  0.7219300000000002  1.0000
  C   C314      1.0  0.4913  0.29798  0.7170800000000003  1.0000
  C   C315      1.0  0.51219  0.42534000000000005  0.72047  1.0000
  H   H171      1.0  0.7872900000000002  0.14573  0.71702  1.0000
  C   C316      1.0  0.76403  0.05817  0.72187  1.0000
  C   C317      1.0  0.73885  0.83378  0.72402  1.0000
  H   H172      1.0  0.023570000000000046  0.40859000000000006  0.71986  1.0000
  C   C318      1.0  0.50069  0.20987999999999998  0.7244400000000002  1.0000
  C   C319      1.0  0.11208000000000003  0.29734  0.7273900000000002  1.0000
  C   C320      1.0  0.52019  0.45482  0.73118  1.0000
  C   C321      1.0  0.73666  0.06092000000000001  0.7325400000000002  1.0000
  C   C322      1.0  0.71129  0.8365500000000001  0.7346500000000002  1.0000
  C   C323      1.0  0.046789999999999984  0.37682  0.72725  1.0000
  C   C324      1.0  0.5166800000000001  0.24303000000000002  0.7351300000000002  1.0000
  C   C325      1.0  0.52147  0.36351  0.7385900000000002  1.0000
  H   H173      1.0  0.5166700000000001  0.54438  0.7337300000000002  1.0000
  H   H174      1.0  0.7397800000000001  0.15071  0.7358600000000002  1.0000
  C   C326      1.0  0.7211100000000001  0.9544700000000002  0.73909  1.0000
  H   H175      1.0  0.69807  0.75364  0.7396400000000002  1.0000
  H   H176      1.0  0.9564  0.47241000000000005  0.73652  1.0000
  C   C327      1.0  0.009270000000000018  0.41344000000000003  0.7366800000000002  1.0000
  C   C328      1.0  0.1419  0.25747  0.7370100000000003  1.0000
  H   H177      1.0  0.1929  0.19687  0.73723  1.0000
  H   H178      1.0  0.51983  0.17264000000000002  0.7407500000000002  1.0000
  H   H179      1.0  0.95569  0.99961  0.74875  1.0000
  C   C329      1.0  0.0395  0.37302  0.74628  1.0000
  C   C330      1.0  0.1076  0.2968  0.74637  1.0000
  H   H180      1.0  0.12982  0.26424  0.75374  1.0000
  H   H181      1.0  0.32578000000000007  0.19507  0.75258  1.0000
  C   C331      1.0  0.39901  0.29359  0.75586  1.0000
  C   C332      1.0  0.51342  0.38782  0.74994  1.0000
  C   C333      1.0  0.61056  0.51257  0.7545000000000002  1.0000
  H   H182      1.0  0.7034700000000002  0.58284  0.7502500000000002  1.0000
  H   H183      1.0  0.5542900000000001  0.96052  0.75444  1.0000
  C   C334      1.0  0.6525400000000001  0.9745400000000001  0.75732  1.0000
  C   C335      1.0  0.87919  0.99815  0.75411  1.0000
  C   C336      1.0  0.7525300000000003  0.98016  0.75031  1.0000
  C   C337      1.0  0.99666  0.40656  0.75625  1.0000
  C   C338      1.0  0.09660000000000006  0.47866000000000003  0.7640300000000002  1.0000
  H   H184      1.0  0.20631000000000005  0.52071  0.7623500000000002  1.0000
  C   C339      1.0  0.5868300000000001  0.54789  0.7645100000000002  1.0000
  H   H185      1.0  0.7769300000000002  0.29425000000000007  0.75265  1.0000
  C   C340      1.0  0.37413000000000013  0.32907  0.7658100000000002  1.0000
  C   C341      1.0  0.9065000000000002  0.01137  0.76482  1.0000
  H   H186      1.0  0.66156  0.64563  0.7678400000000002  1.0000
  C   C342      1.0  0.6771800000000001  0.9811800000000002  0.76812  1.0000
  H   H187      1.0  0.005980000000000001  0.02782  0.76763  1.0000
  C   C343      1.0  0.8549000000000002  0.35136  0.7585500000000002  1.0000
  C   C344      1.0  0.055040000000000026  0.49342  0.7740400000000002  1.0000
  H   H188      1.0  0.13297000000000006  0.54913  0.7799800000000002  1.0000
  H   H189      1.0  0.28067000000000003  0.25833  0.7700000000000002  1.0000
  C   C345      1.0  0.46718  0.45707  0.7701900000000003  1.0000
  H   H190      1.0  0.5967500000000001  0.97  0.7735200000000002  1.0000
  C   C346      1.0  0.80324  0.9961  0.77192  1.0000
  C   C347      1.0  0.81329  0.36577  0.7685700000000002  1.0000
  H   H191      1.0  0.70345  0.32135  0.7703  1.0000
  C   C348      1.0  0.9132200000000003  0.43666  0.77637  1.0000
  H   H192      1.0  0.4952300000000001  0.7009  0.77657  1.0000
  C   C349      1.0  0.4409100000000001  0.49455  0.7808200000000002  1.0000
  C   C350      1.0  0.8220500000000001  0.9821400000000001  0.78322  1.0000
  H   H193      1.0  0.8901600000000002  0.8343200000000001  0.78099  1.0000
  H   H194      1.0  0.7643  0.56051  0.7808900000000002  1.0000
  C   C351      1.0  0.7880200000000002  0.51947  0.78774  1.0000
  C   C352      1.0  0.8693100000000001  0.45665  0.78682  1.0000
  C   C353      1.0  0.46509000000000006  0.62717  0.78286  1.0000
  H   H195      1.0  0.37618000000000007  0.29603  0.78762  1.0000
  C   C354      1.0  0.3941400000000001  0.39826  0.7890000000000003  1.0000
  H   H196      1.0  0.75926  0.12699  0.7880700000000003  1.0000
  C   C355      1.0  0.7948400000000001  0.05790000000000001  0.7906  1.0000
  C   C356      1.0  0.8700000000000002  0.8944  0.7866100000000003  1.0000
  C   C357      1.0  0.8912300000000001  0.88315  0.7972400000000002  1.0000
  H   H197      1.0  0.9306200000000002  0.81692  0.7997000000000002  1.0000
  C   C358      1.0  0.9067100000000002  0.41136  0.79586  1.0000
  H   H198      1.0  0.97199  0.36526  0.79527  1.0000
  C   C359      1.0  0.45256  0.66568  0.7930700000000003  1.0000
  C   C360      1.0  0.7388100000000001  0.53109  0.79751  1.0000
  H   H199      1.0  0.67874  0.58249  0.7981500000000002  1.0000
  C   C361      1.0  0.8564900000000002  0.9527400000000001  0.8046900000000002  1.0000
  C   C362      1.0  0.7717100000000001  0.48163  0.8064900000000003  1.0000
  C   C363      1.0  0.37581000000000003  0.43508  0.7990900000000002  1.0000
  H   H200      1.0  0.47738000000000014  0.7698700000000002  0.79456  1.0000
  C   C364      1.0  0.41122  0.57069  0.80132  1.0000
  C   C365      1.0  0.81179  0.04328  0.80129  1.0000
  H   H201      1.0  0.78763  0.10033  0.80692  1.0000
  C   C366      1.0  0.8577100000000002  0.4235900000000001  0.8056800000000002  1.0000
  H   H202      1.0  0.34102000000000005  0.35965  0.8052900000000002  1.0000
  C   C367      1.0  0.71703  0.49246000000000006  0.81667  1.0000
  C   C368      1.0  0.84874  0.91706  0.8158900000000002  1.0000
  O   O92       1.0  0.8959700000000002  0.8352300000000001  0.8190700000000002  1.0000
  H   H203      1.0  0.88502  0.38648  0.81261  1.0000
  C   C369      1.0  0.42173  0.61638  0.81238  1.0000
  O   O93       1.0  0.5807  0.4399  0.8178000000000002  1.0000
  O   O94       1.0  0.80396  0.55135  0.82463  1.0000
  O   O95       1.0  0.37208  0.52426  0.8200200000000002  1.0000
  O   O96       1.0  0.49266  0.74881  0.81464  1.0000
  O   O97       1.0  0.78291  0.95631  0.82246  1.0000
  H   H204      1.0  0.6517  0.67855  0.8210100000000002  1.0000
  N   N13       1.0  0.72736  0.21060000000000004  0.8431100000000002  1.0000
  Ni  Ni22      1.0  0.8235000000000001  0.71843  0.8321900000000002  1.0000
  N   N14       1.0  0.05096999999999998  0.25922  0.8405900000000002  1.0000
  Ni  Ni23      1.0  0.4984100000000001  0.49146  0.82983  1.0000
  Ni  Ni24      1.0  0.59186  0.81762  0.82912  1.0000
  O   O98       1.0  0.63975  0.67871  0.8286300000000002  1.0000
  C   C370      1.0  0.7153000000000003  0.26673  0.8502700000000002  1.0000
  O   O99       1.0  0.8801700000000001  0.8955600000000001  0.8398800000000002  1.0000
  C   C371      1.0  0.0043599999999999976  0.19574  0.8481300000000003  1.0000
  O   O100      1.0  0.3969900000000001  0.7017100000000001  0.8358500000000002  1.0000
  O   O101      1.0  0.59485  0.42589000000000005  0.8396600000000002  1.0000
  H   H205      1.0  0.95765  0.24718000000000004  0.98124  1.0000
  C   C372      1.0  0.6706200000000002  0.49964000000000003  0.8476200000000003  1.0000
  C   C373      1.0  0.79882  0.9072100000000001  0.84677  1.0000
  O   O102      1.0  0.77506  0.62438  0.8461800000000003  1.0000
  C   C374      1.0  0.6565300000000002  0.43409  0.85783  1.0000
  C   C375      1.0  0.6991  0.3365000000000001  0.8591800000000003  1.0000
  C   C376      1.0  0.9465000000000001  0.11545000000000001  0.8575100000000002  1.0000
  C   C377      1.0  0.08961999999999999  0.55267  0.8471400000000002  1.0000
  N   N15       1.0  0.012100000000000017  0.52371  0.8402500000000003  1.0000
  C   C378      1.0  0.3775400000000001  0.6185  0.84365  1.0000
  O   O103      1.0  0.4062700000000002  0.5190700000000001  0.8426600000000002  1.0000
  O   O104      1.0  0.6749199999999999  0.8853599999999999  0.84401  1.0000
  C   C379      1.0  0.8576200000000003  0.97327  0.8568800000000002  1.0000
  C   C380      1.0  0.72258  0.30417  0.8692800000000003  1.0000
  H   H206      1.0  0.76208  0.23425  0.8703  1.0000
  C   C381      1.0  0.98709  0.17834  0.86732  1.0000
  H   H207      1.0  0.04956  0.28864  0.86781  1.0000
  C   C382      1.0  0.18671000000000001  0.58953  0.8557300000000002  1.0000
  C   C383      1.0  0.32914  0.63985  0.8538200000000002  1.0000
  H   H208      1.0  0.76838  0.78314  0.8653600000000002  1.0000
  C   C384      1.0  0.82668  0.8934300000000001  0.8659600000000002  1.0000
  H   H209      1.0  0.57379  0.54856  0.8654900000000002  1.0000
  C   C385      1.0  0.61749  0.48226  0.8665700000000002  1.0000
  H   H210      1.0  0.028740000000000026  0.53274  0.86757  1.0000
  C   C386      1.0  0.13944000000000004  0.57973  0.8660400000000003  1.0000
  C   C387      1.0  0.42475  0.69841  0.8620500000000002  1.0000
  H   H211      1.0  0.5348800000000001  0.74385  0.8605000000000003  1.0000
  C   C388      1.0  0.8756100000000001  0.95538  0.87574  1.0000
  C   C389      1.0  0.94819  0.09943  0.8765300000000003  1.0000
  C   C390      1.0  0.6358900000000002  0.44618  0.8767  1.0000
  C   C391      1.0  0.6993900000000001  0.36523000000000005  0.8780800000000002  1.0000
  C   C392      1.0  0.23456000000000002  0.62635  0.87443  1.0000
  C   C393      1.0  0.37851  0.69649  0.8722700000000002  1.0000
  C   C394      1.0  0.98765  0.16968  0.8868  1.0000
  O   O105      1.0  0.7533100000000001  0.23857  0.89063  1.0000
  C   C395      1.0  0.75079  0.35113  0.8884400000000002  1.0000
  C   C396      1.0  0.47837000000000013  0.7752000000000001  0.8803100000000003  1.0000
  C   C397      1.0  0.86307  0.8711300000000001  0.88466  1.0000
  O   O106      1.0  0.9090000000000001  0.11356  0.8951200000000002  1.0000
  C   C398      1.0  0.58058  0.48425000000000007  0.88551  1.0000
  O   O107      1.0  0.10683000000000002  0.28381000000000006  0.88765  1.0000
  O   O108      1.0  0.7897400000000002  0.44888000000000006  0.8954700000000002  1.0000
  O   O109      1.0  0.06079999999999999  0.57898  0.88765  1.0000
  C   C399      1.0  0.18231000000000003  0.59223  0.8853  1.0000
  N   N16       1.0  0.55781  0.83851  0.8867700000000002  1.0000
  Ni  Ni25      1.0  0.83268  0.21176000000000003  0.90396  1.0000
  N   N17       1.0  0.53599  0.51463  0.8925600000000002  1.0000
  O   O110      1.0  0.25569  0.57203  0.8924500000000002  1.0000
  N   N18       1.0  0.85328  0.80364  0.8918  1.0000
  O   O111      1.0  0.0  0.38288  0.90444  1.0000
  Ni  Ni26      1.0  0.17198000000000008  0.39497000000000004  0.9014200000000002  1.0000
  Ni  Ni27      1.0  0.9787100000000001  0.53799  0.90227  1.0000
  O   O112      1.0  0.7241400000000001  0.27643  0.9130500000000003  1.0000
  O   O113      1.0  0.11598000000000003  0.21556  0.9098400000000002  1.0000
  H   H212      1.0  0.008829999999999984  0.38866  0.9121200000000003  1.0000
  O   O114      1.0  0.16881000000000004  0.66303  0.9089700000000002  1.0000
  O   O115      1.0  0.8979200000000002  0.15102  0.91668  1.0000
  C   C400      1.0  0.026420000000000016  0.17149  0.9177700000000002  1.0000
  C   C401      1.0  0.7795400000000001  0.38672000000000006  0.9192400000000002  1.0000
  O   O116      1.0  0.88405  0.50619  0.9161400000000002  1.0000
  O   O117      1.0  0.25583  0.52397  0.91427  1.0000
  H   H213      1.0  0.7749000000000003  0.27966  0.9384100000000002  1.0000
  C   C402      1.0  0.7033099999999999  0.38774  0.92856  1.0000
  C   C403      1.0  0.2257099999999999  0.62185  0.9162700000000003  1.0000
  C   C404      1.0  0.7334600000000001  0.34868  0.93819  1.0000
  C   C405      1.0  0.06476  0.12984  0.92763  1.0000
  H   H214      1.0  0.6129700000000001  0.49712  0.9211000000000003  1.0000
  H   H215      1.0  0.08437  0.70416  0.92891  1.0000
  H   H216      1.0  0.9059600000000002  0.13941000000000003  0.9368400000000002  1.0000
  C   C406      1.0  0.9955100000000002  0.12487  0.9369600000000002  1.0000
  C   C407      1.0  0.17858  0.10718  0.9279400000000002  1.0000
  C   C408      1.0  0.6422100000000002  0.47086  0.9284800000000002  1.0000
  H   H217      1.0  0.23005  0.10558  0.9207700000000002  1.0000
  C   C409      1.0  0.18563000000000007  0.72957  0.9319700000000002  1.0000
  C   C410      1.0  0.2742200000000001  0.69868  0.92617  1.0000
  H   H218      1.0  0.4742  0.70857  0.9258600000000002  1.0000
  C   C411      1.0  0.72604  0.41117  0.94745  1.0000
  C   C412      1.0  0.68866  0.51359  0.9470900000000002  1.0000
  C   C413      1.0  0.63934  0.53739  0.93762  1.0000
  C   C414      1.0  0.4048100000000001  0.73155  0.9302800000000002  1.0000
  H   H219      1.0  0.75369  0.38339  0.95483  1.0000
  C   C415      1.0  0.047300000000000016  0.11082000000000002  0.9465600000000002  1.0000
  H   H220      1.0  0.5206600000000001  0.60854  0.9545700000000003  1.0000
  C   C416      1.0  0.22992  0.09213  0.9375600000000002  1.0000
  H   H221      1.0  0.60745  0.61368  0.9371900000000002  1.0000
  H   H222      1.0  0.32169  0.08123  0.93772  1.0000
  H   H223      1.0  0.15604999999999997  0.81152  0.9463500000000002  1.0000
  C   C417      1.0  0.22601000000000002  0.78986  0.94189  1.0000
  C   C418      1.0  0.44605  0.79366  0.9401  1.0000
  C   C419      1.0  0.71275  0.60339  0.9563100000000002  1.0000
  H   H224      1.0  0.9986700000000001  0.11748000000000001  0.9537200000000002  1.0000
  C   C420      1.0  0.6177600000000001  0.64779  0.9588200000000002  1.0000
  C   C421      1.0  0.16859000000000002  0.10049  0.9469600000000002  1.0000
  C   C422      1.0  0.3568000000000002  0.8229100000000001  0.9459800000000003  1.0000
  H   H225      1.0  0.54704  0.81831  0.94319  1.0000
  C   C423      1.0  0.83289  0.64767  0.96247  1.0000
  C   C424      1.0  0.6483000000000001  0.7432  0.96684  1.0000
  H   H226      1.0  0.5770600000000002  0.7803600000000002  0.9684900000000002  1.0000
  H   H227      1.0  0.44438  0.26937  0.95067  1.0000
  H   H228      1.0  0.5924900000000001  0.05963000000000001  0.9506200000000002  1.0000
  H   H229      1.0  0.90832  0.61643  0.9605900000000003  1.0000
  H   H230      1.0  0.0656600000000001  0.9821400000000001  0.9659400000000002  1.0000
  C   C425      1.0  0.24429000000000003  0.12438000000000002  0.9570200000000002  1.0000
  C   C426      1.0  0.38336000000000003  0.22886000000000004  0.9577  1.0000
  C   C427      1.0  0.40124  0.88921  0.95637  1.0000
  C   C428      1.0  0.52969  0.0098  0.95746  1.0000
  C   C429      1.0  0.7703  0.78969  0.9727500000000002  1.0000
  C   C430      1.0  0.17024  0.06707  0.9663100000000002  1.0000
  H   H231      1.0  0.21896000000000002  0.73602  0.9645400000000002  1.0000
  C   C431      1.0  0.31896  0.8282999999999999  0.9652800000000002  1.0000
  C   C432      1.0  0.8579  0.73529  0.97092  1.0000
  C   C433      1.0  0.43774000000000013  0.29201000000000005  0.96732  1.0000
  C   C434      1.0  0.57867  0.065  0.9673900000000002  1.0000
  H   H232      1.0  0.79013  0.77364  0.9937700000000003  1.0000
  C   C435      1.0  0.22387000000000004  0.13225000000000003  0.9759  1.0000
  C   C436      1.0  0.35165  0.25434  0.9761600000000002  1.0000
  H   H233      1.0  0.54224  0.37778  0.9677300000000002  1.0000
  C   C437      1.0  0.36704000000000003  0.8849900000000002  0.9752200000000002  1.0000
  H   H234      1.0  0.6792300000000001  0.15661  0.9681200000000002  1.0000
  H   H235      1.0  0.94994  0.76714  0.9756900000000002  1.0000
  C   C438      1.0  0.8262000000000003  0.87673  0.99102  1.0000
  C   C439      1.0  0.8111500000000001  0.9005600000000001  0.9804600000000002  1.0000
  H   H236      1.0  0.16083  0.09519  0.9829  1.0000
  C   C440      1.0  0.8551900000000001  0.03433000000000001  0.9770400000000002  1.0000
  H   H237      1.0  0.8436800000000001  0.05364000000000001  0.9689  1.0000
  H   H238      1.0  0.39399  0.24613000000000002  0.99708  1.0000
  H   H239      1.0  0.30224  0.83808  0.9820300000000002  1.0000
  C   C441      1.0  0.49898  0.0013099999999999997  0.97635  1.0000
  C   C442      1.0  0.37521000000000004  0.35866000000000003  0.98409  1.0000
  H   H240      1.0  0.60484  0.26306  0.9828200000000002  1.0000
  C   C443      1.0  0.55368  0.057670000000000006  0.9869000000000002  1.0000
  H   H241      1.0  0.9055100000000001  0.9660600000000001  0.00607  1.0000
  C   C444      1.0  0.8931700000000001  0.98608  0.9979500000000002  1.0000
  C   C445      1.0  0.9209200000000001  0.14419  0.9840300000000002  1.0000
  H   H242      1.0  0.35399000000000014  0.4917500000000001  0.9729800000000002  1.0000
  C   C446      1.0  0.3915100000000001  0.33693  0.99469  1.0000
  C   C447      1.0  0.6083  0.19733  0.9888300000000002  1.0000
  C   C448      1.0  0.56094  0.97428  0.9947800000000002  1.0000
  H   H243      1.0  0.5215100000000001  0.8668200000000001  0.9933300000000003  1.0000
  C   C449      1.0  0.94387  0.12083  0.99446  1.0000
  C   C450      1.0  0.36789000000000005  0.47472  0.98114  1.0000
