data_image0
_chemical_formula_structural       O2C2OC3H2CHNiCNiO6CO2NiH2C2OHC3OCHC2H2C2H2C2HC6H3C4H2C2HCH2CHC4HCHCH2C2HC3H2C2HCH4C7H2C2H2C3HCHC4O3C2OHO2Ni2ONiOCHCOHOH2O2HCO3C2OC4H2C4HCH2C5HC4O2CO3C2O2HOH2ONi3OHO2COCHO3C4H3C2HCHC4HC4H2C2H3C4H2C2H3C2HCHC4HCHC4HCHC2H2C2H2C2HCHCHC2HC2HCHC5OHCOCH2CO2NiCOHNiO5C2NiO2HCHC3OH2C3HC3H2C5HCH2CH2CHC4H2CH2C7HCHCHCHCH2CHC3H2C2HCHC4HCH2C2HCHC2HC3HC2HC2O6Ni3O4HO3COH2C2HOC6HCHCOCHCHC2HOHC6OHOH2COCOCO2HO3Ni3O4CO2C2HCHC2HC2H3C6HCHC4H3CH2C3H2C3H3CHC6HCHCHC3HCHCHCHC2HCHC3HCH2C3HC4HCOH2CHCO2NiC2O2NiHO5CNiCO2HCH2COC4H2C6H3C3H2C2HC2HCHCHC2HCHCH2C6HCH2C4H3CHCHCH2CHC5HCHC5H3C4H2CO4HCOCNiO2Ni2O5H2COCOCOC4HCHCOCHOCHC2HCHCHC7HCO2CHOHO5NiONiONiHOHOCO2C2OC2H2C3HC2HCHC3HCHCHCH2C5HCHC2HCH2C3HCHCHC4HC2HC5H5C2H2C2HC3H2C2H
_chemical_formula_sum              "O135 C432 H261 Ni27"
_cell_length_a       10.96353
_cell_length_b       11.4437
_cell_length_c       130.00154
_cell_angle_alpha    89.99727
_cell_angle_beta     90.03443000000001
_cell_angle_gamma    119.79536

_symmetry_space_group_name_H-M    'P 1'
_symmetry_Int_Tables_number       1

loop_
  _symmetry_equiv_pos_as_xyz
  'x,y,z'

loop_
  _atom_site_type_symbol
  _atom_site_label
  _atom_site_symmetry_multiplicity
  _atom_site_fract_x
  _atom_site_fract_y
  _atom_site_fract_z
  _atom_site_occupancy
  O   O1        1.0  0.84713  0.33404  0.0066  1.0000
  O   O2        1.0  0.06799999999999999  0.37323  0.01079  1.0000
  C   C1        1.0  0.59807  0.89786  0.0059  1.0000
  C   C2        1.0  0.7415099999999999  0.9721399999999999  0.00846  1.0000
  O   O3        1.0  0.76534  0.48453  0.01994  1.0000
  C   C3        1.0  0.82797  0.59402  3e-05  1.0000
  C   C4        1.0  0.9304299999999998  0.64032  0.007809999999999999  1.0000
  C   C5        1.0  0.07319999999999999  0.70344  0.00502  1.0000
  H   H1        1.0  0.15435999999999994  0.74391  0.01086  1.0000
  H   H2        1.0  0.51919  0.89284  0.01118  1.0000
  C   C6        1.0  0.7887  0.0719  0.01689  1.0000
  H   H3        1.0  0.7178799999999999  0.55084  0.002  1.0000
  Ni  Ni1       1.0  0.05686000000000001  0.30437  0.0257  1.0000
  C   C7        1.0  0.88644  0.59297  0.01848  1.0000
  Ni  Ni2       1.0  0.7551399999999999  0.30587  0.020769999999999993  1.0000
  O   O4        1.0  0.70267  0.11069  0.02043  1.0000
  O   O5        1.0  0.9075800000000002  0.10631  0.02171  1.0000
  O   O6        1.0  0.9228699999999999  0.35889  0.02886  1.0000
  O   O7        1.0  0.97857  0.6387499999999999  0.02601  1.0000
  O   O8        1.0  0.24948999999999993  0.47367000000000004  0.02901  1.0000
  O   O9        1.0  0.18622  0.61814  0.03512  1.0000
  C   C8        1.0  0.26075  0.55941  0.03605  1.0000
  O   O10       1.0  0.6316399999999999  0.26183  0.03333  1.0000
  O   O11       1.0  0.05636  0.26002  0.04127  1.0000
  Ni  Ni3       1.0  0.97689  0.51601  0.03729  1.0000
  H   H4        1.0  0.34902  0.38962  0.04363  1.0000
  H   H5        1.0  0.86997  0.28777  0.03393  1.0000
  C   C9        1.0  0.6771800000000001  0.33377  0.04187  1.0000
  C   C10       1.0  0.007849999999999994  0.29941  0.04924  1.0000
  O   O12       1.0  0.007690000000000003  0.41711  0.04938  1.0000
  H   H6        1.0  0.3416  0.75427  0.05074  1.0000
  C   C11       1.0  0.33305  0.56905  0.04596  1.0000
  C   C12       1.0  0.35218999999999995  0.66902  0.05312  1.0000
  C   C13       1.0  0.35674999999999996  0.46429999999999993  0.04911  1.0000
  O   O13       1.0  0.7783  0.4606799999999999  0.04152  1.0000
  C   C14       1.0  0.64385  0.3584399999999999  0.06053  1.0000
  H   H7        1.0  0.7075799999999999  0.46676  0.05981  1.0000
  C   C15       1.0  0.60841  0.27553  0.0518  1.0000
  C   C16       1.0  0.37604  0.44786  0.05956  1.0000
  H   H8        1.0  0.3801399999999999  0.3596  0.062049999999999994  1.0000
  H   H9        1.0  0.63924  0.36685999999999996  0.07697  1.0000
  C   C17       1.0  0.6032499999999998  0.30187  0.07029  1.0000
  C   C18       1.0  0.5218499999999999  0.13542  0.05291  1.0000
  H   H10       1.0  0.49242  0.06996  0.04625  1.0000
  H   H11       1.0  0.12098  0.14414  0.05452  1.0000
  C   C19       1.0  0.9910499999999998  0.22897  0.059099999999999986  1.0000
  C   C20       1.0  0.37366  0.65366  0.06352  1.0000
  H   H12       1.0  0.37948  0.727  0.06906  1.0000
  C   C21       1.0  0.3789  0.53971  0.06685  1.0000
  C   C22       1.0  0.5210199999999999  0.16173  0.07145  1.0000
  C   C23       1.0  0.47719999999999996  0.07897  0.06269  1.0000
  C   C24       1.0  0.055059999999999984  0.14977999999999997  0.06047  1.0000
  C   C25       1.0  0.8904599999999998  0.16646  0.07622  1.0000
  C   C26       1.0  0.9089699999999998  0.23733  0.06704  1.0000
  H   H13       1.0  0.8290699999999999  0.17525  0.08239  1.0000
  H   H14       1.0  0.8610999999999999  0.29959  0.06615999999999997  1.0000
  H   H15       1.0  0.15045000000000003  0.4440200000000001  0.07919  1.0000
  C   C27       1.0  0.24420999999999998  0.46138  0.08325  1.0000
  C   C28       1.0  0.3717199999999999  0.50931  0.07794  1.0000
  C   C29       1.0  0.49282999999999993  0.53258  0.08331  1.0000
  C   C30       1.0  0.9543999999999999  0.08729  0.07751  1.0000
  H   H16       1.0  0.41686  0.24040999999999998  0.0872  1.0000
  H   H17       1.0  0.59177  0.56973  0.07928  1.0000
  C   C31       1.0  0.44129  0.16303  0.08937  1.0000
  C   C32       1.0  0.48412  0.10263999999999998  0.08189  1.0000
  H   H18       1.0  0.41079  0.97098  0.06346  1.0000
  C   C33       1.0  0.51051  0.9987799999999999  0.08478999999999998  1.0000
  H   H19       1.0  0.5432799999999999  0.95084  0.07909999999999998  1.0000
  H   H20       1.0  0.08671999999999998  0.01896  0.07054  1.0000
  C   C34       1.0  0.036189999999999986  0.07908999999999998  0.06958  1.0000
  H   H21       1.0  0.16701  0.13  0.09022  1.0000
  C   C35       1.0  0.23802999999999996  0.43806  0.09386  1.0000
  C   C36       1.0  0.48649  0.5085  0.09391  1.0000
  C   C37       1.0  0.50291  0.9624900000000001  0.09516  1.0000
  C   C38       1.0  0.9438299999999998  0.01962  0.08737  1.0000
  H   H22       1.0  0.7185399999999997  0.8903499999999999  0.08659  1.0000
  C   C39       1.0  0.06664  0.04801  0.09269  1.0000
  H   H23       1.0  0.13912  0.40142  0.09788  1.0000
  C   C40       1.0  0.35956999999999995  0.46324999999999994  0.09926  1.0000
  H   H24       1.0  0.41831  0.18662  0.10547999999999998  1.0000
  H   H25       1.0  0.57958  0.52346  0.09793999999999997  1.0000
  C   C41       1.0  0.43972999999999995  0.13097  0.09971999999999998  1.0000
  C   C42       1.0  0.47214  0.03181  0.10269  1.0000
  H   H26       1.0  0.52625  0.88444  0.09736999999999997  1.0000
  C   C43       1.0  0.81357  0.9157899999999999  0.09082  1.0000
  C   C44       1.0  0.06058999999999992  0.9688899999999999  0.10104  1.0000
  C   C45       1.0  0.8066699999999999  0.8417699999999999  0.09957999999999997  1.0000
  H   H27       1.0  0.15646999999999986  0.9888899999999999  0.10487  1.0000
  H   H28       1.0  0.21245999999999998  0.22687999999999997  0.10945  1.0000
  C   C46       1.0  0.27371999999999996  0.31063  0.11453  1.0000
  C   C47       1.0  0.35364999999999996  0.44094999999999995  0.11051  1.0000
  H   H29       1.0  0.48831999999999987  0.65124  0.11424  1.0000
  C   C48       1.0  0.49338  0.01558  0.11367  1.0000
  H   H30       1.0  0.71689  0.09298  0.11222999999999997  1.0000
  H   H31       1.0  0.27502  0.93133  0.11783  1.0000
  H   H32       1.0  0.80893  0.59417  0.10648  1.0000
  H   H33       1.0  0.7053900000000001  0.76599  0.10247  1.0000
  C   C49       1.0  0.93075  0.86607  0.10458  1.0000
  C   C50       1.0  0.27557  0.28772  0.12508  1.0000
  C   C51       1.0  0.42873  0.5497  0.11723  1.0000
  C   C52       1.0  0.38215  0.9790199999999999  0.1206  1.0000
  C   C53       1.0  0.6306499999999999  0.06895  0.11746  1.0000
  C   C54       1.0  0.85195  0.64755  0.11363  1.0000
  C   C55       1.0  0.92446  0.7887799999999999  0.11384  1.0000
  H   H34       1.0  0.04512000000000007  0.96517  0.12324999999999998  1.0000
  H   H35       1.0  0.21773999999999993  0.18595000000000003  0.12801  1.0000
  C   C56       1.0  0.35348  0.3957  0.1318  1.0000
  C   C57       1.0  0.42719  0.52748  0.12784  1.0000
  H   H36       1.0  0.48599999999999993  0.61228  0.13292  1.0000
  H   H37       1.0  0.76215  0.46657999999999994  0.12269  1.0000
  C   C58       1.0  0.4102599999999999  0.01629  0.13095  1.0000
  C   C59       1.0  0.65894  0.10516999999999999  0.12781  1.0000
  C   C60       1.0  0.8286899999999998  0.57515  0.12277  1.0000
  H   H38       1.0  0.7666  0.15439  0.13053  1.0000
  C   C61       1.0  0.9867700000000003  0.8563200000000001  0.12303999999999997  1.0000
  H   H39       1.0  0.32442999999999994  0.9979899999999999  0.13605  1.0000
  C   C62       1.0  0.54986  0.08771  0.13443  1.0000
  C   C63       1.0  0.8781899999999999  0.6436  0.13214  1.0000
  C   C64       1.0  0.36876999999999993  0.36957  0.14275  1.0000
  C   C65       1.0  0.9668099999999998  0.78361  0.1321  1.0000
  O   O14       1.0  0.3978799999999999  0.46332  0.14966  1.0000
  O   O15       1.0  0.36222  0.25543  0.14539  1.0000
  O   O16       1.0  0.68204  0.57837  0.14304999999999995  1.0000
  C   C66       1.0  0.8007  0.57978  0.14151  1.0000
  C   C67       1.0  0.58321  0.16249  0.14422  1.0000
  O   O17       1.0  0.70363  0.27549  0.14517  1.0000
  H   H40       1.0  0.008150000000000043  0.8372200000000001  0.13927  1.0000
  O   O18       1.0  0.4949  0.11367999999999999  0.15199  1.0000
  O   O19       1.0  0.8632299999999999  0.55319  0.14905  1.0000
  Ni  Ni4       1.0  0.58901  0.55182  0.15731  1.0000
  Ni  Ni5       1.0  0.42339  0.2225  0.15939  1.0000
  O   O20       1.0  0.5926999999999998  0.39238  0.16012  1.0000
  Ni  Ni6       1.0  0.7617799999999999  0.38641  0.15808  1.0000
  O   O21       1.0  0.7848999999999999  0.66652  0.16444  1.0000
  C   C68       1.0  0.95983  0.32391  0.00447  1.0000
  H   H41       1.0  0.9509599999999998  0.01983  0.00392  1.0000
  C   C69       1.0  0.8407899999999999  0.96899  0.00182  1.0000
  O   O22       1.0  0.07919  0.2653  0.17795999999999995  1.0000
  H   H42       1.0  0.058650000000000015  0.33892  0.17652  1.0000
  O   O23       1.0  0.31496  0.30068  0.16674  1.0000
  H   H43       1.0  0.5983899999999999  0.4008  0.16764999999999994  1.0000
  H   H44       1.0  0.90992  0.92548  0.17248999999999995  1.0000
  O   O24       1.0  0.6967099999999999  0.22259  0.16733  1.0000
  O   O25       1.0  0.98495  0.9047599999999999  0.17432  1.0000
  H   H45       1.0  0.6452599999999998  0.9366099999999999  0.17642  1.0000
  C   C70       1.0  0.37339  0.40086  0.17351  1.0000
  O   O26       1.0  0.4745899999999999  0.52212  0.17073  1.0000
  O   O27       1.0  0.47298000000000007  0.1674  0.1728  1.0000
  O   O28       1.0  0.72884  0.026499999999999996  0.17759  1.0000
  C   C71       1.0  0.83166  0.61829  0.1718  1.0000
  C   C72       1.0  0.60193  0.18985  0.1748  1.0000
  O   O29       1.0  0.8493599999999999  0.51313  0.17015  1.0000
  C   C73       1.0  0.17317  0.31093  0.18597  1.0000
  C   C74       1.0  0.31873999999999997  0.38024  0.18407  1.0000
  C   C75       1.0  0.9365499999999998  0.82449  0.18289  1.0000
  C   C76       1.0  0.69731  0.07707  0.18612  1.0000
  H   H46       1.0  0.7799999999999999  0.9888399999999999  0.19659999999999994  1.0000
  H   H47       1.0  0.011780000000000006  0.23186  0.1975  1.0000
  C   C77       1.0  0.12366999999999999  0.28642  0.19608999999999993  1.0000
  C   C78       1.0  0.8668399999999998  0.68331  0.18196  1.0000
  C   C79       1.0  0.6323899999999998  0.15595999999999996  0.18507999999999994  1.0000
  C   C80       1.0  0.96355  0.8837  0.19265  1.0000
  H   H48       1.0  0.017509999999999987  0.99241  0.19331999999999994  1.0000
  C   C81       1.0  0.41323  0.42895  0.19235  1.0000
  H   H49       1.0  0.52533  0.48455  0.19094  1.0000
  H   H50       1.0  0.5436999999999997  0.26106  0.19317999999999994  1.0000
  C   C82       1.0  0.8280699999999998  0.60304  0.19082  1.0000
  C   C83       1.0  0.5970799999999999  0.20332999999999998  0.19391  1.0000
  C   C84       1.0  0.7302999999999998  0.04986  0.19589  1.0000
  C   C85       1.0  0.21813999999999997  0.32906  0.20438  1.0000
  C   C86       1.0  0.36372  0.40321  0.20248  1.0000
  H   H51       1.0  0.77613  0.49441999999999997  0.19016  1.0000
  C   C87       1.0  0.8541899999999999  0.66202  0.20057  1.0000
  C   C88       1.0  0.63166  0.17743  0.20372  1.0000
  C   C89       1.0  0.91926  0.80309  0.20152  1.0000
  C   C90       1.0  0.7005499999999999  0.10169  0.20473  1.0000
  O   O30       1.0  0.06309999999999996  0.9792699999999999  0.2134  1.0000
  O   O31       1.0  0.05069999999999999  0.29479  0.21767  1.0000
  C   C91       1.0  0.16379  0.29053  0.21492  1.0000
  O   O32       1.0  0.45771  0.44875  0.21049  1.0000
  O   O33       1.0  0.59005  0.21868  0.21228  1.0000
  O   O34       1.0  0.7142099999999999  0.9461  0.21645  1.0000
  C   C92       1.0  0.9445099999999997  0.8672799999999999  0.21172  1.0000
  C   C93       1.0  0.73438  0.0682  0.21495  1.0000
  O   O35       1.0  0.7669399999999997  0.15317  0.22271  1.0000
  O   O36       1.0  0.22780999999999998  0.25177  0.22144  1.0000
  H   H52       1.0  0.47415  0.54033  0.21205  1.0000
  O   O37       1.0  0.8160699999999999  0.58166  0.20915  1.0000
  H   H53       1.0  0.66774  0.31103  0.21372  1.0000
  H   H54       1.0  0.8985199999999998  0.57127  0.21081  1.0000
  O   O38       1.0  0.85825  0.80318  0.21937  1.0000
  Ni  Ni7       1.0  0.12568  0.06157000000000001  0.22796  1.0000
  Ni  Ni8       1.0  0.9447099999999998  0.21810999999999997  0.23104  1.0000
  Ni  Ni9       1.0  0.78182  0.8921899999999999  0.22892  1.0000
  O   O39       1.0  0.95487  0.05582  0.23098  1.0000
  H   H55       1.0  0.9583  0.04635  0.23846  1.0000
  O   O40       1.0  0.8278999999999999  0.16478  0.24393  1.0000
  O   O41       1.0  0.2081  0.16306  0.24167999999999995  1.0000
  C   C94       1.0  0.17277000000000003  0.24948999999999996  0.24556  1.0000
  O   O42       1.0  0.12703  0.31395  0.23951  1.0000
  C   C95       1.0  0.74032  0.03679  0.24618999999999996  1.0000
  H   H56       1.0  0.9953299999999999  0.60067  0.24091  1.0000
  O   O43       1.0  0.83182  0.80672  0.24058  1.0000
  O   O44       1.0  0.6756299999999998  0.94731  0.23876  1.0000
  O   O45       1.0  0.05463000000000002  0.87013  0.23441999999999993  1.0000
  C   C96       1.0  0.95713  0.81713  0.24171  1.0000
  C   C97       1.0  0.9860499999999999  0.63006  0.24867000000000003  1.0000
  C   C98       1.0  0.9777399999999999  0.74707  0.25037  1.0000
  C   C99       1.0  0.19168  0.27787  0.25672  1.0000
  H   H57       1.0  0.22138  0.47931  0.25566  1.0000
  H   H58       1.0  0.9728899999999999  0.45279  0.25551  1.0000
  H   H59       1.0  0.59178  0.77976  0.25367  1.0000
  C   C100      1.0  0.72944  0.99151  0.25699  1.0000
  C   C101      1.0  0.9730099999999999  0.54614  0.25693  1.0000
  H   H60       1.0  0.86629  0.19197  0.26297  1.0000
  C   C102      1.0  0.8085299999999999  0.0853  0.26468  1.0000
  H   H61       1.0  0.17164  0.0848  0.26042  1.0000
  C   C103      1.0  0.18947  0.18036  0.2634  1.0000
  C   C104      1.0  0.21689999999999998  0.40215  0.26072  1.0000
  C   C105      1.0  0.96381  0.78308  0.26042  1.0000
  C   C106      1.0  0.65452  0.85353  0.25945  1.0000
  H   H62       1.0  0.9547099999999997  0.8717899999999998  0.26178  1.0000
  C   C107      1.0  0.95422  0.58029  0.26694  1.0000
  C   C108      1.0  0.9529599999999999  0.70059  0.26866  1.0000
  C   C109      1.0  0.24047  0.42814  0.27131  1.0000
  C   C110      1.0  0.66504  0.80995  0.26931  1.0000
  H   H63       1.0  0.6105  0.7032  0.27103  1.0000
  H   H64       1.0  0.72631  0.33216  0.26928  1.0000
  C   C111      1.0  0.21330999999999992  0.20651999999999998  0.27388  1.0000
  C   C112      1.0  0.8183399999999998  0.04165  0.2745  1.0000
  H   H65       1.0  0.26213  0.52476  0.27434  1.0000
  H   H66       1.0  0.88131  0.11492999999999999  0.28027999999999986  1.0000
  H   H67       1.0  0.21466  0.13149  0.27889  1.0000
  C   C113      1.0  0.23830999999999997  0.32988  0.27791  1.0000
  C   C114      1.0  0.9245499999999999  0.48598  0.27552  1.0000
  C   C115      1.0  0.7495699999999998  0.9038500000000002  0.2768  1.0000
  C   C116      1.0  0.79545  0.36526  0.2759  1.0000
  H   H68       1.0  0.93747  0.72704  0.27635  1.0000
  H   H69       1.0  0.11364999999999999  0.61982  0.28388  1.0000
  C   C117      1.0  0.013320000000000016  0.52736  0.28413  1.0000
  C   C118      1.0  0.7516099999999998  0.29138  0.28504  1.0000
  H   H70       1.0  0.99416  0.9529099999999999  0.28573  1.0000
  H   H71       1.0  0.6496099999999999  0.20091999999999996  0.28539  1.0000
  H   H72       1.0  0.49036999999999986  0.46413  0.2876  1.0000
  C   C119      1.0  0.7681899999999998  0.8582800000000002  0.287  1.0000
  C   C120      1.0  0.26409  0.35527  0.28902  1.0000
  H   H73       1.0  0.54663  0.75364  0.29065999999999986  1.0000
  C   C121      1.0  0.9038  0.8977699999999998  0.29065999999999986  1.0000
  H   H74       1.0  0.04427  0.245  0.29306  1.0000
  C   C122      1.0  0.9689499999999999  0.45441  0.29328  1.0000
  C   C123      1.0  0.40204000000000006  0.41307000000000005  0.2927999999999999  1.0000
  C   C124      1.0  0.83644  0.33797  0.29385  1.0000
  C   C125      1.0  0.65173  0.78467  0.29341  1.0000
  H   H75       1.0  0.03584999999999997  0.49022  0.30002  1.0000
  C   C126      1.0  0.15096999999999997  0.29089  0.29588  1.0000
  H   H76       1.0  0.77862  0.08896  0.29999  1.0000
  C   C127      1.0  0.9232  0.86835  0.3007599999999999  1.0000
  C   C128      1.0  0.42598  0.39247  0.30303999999999987  1.0000
  C   C129      1.0  0.78116  0.27376  0.30387  1.0000
  C   C130      1.0  0.67114  0.75629  0.30353  1.0000
  H   H77       1.0  0.028459999999999975  0.9014599999999999  0.30356  1.0000
  C   C131      1.0  0.17494999999999997  0.27327  0.30617  1.0000
  H   H78       1.0  0.53236  0.42723000000000005  0.30564  1.0000
  C   C132      1.0  0.7602  0.14477  0.30593  1.0000
  C   C133      1.0  0.80732  0.80052  0.30733  1.0000
  H   H79       1.0  0.58087  0.70476  0.30855  1.0000
  H   H80       1.0  0.08635999999999999  0.21738999999999997  0.31125  1.0000
  C   C134      1.0  0.31204  0.31634  0.30962  1.0000
  C   C135      1.0  0.7561799999999999  0.34481  0.31159  1.0000
  H   H81       1.0  0.77145  0.44408999999999993  0.31002  1.0000
  H   H82       1.0  0.25675  0.06112999999999999  0.31238  1.0000
  C   C136      1.0  0.7200199999999999  0.08958  0.31578  1.0000
  C   C137      1.0  0.33364999999999995  0.25799  0.31909  1.0000
  H   H83       1.0  0.7068699999999999  0.99109  0.31734  1.0000
  C   C138      1.0  0.71647  0.2901  0.32143  1.0000
  H   H84       1.0  0.69149  0.57448  0.31915  1.0000
  C   C139      1.0  0.82886  0.78995  0.31844  1.0000
  H   H85       1.0  0.97337  0.00275  0.32048  1.0000
  C   C140      1.0  0.30007999999999996  0.12281000000000002  0.31918  1.0000
  C   C141      1.0  0.3903499999999999  0.33722  0.32793  1.0000
  H   H86       1.0  0.4155499999999999  0.44154  0.32795  1.0000
  C   C142      1.0  0.70208  0.16387  0.32367  1.0000
  C   C143      1.0  0.7494399999999998  0.66646  0.32351999999999986  1.0000
  H   H87       1.0  0.70021  0.34726  0.32738  1.0000
  C   C144      1.0  0.90785  0.90738  0.32427  1.0000
  H   H88       1.0  0.30202  0.96385  0.32775999999999994  1.0000
  C   C145      1.0  0.32534  0.06757  0.32794  1.0000
  C   C146      1.0  0.67977  0.11540999999999998  0.33438  1.0000
  C   C147      1.0  0.73176  0.66384  0.33417  1.0000
  C   C148      1.0  0.88895  0.90456  0.33492  1.0000
  C   C149      1.0  0.41616  0.28212  0.3367399999999999  1.0000
  O   O46       1.0  0.6227899999999998  0.9828499999999999  0.33599  1.0000
  H   H89       1.0  0.66132  0.56962  0.33793  1.0000
  C   C150      1.0  0.38622  0.14737  0.33673  1.0000
  O   O47       1.0  0.74931  0.20641  0.34176  1.0000
  C   C151      1.0  0.7902599999999999  0.78471  0.33973  1.0000
  H   H90       1.0  0.93898  0.99805  0.33922  1.0000
  H   H91       1.0  0.4614  0.3447  0.34347  1.0000
  C   C152      1.0  0.43244  0.09367999999999997  0.3453499999999999  1.0000
  O   O48       1.0  0.38348  0.96422  0.34607  1.0000
  O   O49       1.0  0.58169  0.75056  0.34834  1.0000
  Ni  Ni10      1.0  0.5051399999999999  0.8791899999999999  0.34844  1.0000
  C   C153      1.0  0.7173900000000001  0.79226  0.34892  1.0000
  O   O50       1.0  0.50521  0.17186  0.35293999999999986  1.0000
  H   H92       1.0  0.73659  0.02901  0.35245  1.0000
  Ni  Ni11      1.0  0.69573  0.19088  0.3574099999999999  1.0000
  O   O51       1.0  0.65635  0.01033  0.35692  1.0000
  O   O52       1.0  0.78915  0.85131  0.35734  1.0000
  O   O53       1.0  0.37174  0.7823  0.36016  1.0000
  O   O54       1.0  0.90351  0.2682  0.36214  1.0000
  O   O55       1.0  0.91117  0.08926  0.36915  1.0000
  C   C154      1.0  0.93887  0.21472  0.36972  1.0000
  C   C155      1.0  0.41454999999999986  0.74818  0.36848  1.0000
  Ni  Ni12      1.0  0.71387  0.93121  0.36764999999999987  1.0000
  O   O56       1.0  0.53639  0.75348  0.36847  1.0000
  O   O57       1.0  0.63071  0.17921999999999996  0.37262  1.0000
  H   H93       1.0  0.29883000000000004  0.89654  0.3754699999999999  1.0000
  C   C156      1.0  0.022919999999999986  0.29949  0.37843  1.0000
  H   H94       1.0  0.14673  0.20141  0.38038  1.0000
  C   C157      1.0  0.31169999999999987  0.8357199999999999  0.38128  1.0000
  C   C158      1.0  0.3453999999999999  0.73667  0.3783999999999999  1.0000
  C   C159      1.0  0.6616  0.12265  0.3803  1.0000
  O   O58       1.0  0.6439899999999998  0.9999199999999999  0.37944  1.0000
  H   H95       1.0  0.92562  0.42357999999999996  0.37844  1.0000
  H   H96       1.0  0.3763099999999999  0.57546  0.38392  1.0000
  C   C160      1.0  0.11307999999999997  0.26691  0.38382  1.0000
  C   C161      1.0  0.9904199999999997  0.39326  0.38268  1.0000
  C   C162      1.0  0.35646  0.65608  0.38604  1.0000
  H   H97       1.0  0.54798  0.27265  0.38732  1.0000
  C   C163      1.0  0.31500999999999996  0.86951  0.39169  1.0000
  C   C164      1.0  0.6712499999999999  0.177  0.39075  1.0000
  C   C165      1.0  0.1537  0.31273  0.39391  1.0000
  H   H98       1.0  0.2242599999999999  0.28783999999999993  0.39793  1.0000
  H   H99       1.0  0.30271  0.95468  0.39379  1.0000
  C   C166      1.0  0.3625999999999999  0.69115  0.39636999999999994  1.0000
  C   C167      1.0  0.6120099999999999  0.25849  0.39298  1.0000
  C   C168      1.0  0.023899999999999966  0.43309  0.39294  1.0000
  C   C169      1.0  0.09941  0.3866  0.39885  1.0000
  C   C170      1.0  0.34924000000000005  0.80248  0.3992  1.0000
  H   H100      1.0  0.38731  0.63748  0.40211  1.0000
  C   C171      1.0  0.74806  0.15487  0.39836  1.0000
  H   H101      1.0  0.7942099999999999  0.09223  0.39676  1.0000
  H   H102      1.0  0.98156  0.491  0.39644  1.0000
  C   C172      1.0  0.6374  0.32394  0.40247  1.0000
  H   H103      1.0  0.59294  0.38807  0.4040499999999999  1.0000
  H   H104      1.0  0.60746  0.8939700000000002  0.40711999999999987  1.0000
  C   C173      1.0  0.11551  0.4094400000000001  0.41025  1.0000
  H   H105      1.0  0.11355999999999998  0.59773  0.40983  1.0000
  C   C174      1.0  0.3989599999999999  0.8636800000000001  0.40943  1.0000
  C   C175      1.0  0.77231  0.21938000000000002  0.40788  1.0000
  C   C176      1.0  0.7225499999999999  0.30891  0.40983  1.0000
  C   C177      1.0  0.11906000000000003  0.52356  0.41462  1.0000
  H   H106      1.0  0.20011999999999988  0.8421  0.4142399999999999  1.0000
  H   H107      1.0  0.10848  0.22060999999999997  0.41377  1.0000
  C   C178      1.0  0.5366599999999999  0.90346  0.41242  1.0000
  H   H108      1.0  0.83332  0.20269  0.41362  1.0000
  H   H109      1.0  0.83129  0.58006  0.41137  1.0000
  C   C179      1.0  0.12017  0.31355  0.41684  1.0000
  C   C180      1.0  0.30729999999999996  0.8733799999999999  0.41646  1.0000
  C   C181      1.0  0.7652199999999999  0.39174  0.41932  1.0000
  C   C182      1.0  0.8161599999999999  0.53107  0.41877  1.0000
  C   C183      1.0  0.58439  0.95649  0.42217  1.0000
  C   C184      1.0  0.12957999999999995  0.54268  0.42524  1.0000
  C   C185      1.0  0.13615  0.33589  0.42748  1.0000
  H   H110      1.0  0.13032  0.6302  0.42847  1.0000
  C   C186      1.0  0.3510499999999999  0.91455  0.42661  1.0000
  H   H111      1.0  0.14505  0.26409  0.4324  1.0000
  C   C187      1.0  0.1437499999999999  0.45210999999999996  0.43169  1.0000
  H   H112      1.0  0.27498  0.90839  0.43219  1.0000
  C   C188      1.0  0.4907999999999999  0.95676  0.42957  1.0000
  H   H113      1.0  0.72418  0.22656999999999997  0.42945  1.0000
  C   C189      1.0  0.75614  0.33197  0.42893  1.0000
  H   H114      1.0  0.69449  0.9971699999999999  0.42396  1.0000
  H   H115      1.0  0.36549  0.68136  0.4386799999999999  1.0000
  C   C190      1.0  0.84676  0.6073  0.42778  1.0000
  H   H116      1.0  0.8814199999999998  0.71381  0.42728  1.0000
  C   C191      1.0  0.8252599999999998  0.54476  0.43743  1.0000
  C   C192      1.0  0.18571  0.48931  0.44255  1.0000
  C   C193      1.0  0.5369799999999999  0.99079  0.4405399999999999  1.0000
  H   H117      1.0  0.6618099999999999  0.65747  0.44015  1.0000
  H   H118      1.0  0.69065  0.9239  0.43973  1.0000
  C   C194      1.0  0.7856599999999999  0.40791  0.43793  1.0000
  C   C195      1.0  0.30052  0.61618  0.4448199999999999  1.0000
  H   H119      1.0  0.77092  0.35882  0.44532  1.0000
  C   C196      1.0  0.64427  0.96949  0.44443  1.0000
  H   H120      1.0  0.39987  0.07138  0.44423  1.0000
  C   C197      1.0  0.47398999999999997  0.0432  0.44717  1.0000
  C   C198      1.0  0.71807  0.65875  0.44704  1.0000
  C   C199      1.0  0.8160499999999998  0.61398  0.4467299999999999  1.0000
  C   C200      1.0  0.10521  0.40408  0.45063  1.0000
  H   H121      1.0  0.015159999999999993  0.30634  0.44899  1.0000
  C   C201      1.0  0.32853  0.66167  0.45493  1.0000
  H   H122      1.0  0.41136  0.76287  0.4565  1.0000
  H   H123      1.0  0.6023  0.72119  0.45661  1.0000
  C   C202      1.0  0.6839599999999999  0.69488  0.45638  1.0000
  C   C203      1.0  0.68628  0.9988  0.45464  1.0000
  H   H124      1.0  0.7717499999999999  0.98517  0.45736  1.0000
  C   C204      1.0  0.88886  0.61744  0.45574  1.0000
  H   H125      1.0  0.9669099999999998  0.58572  0.45555  1.0000
  C   C205      1.0  0.5054  0.057179999999999995  0.45772  1.0000
  C   C206      1.0  0.13891999999999993  0.4472999999999999  0.46089  1.0000
  H   H126      1.0  0.0757  0.3819  0.46708  1.0000
  C   C207      1.0  0.25029  0.57733  0.46304  1.0000
  C   C208      1.0  0.60772  0.02874  0.46157  1.0000
  C   C209      1.0  0.7479999999999999  0.68829  0.46551  1.0000
  H   H127      1.0  0.44853999999999994  0.08751000000000002  0.46287  1.0000
  C   C210      1.0  0.8547199999999998  0.65446  0.4651199999999999  1.0000
  C   C211      1.0  0.61745  0.00726  0.4727  1.0000
  H   H128      1.0  0.90569  0.64982  0.47213  1.0000
  C   C212      1.0  0.28042  0.63037  0.47362  1.0000
  C   C213      1.0  0.68573  0.6932  0.47537  1.0000
  O   O59       1.0  0.3006299999999999  0.75178  0.47537  1.0000
  O   O60       1.0  0.5516799999999998  0.60785  0.47698  1.0000
  O   O61       1.0  0.715  0.98044  0.47589  1.0000
  O   O62       1.0  0.53384  0.02014  0.47932  1.0000
  O   O63       1.0  0.27809  0.55413  0.48128  1.0000
  O   O64       1.0  0.76535  0.77572  0.48267  1.0000
  Ni  Ni13      1.0  0.45102  0.6024  0.48999  1.0000
  Ni  Ni14      1.0  0.3953999999999999  0.8605899999999999  0.48861  1.0000
  Ni  Ni15      1.0  0.71692  0.9038500000000002  0.48986  1.0000
  O   O65       1.0  0.5173699999999998  0.79117  0.49094  1.0000
  O   O66       1.0  0.23980999999999997  0.70736  0.49768  1.0000
  O   O67       1.0  0.6073199999999999  0.6136  0.49916999999999995  1.0000
  O   O68       1.0  0.70903  0.0611  0.49652  1.0000
  H   H129      1.0  0.51487  0.79512  0.49848  1.0000
  O   O69       1.0  0.3244  0.56555  0.50232  1.0000
  O   O70       1.0  0.48016  0.9895499999999999  0.50111  1.0000
  O   O71       1.0  0.7465899999999999  0.8383699999999998  0.50348  1.0000
  C   C214      1.0  0.6149  0.04543  0.50357  1.0000
  O   O72       1.0  0.9061299999999999  0.21912  0.5092  1.0000
  H   H130      1.0  0.9370299999999999  0.15119  0.50872  1.0000
  H   H131      1.0  0.9689  0.60049  0.5098699999999998  1.0000
  C   C215      1.0  0.26857  0.64129  0.50483  1.0000
  C   C216      1.0  0.6746  0.7096  0.50619  1.0000
  H   H132      1.0  0.6886599999999999  0.48962999999999995  0.51196  1.0000
  O   O73       1.0  0.04793  0.69207  0.51136  1.0000
  C   C217      1.0  0.80495  0.17236999999999997  0.51671  1.0000
  C   C218      1.0  0.23589999999999994  0.64871  0.51577  1.0000
  C   C219      1.0  0.6906799999999998  0.67117  0.51675  1.0000
  C   C220      1.0  0.6608599999999999  0.09835  0.51412  1.0000
  C   C221      1.0  0.69229  0.55118  0.51842  1.0000
  C   C222      1.0  0.12741  0.67411  0.51867  1.0000
  H   H133      1.0  0.4487399999999999  0.0031599999999999983  0.5201099999999997  1.0000
  C   C223      1.0  0.55967  0.06172  0.52194  1.0000
  H   H134      1.0  0.39722999999999997  0.60816  0.52128  1.0000
  C   C224      1.0  0.31417  0.62852  0.5234199999999999  1.0000
  O   O74       1.0  0.69944  0.87019  0.52379  1.0000
  C   C225      1.0  0.70081  0.75251  0.52524  1.0000
  H   H135      1.0  0.5990199999999999  0.8445  0.52424  1.0000
  C   C226      1.0  0.84572  0.20368999999999998  0.52699  1.0000
  H   H136      1.0  0.9566999999999999  0.26178  0.5288  1.0000
  C   C227      1.0  0.70414  0.51232  0.52839  1.0000
  C   C228      1.0  0.09884999999999998  0.67925  0.52911  1.0000
  H   H137      1.0  0.823  0.43817  0.52951  1.0000
  O   O75       1.0  0.72007  0.40237  0.52976  1.0000
  H   H138      1.0  0.01465  0.69797  0.53126  1.0000
  C   C229      1.0  0.60039  0.0936  0.53222  1.0000
  C   C230      1.0  0.74466  0.16698  0.53482  1.0000
  C   C231      1.0  0.2867699999999999  0.63525  0.53383  1.0000
  C   C232      1.0  0.7086099999999997  0.71144  0.53526  1.0000
  C   C233      1.0  0.17444  0.65465  0.53674  1.0000
  C   C234      1.0  0.70614  0.58935  0.53691  1.0000
  O   O76       1.0  0.49899  0.04926  0.5397  1.0000
  H   H139      1.0  0.47086  0.1192  0.54016  1.0000
  O   O77       1.0  0.3697999999999999  0.6225  0.54113  1.0000
  H   H140      1.0  0.71333  0.77328  0.54172  1.0000
  H   H141      1.0  0.44591  0.71574  0.5425499999999999  1.0000
  C   C235      1.0  0.79099  0.22271  0.54532  1.0000
  O   O78       1.0  0.9275599999999999  0.29127  0.5473899999999998  1.0000
  C   C236      1.0  0.1284  0.63947  0.54759  1.0000
  O   O79       1.0  0.63556  0.41139  0.54951  1.0000
  C   C237      1.0  0.70786  0.54255  0.54749  1.0000
  O   O80       1.0  0.058830000000000014  0.69995  0.55077  1.0000
  O   O81       1.0  0.6966099999999998  0.19121  0.55276  1.0000
  H   H142      1.0  0.8771799999999998  0.46288  0.55295  1.0000
  O   O82       1.0  0.77286  0.63209  0.55497  1.0000
  O   O83       1.0  0.15932  0.56817  0.55406  1.0000
  O   O84       1.0  0.87571  0.455  0.56047  1.0000
  Ni  Ni16      1.0  0.005239999999999961  0.39260999999999996  0.56121  1.0000
  Ni  Ni17      1.0  0.67948  0.32961  0.5616799999999998  1.0000
  Ni  Ni18      1.0  0.93354  0.63971  0.56337  1.0000
  O   O85       1.0  0.87507  0.20801  0.56818  1.0000
  O   O86       1.0  0.1072  0.67924  0.57177  1.0000
  O   O87       1.0  0.62694  0.43666  0.57112  1.0000
  O   O88       1.0  0.69847  0.23942  0.5745  1.0000
  C   C238      1.0  0.78636  0.19335  0.57553  1.0000
  O   O89       1.0  0.08282999999999999  0.47338  0.57557  1.0000
  O   O90       1.0  0.8318999999999998  0.61524  0.57672  1.0000
  C   C239      1.0  0.7103599999999998  0.50796  0.57868  1.0000
  C   C240      1.0  0.10813999999999994  0.59335  0.5785  1.0000
  H   H143      1.0  0.5721199999999999  0.943  0.5792  1.0000
  C   C241      1.0  0.77045  0.10826  0.58438  1.0000
  H   H144      1.0  0.96173  0.25704  0.59178  1.0000
  C   C242      1.0  0.1598299999999999  0.6380899999999999  0.58905  1.0000
  C   C243      1.0  0.64695  0.98389  0.58548  1.0000
  H   H145      1.0  0.29350999999999994  0.54878  0.58926  1.0000
  C   C244      1.0  0.8664599999999999  0.16050999999999999  0.59255  1.0000
  C   C245      1.0  0.67837  0.45728  0.58925  1.0000
  H   H146      1.0  0.85188  0.41872  0.59012  1.0000
  H   H147      1.0  0.03864000000000001  0.73779  0.59147  1.0000
  H   H148      1.0  0.49901999999999996  0.48635  0.59089  1.0000
  C   C246      1.0  0.24381  0.59269  0.59382  1.0000
  C   C247      1.0  0.8355  0.0922  0.60194  1.0000
  C   C248      1.0  0.10140000000000002  0.69998  0.5950499999999997  1.0000
  C   C249      1.0  0.6165499999999999  0.9150600000000001  0.5948199999999998  1.0000
  C   C250      1.0  0.56848  0.45817  0.5947  1.0000
  C   C251      1.0  0.7672799999999999  0.42027  0.59427  1.0000
  H   H149      1.0  0.51946  0.82067  0.59567  1.0000
  C   C252      1.0  0.70899  0.97041  0.60316  1.0000
  H   H150      1.0  0.90812  0.13524  0.6083199999999997  1.0000
  C   C253      1.0  0.11202999999999994  0.70088  0.60579  1.0000
  C   C254      1.0  0.25566  0.59495  0.60453  1.0000
  C   C255      1.0  0.7506  0.38991999999999993  0.6047299999999998  1.0000
  C   C256      1.0  0.55288  0.42935999999999996  0.60525  1.0000
  H   H151      1.0  0.66109  0.72043  0.6077  1.0000
  H   H152      1.0  0.31425  0.5528  0.60815  1.0000
  H   H153      1.0  0.8207599999999999  0.36277  0.60853  1.0000
  C   C257      1.0  0.18358  0.64236  0.61057  1.0000
  H   H154      1.0  0.05738000000000007  0.73935  0.6104  1.0000
  H   H155      1.0  0.47116  0.43514  0.60952  1.0000
  C   C258      1.0  0.64769  0.40036  0.61037  1.0000
  C   C259      1.0  0.67109  0.90293  0.61324  1.0000
  C   C260      1.0  0.64797  0.77151  0.61426  1.0000
  H   H156      1.0  0.010859999999999986  0.39921  0.61894  1.0000
  H   H157      1.0  0.66681  0.06816  0.6209799999999998  1.0000
  C   C261      1.0  0.6522499999999999  0.9676899999999999  0.62175  1.0000
  C   C262      1.0  0.16163  0.60859  0.62161  1.0000
  C   C263      1.0  0.65017  0.39661  0.62168  1.0000
  H   H158      1.0  0.8487199999999999  0.5817  0.62298  1.0000
  H   H159      1.0  0.31137999999999993  0.80892  0.62678  1.0000
  H   H160      1.0  0.58709  0.60351  0.62437  1.0000
  C   C264      1.0  0.6075899999999999  0.7056799999999999  0.62373  1.0000
  H   H161      1.0  0.45036  0.21316999999999997  0.62298  1.0000
  C   C265      1.0  0.7646099999999999  0.49816000000000005  0.62709  1.0000
  C   C266      1.0  0.06473999999999994  0.4771  0.62465  1.0000
  C   C267      1.0  0.23483999999999997  0.70747  0.62907  1.0000
  C   C268      1.0  0.54  0.29104  0.62708  1.0000
  C   C269      1.0  0.6132099999999998  0.9023199999999999  0.63126  1.0000
  C   C270      1.0  0.59303  0.77159  0.6323399999999999  1.0000
  H   H162      1.0  0.39031  0.51484  0.63689  1.0000
  C   C271      1.0  0.55909  0.70495  0.64252  1.0000
  H   H163      1.0  0.59738  0.95265  0.63775  1.0000
  C   C272      1.0  0.21051  0.6751  0.63954  1.0000
  H   H164      1.0  0.27343000000000006  0.75052  0.64521  1.0000
  C   C273      1.0  0.5459899999999998  0.28503  0.6378  1.0000
  C   C274      1.0  0.77054  0.49264  0.63779  1.0000
  C   C275      1.0  0.03417  0.4463  0.63505  1.0000
  H   H165      1.0  0.8596699999999999  0.57167  0.64184  1.0000
  C   C276      1.0  0.10715999999999996  0.5448  0.64263  1.0000
  H   H166      1.0  0.9504899999999997  0.34712  0.6371799999999999  1.0000
  C   C277      1.0  0.44819  0.57187  0.64359  1.0000
  H   H167      1.0  0.45924  0.20394  0.6419  1.0000
  C   C278      1.0  0.66371  0.38358  0.6432  1.0000
  H   H168      1.0  0.7246099999999999  0.8762799999999998  0.65052  1.0000
  C   C279      1.0  0.63451  0.77614  0.65127  1.0000
  C   C280      1.0  0.40717  0.5145  0.65336  1.0000
  H   H169      1.0  0.32014  0.41274000000000005  0.65408  1.0000
  C   C281      1.0  0.5910399999999998  0.7201699999999999  0.66104  1.0000
  H   H170      1.0  0.75555  0.58622  0.6574  1.0000
  C   C282      1.0  0.47361  0.59116  0.66216  1.0000
  C   C283      1.0  0.6731899999999998  0.37363999999999997  0.65454  1.0000
  C   C284      1.0  0.7142199999999997  0.48737  0.6608  1.0000
  H   H171      1.0  0.034140000000000004  0.30448  0.65195  1.0000
  C   C285      1.0  0.07816  0.51018  0.65378  1.0000
  H   H172      1.0  0.10432000000000001  0.70333  0.65843  1.0000
  H   H173      1.0  0.60572  0.16079  0.65457  1.0000
  C   C286      1.0  0.62769  0.24778999999999998  0.6592  1.0000
  C   C287      1.0  0.044189999999999965  0.38123  0.6573  1.0000
  C   C288      1.0  0.09013  0.60732  0.66099  1.0000
  H   H174      1.0  0.64686  0.7782  0.66775  1.0000
  C   C289      1.0  0.033299999999999996  0.35362  0.66781  1.0000
  C   C290      1.0  0.41087  0.54511  0.6724099999999997  1.0000
  C   C291      1.0  0.69126  0.47213  0.67141  1.0000
  C   C292      1.0  0.08811999999999999  0.58197  0.67155  1.0000
  H   H175      1.0  0.009689999999999992  0.25442  0.67035  1.0000
  C   C293      1.0  0.60051  0.23214  0.66977  1.0000
  O   O91       1.0  0.32793  0.41219  0.67394  1.0000
  H   H176      1.0  0.5535599999999999  0.13261  0.67315  1.0000
  H   H177      1.0  0.71387  0.55919  0.67606  1.0000
  C   C294      1.0  0.06826000000000002  0.45728  0.675  1.0000
  H   H178      1.0  0.10667999999999997  0.66066  0.677  1.0000
  C   C295      1.0  0.6236  0.34309  0.67578  1.0000
  O   O92       1.0  0.40846999999999994  0.6374  0.6785999999999998  1.0000
  O   O93       1.0  0.41066  0.24075999999999997  0.68571  1.0000
  Ni  Ni19      1.0  0.27477  0.31002  0.68768  1.0000
  C   C296      1.0  0.5481  0.32124  0.68553  1.0000
  C   C297      1.0  0.10672  0.44159  0.68566  1.0000
  O   O94       1.0  0.10224  0.33006  0.68829  1.0000
  O   O95       1.0  0.17269999999999996  0.54615  0.6916399999999998  1.0000
  Ni  Ni20      1.0  0.38603  0.62807  0.69459  1.0000
  H   H179      1.0  0.48399  0.50794  0.68955  1.0000
  O   O96       1.0  0.18671  0.19207  0.70011  1.0000
  O   O97       1.0  0.40832999999999997  0.47266  0.69469  1.0000
  O   O98       1.0  0.6163999999999998  0.38895  0.69383  1.0000
  O   O99       1.0  0.59719  0.76541  0.69757  1.0000
  O   O100      1.0  0.6864599999999998  0.63492  0.70294  1.0000
  C   C298      1.0  0.6692699999999999  0.73898  0.70437  1.0000
  Ni  Ni21      1.0  0.5239099999999999  0.4463  0.7045799999999999  1.0000
  C   C299      1.0  0.2579699999999999  0.20535000000000003  0.7085799999999998  1.0000
  O   O101      1.0  0.3938499999999999  0.25352  0.70815  1.0000
  O   O102      1.0  0.34786  0.62078  0.71023  1.0000
  H   H180      1.0  0.55039  0.87254  0.7139299999999997  1.0000
  C   C300      1.0  0.70364  0.80586  0.71456  1.0000
  H   H181      1.0  0.8734  0.76603  0.71773  1.0000
  H   H182      1.0  0.9962499999999999  0.16159  0.71349  1.0000
  C   C301      1.0  0.3472199999999999  0.53114  0.71667  1.0000
  O   O103      1.0  0.45406  0.50752  0.71685  1.0000
  C   C302      1.0  0.6180099999999998  0.8527299999999999  0.71883  1.0000
  C   C303      1.0  0.1853  0.16349  0.71861  1.0000
  C   C304      1.0  0.053720000000000004  0.15455  0.72002  1.0000
  C   C305      1.0  0.7999599999999999  0.79339  0.72097  1.0000
  H   H183      1.0  0.10067999999999995  0.53103  0.71898  1.0000
  H   H184      1.0  0.35704  0.1562  0.72622  1.0000
  C   C306      1.0  0.25691  0.15224999999999997  0.72718  1.0000
  C   C307      1.0  0.26498  0.50722  0.7262  1.0000
  C   C308      1.0  0.60872  0.8605000000000002  0.72953  1.0000
  C   C309      1.0  0.9989499999999999  0.14278  0.72994  1.0000
  C   C310      1.0  0.14915  0.52837  0.72618  1.0000
  C   C311      1.0  0.79327  0.80424  0.73164  1.0000
  H   H185      1.0  0.89806  0.13708  0.73093  1.0000
  H   H186      1.0  0.5325499999999999  0.8840599999999998  0.73279  1.0000
  H   H187      1.0  0.40205  0.46848  0.7358599999999998  1.0000
  C   C312      1.0  0.6916699999999999  0.8297  0.73599  1.0000
  C   C313      1.0  0.07564999999999997  0.14078999999999997  0.73855  1.0000
  C   C314      1.0  0.20408  0.14378  0.73706  1.0000
  H   H188      1.0  0.8632999999999997  0.7877  0.73653  1.0000
  H   H189      1.0  0.026389999999999997  0.59078  0.73507  1.0000
  C   C315      1.0  0.10612000000000002  0.5612  0.73531  1.0000
  C   C316      1.0  0.3185099999999999  0.49291999999999997  0.73564  1.0000
  H   H190      1.0  0.26552  0.14418  0.7436  1.0000
  C   C317      1.0  0.27156  0.5204  0.74482  1.0000
  C   C318      1.0  0.17301  0.56492  0.7446  1.0000
  H   H191      1.0  0.63017  0.60981  0.7475799999999998  1.0000
  C   C319      1.0  0.6644300000000001  0.813  0.7472  1.0000
  H   H192      1.0  0.96134  0.28915  0.74592  1.0000
  C   C320      1.0  0.025869999999999987  0.14216  0.74914  1.0000
  H   H193      1.0  0.3742599999999999  0.76426  0.75604  1.0000
  C   C321      1.0  0.6347  0.69185  0.75204  1.0000
  C   C322      1.0  0.6678700000000001  0.91755  0.75306  1.0000
  H   H194      1.0  0.68853  0.01063  0.7494  1.0000
  C   C323      1.0  0.97961  0.23285  0.75182  1.0000
  H   H195      1.0  0.31664999999999993  0.51361  0.75206  1.0000
  C   C324      1.0  0.15270999999999996  0.6295  0.75377  1.0000
  H   H196      1.0  0.92548  0.51714  0.75317  1.0000
  H   H197      1.0  0.06904000000000005  0.98893  0.7549  1.0000
  C   C325      1.0  0.04071  0.06437  0.75687  1.0000
  C   C326      1.0  0.27  0.72921  0.75903  1.0000
  C   C327      1.0  0.6109399999999999  0.67636  0.76265  1.0000
  C   C328      1.0  0.6448299999999999  0.90218  0.76368  1.0000
  C   C329      1.0  0.95932  0.25285  0.76216  1.0000
  C   C330      1.0  0.0171  0.59182  0.7573  1.0000
  H   H198      1.0  0.92436  0.32328  0.76414  1.0000
  C   C331      1.0  0.02561  0.08799  0.76719  1.0000
  H   H199      1.0  0.59109  0.58361  0.76633  1.0000
  H   H200      1.0  0.6475999999999998  0.98328  0.76813  1.0000
  C   C332      1.0  0.98552  0.18284  0.76991  1.0000
  C   C333      1.0  0.25298  0.78171  0.76825  1.0000
  C   C334      1.0  0.61698  0.7818  0.76853  1.0000
  C   C335      1.0  0.9996999999999999  0.64735  0.76638  1.0000
  H   H201      1.0  0.0458  0.03309  0.77307  1.0000
  H   H202      1.0  0.8946799999999998  0.61631  0.76914  1.0000
  H   H203      1.0  0.34491  0.8529  0.77254  1.0000
  C   C336      1.0  0.11778999999999995  0.73883  0.77209  1.0000
  H   H204      1.0  0.2336699999999999  0.99271  0.77979  1.0000
  C   C337      1.0  0.10021000000000001  0.77927  0.78252  1.0000
  H   H205      1.0  0.38955  0.63733  0.7809  1.0000
  C   C338      1.0  0.6138799999999998  0.77329  0.77987  1.0000
  H   H206      1.0  0.8374  0.9028  0.78143  1.0000
  H   H207      1.0  0.75614  0.17269999999999996  0.7789599999999998  1.0000
  C   C339      1.0  0.9666799999999998  0.20509  0.78088  1.0000
  H   H208      1.0  0.17567999999999995  0.25105  0.7854299999999997  1.0000
  C   C340      1.0  0.8366899999999999  0.18542  0.78439  1.0000
  C   C341      1.0  0.17001000000000002  0.91577  0.78535  1.0000
  C   C342      1.0  0.7395  0.8421  0.7854  1.0000
  C   C343      1.0  0.48742999999999986  0.69123  0.78512  1.0000
  C   C344      1.0  0.07307  0.23056  0.78804  1.0000
  H   H209      1.0  0.9685899999999998  0.57482  0.7877999999999997  1.0000
  C   C345      1.0  0.020380000000000002  0.6806  0.78984  1.0000
  H   H210      1.0  0.21226  0.05884  0.79744  1.0000
  C   C346      1.0  0.15820999999999996  0.9532199999999998  0.79537  1.0000
  C   C347      1.0  0.8076499999999998  0.17478  0.79493  1.0000
  C   C348      1.0  0.7398399999999998  0.8294999999999999  0.79605  1.0000
  C   C349      1.0  0.48822  0.67623  0.79583  1.0000
  C   C350      1.0  0.04488  0.22223  0.79858  1.0000
  H   H211      1.0  0.70428  0.15222  0.79751  1.0000
  H   H212      1.0  0.8375599999999996  0.8849599999999999  0.80021  1.0000
  H   H213      1.0  0.39118999999999987  0.60982  0.79981  1.0000
  C   C351      1.0  0.61536  0.74358  0.8012999999999998  1.0000
  C   C352      1.0  0.90943  0.18643  0.80207  1.0000
  C   C353      1.0  0.008610000000000003  0.71779  0.79983  1.0000
  C   C354      1.0  0.07751  0.85432  0.80268  1.0000
  H   H214      1.0  0.12629999999999997  0.23687999999999998  0.8039999999999998  1.0000
  H   H215      1.0  0.9445399999999999  0.64036  0.80534  1.0000
  C   C355      1.0  0.62231  0.71537  0.81225  1.0000
  O   O104      1.0  0.71289  0.67628  0.81512  1.0000
  O   O105      1.0  0.08895  0.01884  0.8150299999999998  1.0000
  O   O106      1.0  0.56209  0.75582  0.81919  1.0000
  O   O107      1.0  0.7352399999999999  0.054459999999999995  0.81496  1.0000
  H   H216      1.0  0.84163  0.91586  0.81879  1.0000
  C   C356      1.0  0.86853  0.14138  0.8128  1.0000
  O   O108      1.0  0.01075000000000001  0.80091  0.8205  1.0000
  C   C357      1.0  0.05732999999999994  0.8927399999999999  0.8131  1.0000
  Ni  Ni22      1.0  0.82916  0.74446  0.82818  1.0000
  O   O109      1.0  0.8400499999999999  0.91509  0.82633  1.0000
  O   O110      1.0  0.96529  0.18757  0.82016  1.0000
  Ni  Ni23      1.0  0.67821  0.93166  0.82793  1.0000
  Ni  Ni24      1.0  0.02302  0.06782  0.82798  1.0000
  O   O111      1.0  0.11615000000000004  0.9836700000000002  0.83609  1.0000
  O   O112      1.0  0.64279  0.65275  0.83566  1.0000
  O   O113      1.0  0.77187  0.10953999999999998  0.83645  1.0000
  O   O114      1.0  0.6124600000000001  0.82371  0.8416499999999998  1.0000
  O   O115      1.0  0.9265  0.78892  0.84189  1.0000
  H   H217      1.0  0.35941  0.40256  0.84568  1.0000
  H   H218      1.0  0.20518  0.77248  0.8461299999999999  1.0000
  C   C358      1.0  0.6158899999999998  0.71192  0.84323  1.0000
  O   O116      1.0  0.9901000000000002  0.41896  0.84653  1.0000
  C   C359      1.0  0.8663399999999999  0.13392  0.84362  1.0000
  O   O117      1.0  0.9789199999999998  0.1242  0.84167  1.0000
  C   C360      1.0  0.051400000000000036  0.89497  0.84344  1.0000
  O   O118      1.0  0.34983000000000003  0.48134000000000005  0.84765  1.0000
  C   C361      1.0  0.12993999999999983  0.8986599999999999  0.85263  1.0000
  C   C362      1.0  0.1934899999999999  0.8186099999999998  0.8530599999999998  1.0000
  C   C363      1.0  0.58039  0.64853  0.85341  1.0000
  C   C364      1.0  0.8595000000000003  0.19432000000000002  0.85343  1.0000
  H   H219      1.0  0.08315999999999998  0.42917  0.84488  1.0000
  C   C365      1.0  0.44417  0.5425  0.8555  1.0000
  H   H220      1.0  0.399  0.77743  0.8625599999999998  1.0000
  C   C366      1.0  0.9421399999999999  0.33429  0.85486  1.0000
  O   O119      1.0  0.29654  0.7131999999999998  0.86294  1.0000
  C   C367      1.0  0.23449  0.79156  0.86254  1.0000
  H   H221      1.0  0.7858999999999999  0.77936  0.85977  1.0000
  O   O120      1.0  0.07682999999999997  0.05567  0.86105  1.0000
  C   C368      1.0  0.12214999999999997  0.9637399999999999  0.86157  1.0000
  H   H222      1.0  0.045440000000000015  0.49467  0.86587  1.0000
  C   C369      1.0  0.40091  0.50728  0.86573  1.0000
  C   C370      1.0  0.67834  0.7038  0.86141  1.0000
  H   H223      1.0  0.9748499999999998  0.0034799999999999996  0.86253  1.0000
  C   C371      1.0  0.79808  0.11086  0.86201  1.0000
  H   H224      1.0  0.73111  0.0032400000000000003  0.86097  1.0000
  C   C372      1.0  0.9768799999999999  0.38758  0.86482  1.0000
  H   H225      1.0  0.29214  0.43429999999999996  0.86736  1.0000
  C   C373      1.0  0.15882999999999994  0.9329  0.87108  1.0000
  C   C374      1.0  0.20517999999999992  0.8390199999999999  0.87164  1.0000
  C   C375      1.0  0.9302599999999999  0.30188  0.87339  1.0000
  C   C376      1.0  0.49294  0.57882  0.87381  1.0000
  C   C377      1.0  0.8344099999999999  0.16396  0.87199  1.0000
  C   C378      1.0  0.63525  0.66861  0.87161  1.0000
  C   C379      1.0  0.19511000000000006  0.77127  0.88138  1.0000
  H   H226      1.0  0.14252999999999996  0.97513  0.87806  1.0000
  C   C380      1.0  0.9971599999999998  0.35304  0.88346  1.0000
  O   O121      1.0  0.08175000000000002  0.65436  0.8831699999999998  1.0000
  O   O122      1.0  0.4368199999999999  0.70846  0.88519  1.0000
  C   C381      1.0  0.4341  0.59372  0.8834999999999997  1.0000
  H   H227      1.0  0.69491  0.07671  0.88219  1.0000
  O   O123      1.0  0.7839999999999999  0.07949  0.88032  1.0000
  H   H228      1.0  0.73362  0.81287  0.88095  1.0000
  O   O124      1.0  0.73082  0.72661  0.87944  1.0000
  O   O125      1.0  0.10853999999999994  0.34439  0.88594  1.0000
  O   O126      1.0  0.28381  0.83867  0.88883  1.0000
  O   O127      1.0  0.9337  0.3873  0.89039  1.0000
  O   O128      1.0  0.40709  0.50662  0.89097  1.0000
  Ni  Ni25      1.0  0.02978000000000001  0.57116  0.89721  1.0000
  O   O129      1.0  0.20655000000000007  0.58139  0.89973  1.0000
  Ni  Ni26      1.0  0.36707  0.75533  0.89809  1.0000
  O   O130      1.0  0.0851499999999999  0.75083  0.90396  1.0000
  Ni  Ni27      1.0  0.22168999999999997  0.42431  0.89945  1.0000
  H   H229      1.0  0.28023  0.07291  0.9139  1.0000
  O   O131      1.0  0.4888299999999999  0.70615  0.90703  1.0000
  H   H230      1.0  0.20575  0.58914  0.9071899999999998  1.0000
  O   O132      1.0  0.04027  0.32548  0.9086399999999998  1.0000
  C   C382      1.0  0.18037999999999993  0.80611  0.91138  1.0000
  O   O133      1.0  0.31024000000000007  0.82723  0.9102199999999998  1.0000
  O   O134      1.0  0.95343  0.47087999999999997  0.91069  1.0000
  C   C383      1.0  0.21101  0.012329999999999999  0.92005  1.0000
  C   C384      1.0  0.9986899999999999  0.3927  0.91471  1.0000
  O   O135      1.0  0.3498099999999999  0.48612999999999995  0.91235  1.0000
  C   C385      1.0  0.43812  0.61432  0.91446  1.0000
  C   C386      1.0  0.15132  0.8719099999999999  0.91992  1.0000
  H   H231      1.0  0.22387  0.18299  0.92798  1.0000
  H   H232      1.0  0.5542  0.8622400000000001  0.92336  1.0000
  C   C387      1.0  0.058390000000000074  0.79402  0.9277199999999998  1.0000
  C   C388      1.0  0.17958999999999997  0.07467  0.9280499999999998  1.0000
  C   C389      1.0  0.036189999999999986  0.40902999999999995  0.92574  1.0000
  H   H233      1.0  0.21092  0.61056  0.92386  1.0000
  C   C390      1.0  0.4918199999999999  0.65171  0.9250699999999997  1.0000
  C   C391      1.0  0.5395399999999999  0.7832399999999999  0.92866  1.0000
  H   H234      1.0  0.007070000000000013  0.68523  0.92743  1.0000
  C   C392      1.0  0.09200999999999995  0.99719  0.93617  1.0000
  H   H235      1.0  0.86081  0.21762999999999996  0.9303699999999998  1.0000
  C   C393      1.0  0.03141999999999995  0.85633  0.93594  1.0000
  C   C394      1.0  0.9462599999999998  0.31371  0.9329399999999999  1.0000
  C   C395      1.0  0.14594999999999994  0.53312  0.9292499999999998  1.0000
  H   H236      1.0  0.43735  0.44884  0.92947  1.0000
  C   C396      1.0  0.47289  0.55056  0.9320999999999998  1.0000
  H   H237      1.0  0.28844  0.21286  0.9468999999999997  1.0000
  C   C397      1.0  0.5619999999999999  0.8117299999999998  0.93918  1.0000
  H   H238      1.0  0.59853  0.91349  0.94186  1.0000
  C   C398      1.0  0.16222  0.56406  0.9396899999999999  1.0000
  H   H239      1.0  0.24248999999999998  0.66327  0.94217  1.0000
  H   H240      1.0  0.9639399999999999  0.7952999999999999  0.94214  1.0000
  C   C399      1.0  0.0688  0.06349  0.94513  1.0000
  C   C400      1.0  0.9596399999999998  0.34697  0.94343  1.0000
  C   C401      1.0  0.18347  0.17159  0.95003  1.0000
  C   C402      1.0  0.49248  0.57839  0.94261  1.0000
  C   C403      1.0  0.5368699999999998  0.7089599999999999  0.94623  1.0000
  H   H241      1.0  0.8441199999999999  0.92994  0.9454999999999998  1.0000
  C   C404      1.0  0.06554  0.47428  0.94678  1.0000
  H   H242      1.0  0.47109  0.4978699999999999  0.9479699999999998  1.0000
  C   C405      1.0  0.86482  0.58704  0.98989  1.0000
  C   C406      1.0  0.93356  0.011509999999999998  0.94931  1.0000
  H   H243      1.0  0.79693  0.28869  0.98752  1.0000
  C   C407      1.0  0.9144699999999998  0.060719999999999996  0.95863  1.0000
  H   H244      1.0  0.8287099999999998  0.22310999999999998  0.97011  1.0000
  H   H245      1.0  0.7827  0.53275  0.98428  1.0000
  C   C408      1.0  0.88397  0.27157  0.98603  1.0000
  C   C409      1.0  0.9009299999999999  0.23267  0.9761699999999998  1.0000
  C   C410      1.0  0.9800499999999999  0.28941  0.9938799999999999  1.0000
  H   H246      1.0  0.88312  0.27717  0.94885  1.0000
  C   C411      1.0  0.012259999999999998  0.20826999999999998  0.97412  1.0000
  H   H247      1.0  0.9115099999999999  0.5883  0.95228  1.0000
  C   C412      1.0  0.029879999999999983  0.16526  0.96375  1.0000
  H   H248      1.0  0.9107699999999999  0.68778  0.9690599999999998  1.0000
  C   C413      1.0  0.09234999999999999  0.26691  0.9917500000000001  1.0000
  C   C414      1.0  0.9739199999999999  0.58342  0.95855  1.0000
  C   C415      1.0  0.10667  0.22419999999999998  0.98201  1.0000
  C   C416      1.0  0.97182  0.63807  0.9681  1.0000
  H   H249      1.0  0.16589  0.27779  0.99774  1.0000
  C   C417      1.0  0.006629999999999987  0.642  0.98713  1.0000
  C   C418      1.0  0.05764000000000001  0.52407  0.95706  1.0000
  H   H250      1.0  0.19041  0.20187999999999998  0.98064  1.0000
  C   C419      1.0  0.043949999999999996  0.62373  0.9764999999999998  1.0000
  C   C420      1.0  0.16402999999999995  0.22268  0.95925  1.0000
  C   C421      1.0  0.14565999999999996  0.52729  0.96503  1.0000
  C   C422      1.0  0.13585  0.57308  0.97481  1.0000
  C   C423      1.0  0.11106  0.70664  0.99467  1.0000
  H   H251      1.0  0.22052  0.49357  0.96367  1.0000
  H   H252      1.0  0.19584  0.56495  0.98112  1.0000
  H   H253      1.0  0.25409  0.30388  0.96307  1.0000
  H   H254      1.0  0.22094000000000003  0.75545  0.9925799999999999  1.0000
  H   H255      1.0  0.4366799999999999  0.83775  0.95823  1.0000
  C   C424      1.0  0.56082  0.73865  0.9573699999999998  1.0000
  C   C425      1.0  0.50305  0.80865  0.96239  1.0000
  H   H256      1.0  0.6873999999999999  0.64328  0.9592  1.0000
  H   H257      1.0  0.44610999999999995  0.77981  0.9943500000000001  1.0000
  C   C426      1.0  0.64225  0.69736  0.96297  1.0000
  C   C427      1.0  0.53261  0.8429  0.97279  1.0000
  H   H258      1.0  0.49220999999999987  0.9015799999999999  0.97648  1.0000
  C   C428      1.0  0.6672300000000001  0.72726  0.97344  1.0000
  C   C429      1.0  0.6166800000000001  0.80378  0.97833  1.0000
  C   C430      1.0  0.5565699999999998  0.8354199999999999  0.99629  1.0000
  H   H259      1.0  0.7278299999999999  0.69303  0.97771  1.0000
  H   H260      1.0  0.8105399999999999  0.01607  0.96197  1.0000
  C   C431      1.0  0.6579699999999999  0.84895  0.98909  1.0000
  C   C432      1.0  0.79991  0.9109299999999999  0.9920600000000002  1.0000
  H   H261      1.0  0.8791299999999997  0.9187999999999998  0.9866899999999998  1.0000
