data_image0
_chemical_formula_structural       CNiCO5NiOCHNiCHOHCOHC4O2HC2H2C3HC4HCH3CHC8HCH3C2HC3H2C8H2CHC3O2C2O2HO2NiONi2OHNHOCO2HCHNCOHOC5HC4H2CHC5OCHN2H2NOHOH2ONi2O3CH3CHC2HCHCHCHCHCH2C4H2CHCHC4HC3HOHCOCNiO3NiO3C2OC2ONiOCH2COC2H2C6HC2OCH2CHCH2C3NHC7OCOHCOHCH2COC2OHC4H2C4H2C5H2CHC5HC4HC3H2C3HC3HCHCHC2O2CO4Ni3O2H2OHOHOCON2HCOC6H2C3HCH2C5NH2N2OCHOH3NiO2C2HC2HC3HC5HC3OCHO2CNiCO2HONiO2HCONiCOHOCOH3COC3HC2HOC2H2CHCHC3HCHC3OCO3H3Ni2CH2O2H2NiHCO4HC2HC2NCHCHC2H2C2OC3HC3H3C2HC2HC9HC6H3CHC3HC2HCH2C5H3C7HC2HC5H3CHCHC3HC2O4HO3Ni3O4HCOCOCHNH3NC6H3CHCNC2NCH3C2NC4HCHNH3C3O3HO3Ni3O4HO3C3HC3HCH2CHC2HC4HCHC2HC4HCH2C3HC6H2CH3CHC10H2CH2CHOC
_chemical_formula_sum              "C360 Ni27 O117 H207 N18"
_cell_length_a       11.53189
_cell_length_b       10.88581
_cell_length_c       105.85764
_cell_angle_alpha    90.06953
_cell_angle_beta     90.02725999999998
_cell_angle_gamma    119.72467

_symmetry_space_group_name_H-M    'P 1'
_symmetry_Int_Tables_number       1

loop_
  _symmetry_equiv_pos_as_xyz
  'x,y,z'

loop_
  _atom_site_type_symbol
  _atom_site_label
  _atom_site_symmetry_multiplicity
  _atom_site_fract_x
  _atom_site_fract_y
  _atom_site_fract_z
  _atom_site_occupancy
  C   C1        1.0  0.26782  0.40454  0.00485  1.0000
  Ni  Ni1       1.0  0.9838000000000002  0.29736  0.00803  1.0000
  C   C2        1.0  0.7204400000000001  0.05284  0.0055  1.0000
  O   O1        1.0  0.7831100000000002  0.18837  0.00792  1.0000
  O   O2        1.0  0.29429  0.35124  0.0148  1.0000
  O   O3        1.0  0.9766100000000005  0.4234  0.02168000000000001  1.0000
  O   O4        1.0  0.7209400000000002  0.9657899999999999  0.014030000000000004  1.0000
  O   O5        1.0  0.21545  0.11524  0.027420000000000007  1.0000
  Ni  Ni2       1.0  0.8974400000000002  0.9734599999999999  0.01984  1.0000
  O   O6        1.0  0.0004599999999999967  0.17548  0.0202  1.0000
  C   C3        1.0  0.05027999999999996  0.45396  0.03208  1.0000
  H   H1        1.0  0.94275  0.18804  0.02627  1.0000
  Ni  Ni3       1.0  0.16591  0.26669  0.02934  1.0000
  C   C4        1.0  0.13971999999999998  0.98961  0.03191  1.0000
  H   H2        1.0  0.79254  0.36091  0.03916  1.0000
  O   O7        1.0  0.027669999999999965  0.9054  0.02622  1.0000
  H   H3        1.0  0.38805000000000006  0.06113  0.04045  1.0000
  C   C5        1.0  0.0020800000000000133  0.4821  0.04397  1.0000
  O   O8        1.0  0.16202  0.44818  0.03217  1.0000
  H   H4        1.0  0.19855  0.62158  0.05152  1.0000
  C   C6        1.0  0.17546000000000003  0.94909  0.044  1.0000
  C   C7        1.0  0.31048000000000003  0.01394  0.047550000000000016  1.0000
  C   C8        1.0  0.86512  0.40847  0.04670000000000001  1.0000
  C   C9        1.0  0.09358999999999996  0.55418  0.05372  1.0000
  O   O9        1.0  0.8598300000000001  0.9818099999999998  0.03905  1.0000
  O   O10       1.0  0.06553  0.17314  0.04576  1.0000
  H   H5        1.0  0.97238  0.8149799999999999  0.05037000000000001  1.0000
  C   C10       1.0  0.07651999999999988  0.8746399999999999  0.05314  1.0000
  C   C11       1.0  0.34584000000000004  0.02895  0.0603  1.0000
  H   H6        1.0  0.4503500000000001  0.07799  0.06286  1.0000
  H   H7        1.0  0.7160000000000001  0.33549  0.06115  1.0000
  C   C12       1.0  0.8219200000000001  0.38649  0.05923000000000001  1.0000
  C   C13       1.0  0.05180000000000002  0.52782  0.06634  1.0000
  C   C14       1.0  0.93425  0.08361  0.047410000000000015  1.0000
  H   H8        1.0  0.24748  0.66833  0.07409  1.0000
  C   C15       1.0  0.9163100000000002  0.43238  0.06914  1.0000
  C   C16       1.0  0.14456000000000002  0.59101  0.07616000000000002  1.0000
  C   C17       1.0  0.11184999999999992  0.88788  0.06601  1.0000
  C   C18       1.0  0.2457699999999999  0.9792499999999998  0.06963  1.0000
  H   H9        1.0  0.67194  0.9595200000000002  0.05425  1.0000
  C   C19       1.0  0.87854  0.06891  0.06027  1.0000
  H   H10       1.0  0.0688  0.1927  0.06969  1.0000
  H   H11       1.0  0.9129800000000001  0.74004  0.07263  1.0000
  H   H12       1.0  0.6894  0.19842  0.07711  1.0000
  C   C20       1.0  0.74016  0.98505  0.06212  1.0000
  H   H13       1.0  0.46005000000000007  0.21489  0.07910000000000003  1.0000
  C   C21       1.0  0.96327  0.11818  0.07087  1.0000
  C   C22       1.0  0.015099999999999943  0.81405  0.0753  1.0000
  C   C23       1.0  0.8795700000000002  0.38405  0.08173000000000002  1.0000
  C   C24       1.0  0.27591  0.01763  0.08251  1.0000
  C   C25       1.0  0.7568500000000001  0.26217  0.08453  1.0000
  C   C26       1.0  0.39222000000000007  0.1431  0.08612  1.0000
  C   C27       1.0  0.68995  0.92778  0.074  1.0000
  C   C28       1.0  0.9739400000000001  0.45076999999999995  0.09157  1.0000
  H   H14       1.0  0.17738  0.60738  0.09619  1.0000
  C   C29       1.0  0.05052000000000008  0.83372  0.08811000000000002  1.0000
  H   H15       1.0  0.5830000000000001  0.86857  0.07535  1.0000
  H   H16       1.0  0.09538  0.20164  0.09286  1.0000
  H   H17       1.0  0.9758800000000002  0.77241  0.09515  1.0000
  C   C30       1.0  0.17934  0.93825  0.09182  1.0000
  C   C31       1.0  0.41637000000000013  0.18211  0.09882000000000003  1.0000
  H   H18       1.0  0.55334  0.69812  0.08793000000000001  1.0000
  C   C32       1.0  0.7249800000000001  0.21516000000000002  0.09694000000000001  1.0000
  C   C33       1.0  0.7785000000000001  0.95389  0.08414000000000003  1.0000
  C   C34       1.0  0.99516  0.11205  0.09357  1.0000
  H   H19       1.0  0.50478  0.28017  0.10143000000000003  1.0000
  H   H20       1.0  0.63201  0.1191  0.09884000000000001  1.0000
  C   C35       1.0  0.9377300000000001  0.40744  0.10412  1.0000
  C   C36       1.0  0.6197  0.73926  0.09595  1.0000
  C   C37       1.0  0.81179  0.2914399999999999  0.10686  1.0000
  C   C38       1.0  0.7379200000000005  0.8724600000000002  0.09543  1.0000
  C   C39       1.0  0.95035  0.04256  0.10512000000000002  1.0000
  C   C40       1.0  0.20956000000000005  0.97251  0.10468  1.0000
  C   C41       1.0  0.3281200000000001  0.09497  0.10816000000000003  1.0000
  C   C42       1.0  0.82665  0.91716  0.10590000000000001  1.0000
  H   H21       1.0  0.13840999999999998  0.90837  0.11189  1.0000
  H   H22       1.0  0.50458  0.54783  0.1065  1.0000
  C   C43       1.0  0.59253  0.65208  0.10649000000000003  1.0000
  H   H23       1.0  0.01611  0.0804  0.11325000000000003  1.0000
  C   C44       1.0  0.68296  0.6942  0.11655  1.0000
  C   C45       1.0  0.79687  0.82893  0.11649000000000002  1.0000
  C   C46       1.0  0.3591000000000001  0.13512  0.12151  1.0000
  O   O11       1.0  0.3679500000000001  0.25518  0.12553  1.0000
  O   O12       1.0  0.65284  0.13814  0.1225  1.0000
  C   C47       1.0  0.6684000000000001  0.59069  0.12619  1.0000
  C   C48       1.0  0.7663  0.25633  0.12007  1.0000
  O   O13       1.0  0.7646100000000001  0.55765  0.12724  1.0000
  O   O14       1.0  0.3768800000000001  0.05057  0.12935  1.0000
  H   H24       1.0  0.5940200000000001  0.3155  0.12963  1.0000
  O   O15       1.0  0.8413000000000003  0.34064  0.12936  1.0000
  O   O16       1.0  0.5735  0.55313  0.13489  1.0000
  Ni  Ni4       1.0  0.55234  0.10983  0.13874  1.0000
  O   O17       1.0  0.59396  0.30316  0.13883  1.0000
  Ni  Ni5       1.0  0.77694  0.43957  0.14141  1.0000
  Ni  Ni6       1.0  0.4605100000000001  0.34923  0.14255  1.0000
  O   O18       1.0  0.71277  0.1291  0.14816  1.0000
  H   H25       1.0  0.99814  0.83581  0.1696  1.0000
  N   N1        1.0  0.09743  0.90223  0.16694  1.0000
  H   H26       1.0  0.12317  0.9001800000000001  0.15752  1.0000
  O   O19       1.0  0.32665  0.15824  0.15089  1.0000
  C   C49       1.0  0.36733000000000005  0.09577  0.15891  1.0000
  O   O20       1.0  0.45499  0.05835  0.15552  1.0000
  O   O21       1.0  0.53232  0.42795  0.16049  1.0000
  H   H27       1.0  0.12858000000000003  0.33888  0.17051  1.0000
  C   C50       1.0  0.6595800000000002  0.51353  0.16284  1.0000
  H   H28       1.0  0.56655  0.68243  0.16613  1.0000
  N   N2        1.0  0.5783200000000001  0.69159  0.17592  1.0000
  C   C51       1.0  0.76688  0.21617  0.15778  1.0000
  O   O22       1.0  0.7462100000000002  0.56547  0.15354000000000004  1.0000
  H   H29       1.0  0.5370400000000002  0.74427  0.1808  1.0000
  O   O23       1.0  0.81216  0.35263  0.15653000000000006  1.0000
  C   C52       1.0  0.19013000000000008  0.9853500000000001  0.17567  1.0000
  C   C53       1.0  0.32414  0.07887  0.17216  1.0000
  C   C54       1.0  0.70219  0.56606  0.1758  1.0000
  C   C55       1.0  0.6513300000000001  0.64381  0.18217  1.0000
  C   C56       1.0  0.7928  0.16404  0.16967  1.0000
  H   H30       1.0  0.048999999999999926  0.9105499999999999  0.19105000000000003  1.0000
  C   C57       1.0  0.15263999999999991  0.9777999999999999  0.18838  1.0000
  C   C58       1.0  0.68437  0.07827  0.17744  1.0000
  C   C59       1.0  0.6811300000000001  0.67675  0.19502  1.0000
  C   C60       1.0  0.41898  0.1575  0.18146  1.0000
  H   H31       1.0  0.52208  0.22696  0.17877  1.0000
  H   H32       1.0  0.8192500000000001  0.46247  0.17759000000000005  1.0000
  C   C61       1.0  0.78367  0.5255  0.18232  1.0000
  H   H33       1.0  0.58435  0.02664  0.17357  1.0000
  C   C62       1.0  0.24665  0.06049  0.19761  1.0000
  C   C63       1.0  0.3818000000000001  0.14865  0.19417  1.0000
  C   C64       1.0  0.81266  0.55789  0.19517  1.0000
  C   C65       1.0  0.70244  0.07083  0.19044000000000003  1.0000
  C   C66       1.0  0.7680300000000001  0.64209  0.20135  1.0000
  O   O24       1.0  0.15474000000000002  0.16372  0.21144  1.0000
  C   C67       1.0  0.19807  0.07362000000000002  0.21005  1.0000
  H   H34       1.0  0.49795  0.9515  0.19432  1.0000
  N   N3        1.0  0.5939300000000001  0.00914  0.19814000000000004  1.0000
  N   N4        1.0  0.47615000000000013  0.22507  0.20302  1.0000
  H   H35       1.0  0.5758  0.28922  0.20039  1.0000
  H   H36       1.0  0.9176400000000001  0.4477300000000001  0.19692  1.0000
  N   N5        1.0  0.8765200000000001  0.50123  0.20168000000000003  1.0000
  O   O25       1.0  0.21469000000000002  0.010480000000000001  0.21986000000000006  1.0000
  H   H37       1.0  0.60302  0.026659999999999996  0.20788  1.0000
  O   O26       1.0  0.7524100000000001  0.71767  0.22246  1.0000
  H   H38       1.0  0.45263  0.21842000000000003  0.2126  1.0000
  H   H39       1.0  0.8780800000000002  0.50159  0.21154  1.0000
  O   O27       1.0  0.9719899999999999  0.9902599999999999  0.23183  1.0000
  Ni  Ni7       1.0  0.05550999999999998  0.87855  0.23135000000000003  1.0000
  Ni  Ni8       1.0  0.07018000000000003  0.18572  0.22740000000000002  1.0000
  O   O28       1.0  0.22929000000000005  0.21294999999999997  0.23829000000000006  1.0000
  O   O29       1.0  0.9938000000000002  0.24009  0.24189000000000005  1.0000
  O   O30       1.0  0.1764800000000001  0.99363  0.24633000000000002  1.0000
  C   C68       1.0  0.21900000000000006  0.13018  0.24802  1.0000
  H   H40       1.0  0.9750100000000002  0.00527  0.241  1.0000
  H   H41       1.0  0.26538  0.38459  0.25753  1.0000
  H   H42       1.0  0.6509300000000002  0.19713  0.2505  1.0000
  C   C69       1.0  0.71907  0.22336  0.25839  1.0000
  H   H43       1.0  0.9991800000000001  0.21549000000000001  0.26719  1.0000
  C   C70       1.0  0.27484000000000003  0.19343  0.26055  1.0000
  C   C71       1.0  0.28267  0.32095  0.26432  1.0000
  H   H44       1.0  0.30682000000000004  0.02221  0.26633  1.0000
  C   C72       1.0  0.30498  0.11655  0.26933  1.0000
  H   H45       1.0  0.6080000000000001  0.28848  0.27015  1.0000
  C   C73       1.0  0.6975100000000002  0.28053  0.26943  1.0000
  H   H46       1.0  0.07962  0.64154  0.28486  1.0000
  C   C74       1.0  0.3095  0.3653  0.27695  1.0000
  H   H47       1.0  0.65416  0.46684  0.28278  1.0000
  C   C75       1.0  0.05882000000000001  0.71658  0.28964  1.0000
  H   H48       1.0  0.05857  0.29163  0.28872  1.0000
  C   C76       1.0  0.32824  0.15791  0.28207  1.0000
  H   H49       1.0  0.32525  0.46889  0.27934  1.0000
  H   H50       1.0  0.36746  0.9906899999999998  0.28751  1.0000
  C   C77       1.0  0.35789000000000004  0.07988  0.2907  1.0000
  C   C78       1.0  0.32084  0.27767  0.28618  1.0000
  C   C79       1.0  0.6948300000000002  0.44855  0.29132  1.0000
  C   C80       1.0  0.07470000000000002  0.73246  0.30278  1.0000
  H   H51       1.0  0.10587999999999999  0.66844  0.3080300000000001  1.0000
  H   H52       1.0  0.61381  0.54909  0.30296  1.0000
  C   C81       1.0  0.67593  0.50034  0.3027700000000001  1.0000
  H   H53       1.0  0.26533999999999996  0.46638  0.29838  1.0000
  C   C82       1.0  0.32708  0.30701  0.29944  1.0000
  H   H54       1.0  0.0058300000000000365  0.35774  0.30921  1.0000
  C   C83       1.0  0.37382  0.11471999999999999  0.30348  1.0000
  C   C84       1.0  0.35524  0.22479000000000002  0.308  1.0000
  C   C85       1.0  0.2977099999999999  0.40930999999999995  0.3044  1.0000
  C   C86       1.0  0.73282  0.48449  0.31398  1.0000
  H   H55       1.0  0.39649  0.05263  0.30998  1.0000
  C   C87       1.0  0.30507000000000006  0.4350399999999999  0.31740000000000007  1.0000
  C   C88       1.0  0.68774  0.50685  0.3263700000000001  1.0000
  C   C89       1.0  0.36245  0.25196  0.32105  1.0000
  H   H56       1.0  0.28387000000000007  0.51517  0.32097  1.0000
  O   O31       1.0  0.6269800000000001  0.5834  0.32655  1.0000
  H   H57       1.0  0.38748  0.19113  0.32748  1.0000
  C   C90       1.0  0.3426  0.36076  0.32575000000000004  1.0000
  O   O32       1.0  0.6697900000000001  0.41385  0.33542000000000005  1.0000
  C   C91       1.0  0.38011000000000006  0.41079999999999994  0.33899  1.0000
  Ni  Ni9       1.0  0.6067200000000001  0.69145  0.34129  1.0000
  O   O33       1.0  0.41368  0.54109  0.3418700000000001  1.0000
  O   O34       1.0  0.4070100000000001  0.33644  0.34701000000000004  1.0000
  O   O35       1.0  0.5645600000000001  0.80241  0.35402  1.0000
  Ni  Ni10      1.0  0.59983  0.40244  0.3538  1.0000
  O   O36       1.0  0.6575300000000001  0.6006499999999999  0.35397  1.0000
  O   O37       1.0  0.17544999999999997  0.44031999999999993  0.005350000000000001  1.0000
  O   O38       1.0  0.7836600000000002  0.86181  0.33768  1.0000
  C   C92       1.0  0.7724  0.38124  0.29093  1.0000
  C   C93       1.0  0.7887  0.32041  0.27963  1.0000
  O   O39       1.0  0.75522  0.80456  0.24676  1.0000
  C   C94       1.0  0.8209000000000001  0.43121999999999994  0.3134  1.0000
  C   C95       1.0  0.8959800000000001  0.8599599999999998  0.33868  1.0000
  O   O40       1.0  0.9374100000000001  0.84449  0.34976  1.0000
  Ni  Ni11      1.0  0.78266  0.90317  0.22993000000000002  1.0000
  O   O41       1.0  0.7735400000000001  0.06964  0.23785  1.0000
  C   C96       1.0  0.84512  0.38486  0.30187  1.0000
  H   H58       1.0  0.64144  0.73525  0.19992  1.0000
  H   H59       1.0  0.7905900000000001  0.92957  0.26704  1.0000
  C   C97       1.0  0.8283400000000001  0.71307  0.21344  1.0000
  O   O42       1.0  0.78484  0.9663099999999999  0.21216000000000002  1.0000
  C   C98       1.0  0.8412500000000003  0.76781  0.25122  1.0000
  C   C99       1.0  0.82965  0.20281  0.2575  1.0000
  H   H60       1.0  0.87157  0.42719  0.3219  1.0000
  H   H61       1.0  0.0264  0.12250999999999998  0.30316  1.0000
  C   C100      1.0  0.83351  0.13301  0.19544  1.0000
  C   C101      1.0  0.8544500000000003  0.89385  0.2712  1.0000
  C   C102      1.0  0.8849300000000002  0.80225  0.2645  1.0000
  C   C103      1.0  0.9241200000000002  0.22404999999999997  0.17455000000000004  1.0000
  C   C104      1.0  0.86719  0.16547  0.24544  1.0000
  C   C105      1.0  0.89441  0.29003  0.27891  1.0000
  H   H62       1.0  0.8725200000000002  0.0034399999999999995  0.28836  1.0000
  C   C106      1.0  0.8565700000000002  0.09751  0.20828  1.0000
  C   C107      1.0  0.9895700000000002  0.91178  0.32808  1.0000
  O   O43       1.0  0.9083000000000002  0.73075  0.24336  1.0000
  C   C108      1.0  0.90405  0.93883  0.28329  1.0000
  H   H63       1.0  0.007929999999999982  0.46284999999999993  0.11169  1.0000
  H   H64       1.0  0.8664800000000003  0.86133  0.12435  1.0000
  C   C109      1.0  0.94323  0.20877  0.18744  1.0000
  H   H65       1.0  0.9913700000000001  0.11016  0.32612000000000013  1.0000
  C   C110      1.0  0.9603  0.74899  0.27037  1.0000
  H   H66       1.0  0.020450000000000003  0.29383  0.15705  1.0000
  H   H67       1.0  0.9796300000000002  0.67364  0.26543  1.0000
  C   C111      1.0  0.91576  0.23496  0.2678  1.0000
  C   C112      1.0  0.004910000000000002  0.02981  0.32139000000000006  1.0000
  C   C113      1.0  0.9463900000000001  0.34994  0.30099  1.0000
  N   N6        1.0  0.03178999999999999  0.29204  0.16682  1.0000
  H   H68       1.0  0.026870000000000005  0.73562  0.32765  1.0000
  C   C114      1.0  0.9823500000000002  0.88939  0.2892  1.0000
  C   C115      1.0  0.027309999999999963  0.8205899999999999  0.32227  1.0000
  C   C116      1.0  0.004430000000000009  0.78765  0.28292  1.0000
  C   C117      1.0  0.91265  0.06312  0.08289  1.0000
  C   C118      1.0  0.01834  0.03351  0.30832  1.0000
  C   C119      1.0  0.04515000000000009  0.8269  0.30909  1.0000
  C   C120      1.0  0.10495  0.55571  0.0887  1.0000
  O   O44       1.0  0.93559  0.1992  0.21611000000000002  1.0000
  C   C121      1.0  0.9755700000000003  0.311  0.28943  1.0000
  O   O45       1.0  0.9566600000000001  0.76403  0.21534  1.0000
  H   H69       1.0  0.04371  0.25229  0.19115000000000004  1.0000
  C   C122      1.0  0.01934999999999999  0.92022  0.30203  1.0000
  O   O46       1.0  0.94719  0.96571  0.00106  1.0000
  H   H70       1.0  0.58858  0.59329  0.35986  1.0000
  C   C123      1.0  0.62766  0.84147  0.36498  1.0000
  H   H71       1.0  0.11585  0.68665  0.37458  1.0000
  H   H72       1.0  0.38881  0.60833  0.37042  1.0000
  C   C124      1.0  0.55045  0.80985  0.3767  1.0000
  O   O47       1.0  0.7540300000000002  0.87538  0.36577  1.0000
  C   C125      1.0  0.06261999999999995  0.5976599999999999  0.38091  1.0000
  C   C126      1.0  0.44143  0.67335  0.37852  1.0000
  O   O48       1.0  0.54722  0.4057  0.3725800000000001  1.0000
  H   H73       1.0  0.68626  0.0067599999999999995  0.38592  1.0000
  C   C127      1.0  0.60903  0.89776  0.38722  1.0000
  C   C128      1.0  0.63352  0.48484  0.38153000000000004  1.0000
  C   C129      1.0  0.10416000000000004  0.60921  0.3935  1.0000
  C   C130      1.0  0.20462  0.73965  0.39810000000000006  1.0000
  H   H74       1.0  0.26065999999999995  0.8269899999999999  0.39168  1.0000
  H   H75       1.0  0.24249000000000007  0.41626  0.38488  1.0000
  C   C131      1.0  0.30567000000000005  0.47750000000000004  0.3926900000000001  1.0000
  C   C132      1.0  0.41149  0.61526  0.39070000000000005  1.0000
  C   C133      1.0  0.57937  0.84104  0.39937000000000006  1.0000
  C   C134      1.0  0.49094  0.69534  0.40101  1.0000
  H   H76       1.0  0.40224  0.27934  0.39202000000000004  1.0000
  H   H77       1.0  0.62507  0.9101099999999999  0.40741  1.0000
  C   C135      1.0  0.61382  0.42563999999999996  0.39439  1.0000
  C   C136      1.0  0.038179999999999985  0.49205  0.40177  1.0000
  C   C137      1.0  0.4887100000000001  0.31308  0.39807  1.0000
  C   C138      1.0  0.07151000000000005  0.5118  0.4149200000000001  1.0000
  C   C139      1.0  0.2297300000000001  0.76022  0.41099  1.0000
  H   H78       1.0  0.19275  0.31592  0.40635000000000004  1.0000
  H   H79       1.0  0.3083099999999999  0.8611699999999999  0.41436  1.0000
  C   C140      1.0  0.27835000000000004  0.41987  0.40485  1.0000
  H   H80       1.0  0.26024  0.13661999999999996  0.41017  1.0000
  C   C141      1.0  0.4770600000000001  0.62816  0.41276  1.0000
  C   C142      1.0  0.47635  0.24466  0.4096  1.0000
  C   C143      1.0  0.15698000000000004  0.64994  0.41949  1.0000
  C   C144      1.0  0.36339  0.49457  0.41494  1.0000
  C   C145      1.0  0.35064  0.1558  0.41498  1.0000
  H   H81       1.0  0.6768200000000002  0.77324  0.41964  1.0000
  C   C146      1.0  0.71314  0.39398  0.4134500000000001  1.0000
  C   C147      1.0  0.58005  0.68358  0.42181  1.0000
  C   C148      1.0  0.5922699999999999  0.27116999999999997  0.41622000000000003  1.0000
  C   C149      1.0  0.17248000000000002  0.67562  0.43252000000000007  1.0000
  H   H82       1.0  0.24552000000000004  0.03335  0.43129  1.0000
  C   C150      1.0  0.33969000000000005  0.43550999999999995  0.42711000000000005  1.0000
  C   C151      1.0  0.34228000000000003  0.09572  0.42688  1.0000
  C   C152      1.0  0.58117  0.18115  0.42624000000000006  1.0000
  H   H83       1.0  0.22752  0.78286  0.4359  1.0000
  H   H84       1.0  0.24827000000000002  0.33789  0.42912  1.0000
  C   C153      1.0  0.45685  0.10279  0.4323  1.0000
  C   C154      1.0  0.56056  0.61806  0.43352  1.0000
  C   C155      1.0  0.6827700000000002  0.14866  0.42875000000000013  1.0000
  H   H85       1.0  0.76907  0.18921  0.42275000000000007  1.0000
  C   C156      1.0  0.43552  0.50261  0.43665  1.0000
  C   C157      1.0  0.11683  0.56326  0.44116  1.0000
  C   C158      1.0  0.44628000000000007  0.01933  0.44274  1.0000
  H   H86       1.0  0.64114  0.66072  0.44035  1.0000
  C   C159      1.0  0.6652600000000001  0.0504  0.43813  1.0000
  H   H87       1.0  0.35802  0.97636  0.4486400000000001  1.0000
  C   C160      1.0  0.54785  0.9871599999999999  0.44531  1.0000
  H   H88       1.0  0.74353  0.025  0.43991  1.0000
  C   C161      1.0  0.4013400000000001  0.46366  0.45004000000000005  1.0000
  C   C162      1.0  0.14704999999999996  0.59226  0.4549000000000001  1.0000
  O   O49       1.0  0.22339  0.72338  0.45882  1.0000
  O   O50       1.0  0.27648  0.40612  0.4538000000000001  1.0000
  C   C163      1.0  0.53596  0.9001299999999999  0.45633  1.0000
  O   O51       1.0  0.5522300000000001  0.78871  0.45518  1.0000
  O   O52       1.0  0.49724000000000007  0.50322  0.45835  1.0000
  O   O53       1.0  0.10120999999999995  0.48763999999999996  0.46310000000000007  1.0000
  O   O54       1.0  0.4952500000000002  0.9260300000000001  0.46697  1.0000
  Ni  Ni12      1.0  0.22619000000000006  0.43167000000000005  0.4715200000000001  1.0000
  Ni  Ni13      1.0  0.54125  0.66421  0.47016  1.0000
  Ni  Ni14      1.0  0.3269699999999999  0.7716599999999999  0.47589  1.0000
  O   O55       1.0  0.36483  0.62173  0.47465  1.0000
  O   O56       1.0  0.3326  0.3481  0.47950000000000004  1.0000
  H   H89       1.0  0.7695800000000002  0.09425  0.48679  1.0000
  H   H90       1.0  0.5532400000000001  0.27464  0.48245  1.0000
  O   O57       1.0  0.14931  0.64533  0.4854500000000001  1.0000
  H   H91       1.0  0.37107  0.60944  0.48377  1.0000
  O   O58       1.0  0.62418  0.83778  0.48146  1.0000
  H   H92       1.0  0.64867  0.23409999999999997  0.49331  1.0000
  O   O59       1.0  0.14158  0.43139  0.48853  1.0000
  C   C164      1.0  0.43349  0.41815  0.48753  1.0000
  O   O60       1.0  0.5411700000000002  0.53956  0.48432  1.0000
  N   N7        1.0  0.5806199999999999  0.26930999999999994  0.49175  1.0000
  N   N8        1.0  0.80618  0.12079  0.49598  1.0000
  H   H93       1.0  0.8845900000000001  0.22323  0.49765  1.0000
  C   C165      1.0  0.13253  0.54098  0.49294  1.0000
  O   O61       1.0  0.44819  0.83779  0.49196000000000006  1.0000
  C   C166      1.0  0.5682000000000001  0.8480899999999999  0.49201000000000006  1.0000
  C   C167      1.0  0.43457000000000007  0.35095  0.4996  1.0000
  C   C168      1.0  0.52506  0.30104  0.50165  1.0000
  C   C169      1.0  0.75443  0.026219999999999997  0.50562  1.0000
  C   C170      1.0  0.6465400000000002  0.88738  0.50365  1.0000
  C   C171      1.0  0.18224000000000007  0.57183  0.51586  1.0000
  H   H94       1.0  0.28384000000000004  0.59858  0.51363  1.0000
  H   H95       1.0  0.28202  0.38347  0.50799  1.0000
  C   C172      1.0  0.35905  0.35628  0.50972  1.0000
  C   C173      1.0  0.61132  0.78625  0.51321  1.0000
  C   C174      1.0  0.55536  0.28095  0.51409  1.0000
  H   H96       1.0  0.6297  0.24931999999999999  0.51575  1.0000
  C   C175      1.0  0.8064400000000003  0.06695  0.51784  1.0000
  H   H97       1.0  0.87965  0.17658  0.51975  1.0000
  H   H98       1.0  0.5381100000000001  0.67659  0.51136  1.0000
  C   C176      1.0  0.3867200000000001  0.33336  0.52216  1.0000
  C   C177      1.0  0.49124  0.30313  0.52439  1.0000
  C   C178      1.0  0.7468100000000002  0.97348  0.52793  1.0000
  C   C179      1.0  0.6655400000000001  0.82825  0.52532  1.0000
  C   C180      1.0  0.5364000000000001  0.29784  0.53732  1.0000
  N   N9        1.0  0.23961000000000005  0.6157  0.53775  1.0000
  H   H99       1.0  0.33724  0.64008  0.53563  1.0000
  H   H100      1.0  0.23185  0.35577  0.53005  1.0000
  N   N10       1.0  0.31288  0.34051  0.53186  1.0000
  N   N11       1.0  0.63113  0.73083  0.53465  1.0000
  O   O62       1.0  0.60473  0.03171  0.5396  1.0000
  C   C181      1.0  0.7187800000000001  0.029830000000000002  0.53924  1.0000
  H   H101      1.0  0.56531  0.62385  0.53285  1.0000
  O   O63       1.0  0.46264000000000005  0.18421  0.54426  1.0000
  H   H102      1.0  0.21742000000000003  0.62892  0.54705  1.0000
  H   H103      1.0  0.33385999999999993  0.32949  0.54125  1.0000
  H   H104      1.0  0.67263  0.76055  0.54367  1.0000
  Ni  Ni15      1.0  0.5383900000000001  0.08672  0.55496  1.0000
  O   O64       1.0  0.57414  0.94683  0.56456  1.0000
  O   O65       1.0  0.4522800000000001  0.11137  0.57028  1.0000
  C   C182      1.0  0.5007200000000002  0.23447  0.57592  1.0000
  C   C183      1.0  0.6410900000000002  0.9771400000000001  0.57523  1.0000
  H   H105      1.0  0.39227  0.75403  0.57921  1.0000
  C   C184      1.0  0.5984699999999998  0.8698599999999999  0.58525  1.0000
  C   C185      1.0  0.46348000000000006  0.76621  0.58649  1.0000
  H   H106      1.0  0.21652000000000002  0.55294  0.59101  1.0000
  C   C186      1.0  0.4195500000000001  0.68425  0.59751  1.0000
  C   C187      1.0  0.28559  0.57896  0.59883  1.0000
  C   C188      1.0  0.51043  0.71142  0.60752  1.0000
  H   H107      1.0  0.137  0.42375  0.61106  1.0000
  C   C189      1.0  0.24004000000000006  0.50706  0.61026  1.0000
  C   C190      1.0  0.4607200000000001  0.65347  0.6196000000000002  1.0000
  C   C191      1.0  0.3248000000000001  0.5479  0.62083  1.0000
  C   C192      1.0  0.53948  0.70835  0.6305900000000001  1.0000
  C   C193      1.0  0.27296  0.49215  0.63277  1.0000
  H   H108      1.0  0.16886  0.41146  0.6337000000000002  1.0000
  C   C194      1.0  0.4860700000000001  0.6541  0.64241  1.0000
  C   C195      1.0  0.35247000000000006  0.54802  0.6436  1.0000
  C   C196      1.0  0.29288  0.50745  0.65623  1.0000
  O   O66       1.0  0.18472000000000002  0.37995  0.65762  1.0000
  C   C197      1.0  0.9702500000000002  0.46021000000000006  0.66183  1.0000
  H   H109      1.0  0.12118999999999999  0.67948  0.6594500000000001  1.0000
  O   O67       1.0  0.22759000000000001  0.15292  0.6679000000000002  1.0000
  O   O68       1.0  0.32650000000000007  0.61106  0.66469  1.0000
  C   C198      1.0  0.020370000000000006  0.4428500000000001  0.67426  1.0000
  Ni  Ni16      1.0  0.13037  0.25542  0.67342  1.0000
  C   C199      1.0  0.3592600000000001  0.21387000000000003  0.66778  1.0000
  O   O69       1.0  0.9981100000000002  0.31841  0.6776  1.0000
  O   O70       1.0  0.10853000000000003  0.55288  0.68058  1.0000
  H   H110      1.0  0.34854999999999997  0.42985999999999996  0.676  1.0000
  O   O71       1.0  0.03554  0.11682999999999999  0.68747  1.0000
  Ni  Ni17      1.0  0.30023000000000005  0.58631  0.68424  1.0000
  O   O72       1.0  0.2799400000000001  0.40164  0.6825700000000002  1.0000
  O   O73       1.0  0.42931000000000014  0.25793  0.67836  1.0000
  H   H111      1.0  0.11470000000000002  0.91428  0.71242  1.0000
  C   C200      1.0  0.09836  0.10889  0.69747  1.0000
  O   O74       1.0  0.26453  0.56445  0.70358  1.0000
  Ni  Ni18      1.0  0.37144  0.33286  0.6931  1.0000
  C   C201      1.0  0.024269999999999996  0.04400999999999999  0.70913  1.0000
  O   O75       1.0  0.2224  0.13748  0.69657  1.0000
  H   H112      1.0  0.9011  0.14292  0.7087900000000003  1.0000
  O   O76       1.0  0.33714  0.40867  0.70946  1.0000
  C   C202      1.0  0.25672  0.46238  0.7110300000000003  1.0000
  O   O77       1.0  0.50522  0.68973  0.688  1.0000
  H   H113      1.0  0.5009800000000001  0.79819  0.7100300000000003  1.0000
  H   H114      1.0  0.32462  0.99271  0.6534700000000001  1.0000
  H   H115      1.0  0.5477  0.6981  0.65075  1.0000
  C   C203      1.0  0.4268000000000001  0.21891  0.6559100000000001  1.0000
  O   O78       1.0  0.54866  0.51188  0.69183  1.0000
  C   C204      1.0  0.6481000000000002  0.79679  0.6052000000000001  1.0000
  C   C205      1.0  0.56002  0.63322  0.6950900000000001  1.0000
  C   C206      1.0  0.49714000000000014  0.23831  0.5899  1.0000
  H   H116      1.0  0.5682599999999999  0.46273999999999993  0.59139  1.0000
  C   C207      1.0  0.3863400000000001  0.09459  0.64901  1.0000
  C   C208      1.0  0.5374700000000002  0.36514  0.59649  1.0000
  H   H117      1.0  0.42581000000000013  0.01441  0.59165  1.0000
  O   O79       1.0  0.5454  0.35119  0.56913  1.0000
  C   C209      1.0  0.69143  0.8778  0.59425  1.0000
  C   C210      1.0  0.45678  0.1127  0.59667  1.0000
  H   H118      1.0  0.63895  0.79885  0.63014  1.0000
  H   H119      1.0  0.55354  0.44599  0.656  1.0000
  C   C211      1.0  0.5364999999999999  0.36628  0.60973  1.0000
  H   H120      1.0  0.56197  0.46415  0.61448  1.0000
  C   C212      1.0  0.41852  0.10168  0.63616  1.0000
  H   H121      1.0  0.33464  0.87589  0.63408  1.0000
  C   C213      1.0  0.5144600000000001  0.34997  0.65044  1.0000
  C   C214      1.0  0.45242  0.11172  0.60986  1.0000
  C   C215      1.0  0.3803500000000001  0.97733  0.62933  1.0000
  H   H122      1.0  0.7215100000000001  0.79776  0.6116200000000002  1.0000
  C   C216      1.0  0.49593999999999994  0.23973  0.61661  1.0000
  H   H123      1.0  0.3671800000000001  0.88492  0.6111800000000001  1.0000
  C   C217      1.0  0.39943  0.98259  0.6163300000000002  1.0000
  C   C218      1.0  0.48718  0.23493999999999998  0.63006  1.0000
  C   C219      1.0  0.61873  0.69591  0.70753  1.0000
  O   O80       1.0  0.7930700000000003  0.05195  0.54949  1.0000
  C   C220      1.0  0.5460300000000001  0.3584  0.63759  1.0000
  O   O81       1.0  0.6283300000000002  0.41765  0.5426  1.0000
  O   O82       1.0  0.75474  0.09535  0.57651  1.0000
  O   O83       1.0  0.71154  0.25143  0.55677  1.0000
  H   H124      1.0  0.7305500000000001  0.26447  0.54768  1.0000
  H   H125      1.0  0.7973  0.9485100000000001  0.59284  1.0000
  H   H126      1.0  0.61934  0.45927999999999997  0.63374  1.0000
  Ni  Ni19      1.0  0.71802  0.42886  0.55935  1.0000
  Ni  Ni20      1.0  0.8557600000000001  0.22668  0.56155  1.0000
  C   C221      1.0  0.7227400000000002  0.47318999999999994  0.40271000000000007  1.0000
  H   H127      1.0  0.75977  0.61968  0.7076500000000001  1.0000
  H   H128      1.0  0.7977800000000003  0.43004999999999993  0.41975  1.0000
  O   O84       1.0  0.8060000000000002  0.48129  0.5766500000000001  1.0000
  O   O85       1.0  0.7186100000000001  0.62381  0.37999  1.0000
  H   H129      1.0  0.8264800000000002  0.50478  0.52374  1.0000
  H   H130      1.0  0.7949  0.52546  0.50149  1.0000
  Ni  Ni21      1.0  0.81153  0.72923  0.3636300000000001  1.0000
  H   H131      1.0  0.81677  0.56667  0.4004900000000001  1.0000
  C   C222      1.0  0.8738500000000001  0.42629999999999996  0.58167  1.0000
  O   O86       1.0  0.76185  0.39001  0.36152  1.0000
  O   O87       1.0  0.9753  0.37166999999999994  0.54798  1.0000
  O   O88       1.0  0.9037900000000001  0.53473  0.55111  1.0000
  O   O89       1.0  0.9451800000000001  0.39106  0.57448  1.0000
  H   H132      1.0  0.7762600000000001  0.21208  0.5983300000000001  1.0000
  C   C223      1.0  0.9555200000000003  0.47447  0.54373  1.0000
  C   C224      1.0  0.8952000000000002  0.43684000000000006  0.59544  1.0000
  H   H133      1.0  0.003110000000000016  0.66516  0.59566  1.0000
  C   C225      1.0  0.92616  0.5249  0.52154  1.0000
  C   C226      1.0  0.8336800000000001  0.31433  0.6028400000000002  1.0000
  N   N12       1.0  0.8780900000000003  0.51472  0.49947  1.0000
  C   C227      1.0  0.9608000000000002  0.5698  0.60131  1.0000
  H   H134      1.0  0.7095800000000001  0.09937  0.61884  1.0000
  C   C228      1.0  0.8398000000000002  0.32374  0.61608  1.0000
  H   H135      1.0  0.00920000000000001  0.68443  0.61871  1.0000
  C   C229      1.0  0.9683400000000002  0.58072  0.61451  1.0000
  C   C230      1.0  0.7687700000000001  0.20134  0.6233800000000003  1.0000
  H   H136      1.0  0.79277  0.26619  0.3816000000000001  1.0000
  H   H137      1.0  0.8927300000000001  0.49428  0.49015  1.0000
  C   C231      1.0  0.91404  0.45743  0.62206  1.0000
  C   C232      1.0  0.8670700000000002  0.49821999999999994  0.36643  1.0000
  O   O90       1.0  0.9103600000000001  0.62243  0.3616  1.0000
  C   C233      1.0  0.9632100000000002  0.52572  0.50886  1.0000
  C   C234      1.0  0.012929999999999987  0.53767  0.53137  1.0000
  C   C235      1.0  0.7701600000000001  0.20968  0.6365000000000001  1.0000
  H   H138      1.0  0.7113400000000001  0.11413  0.64194  1.0000
  C   C236      1.0  0.92805  0.46356  0.63551  1.0000
  C   C237      1.0  0.85185  0.33859  0.64266  1.0000
  C   C238      1.0  0.8829300000000001  0.35967  0.38467  1.0000
  H   H139      1.0  0.99106  0.29147  0.4201  1.0000
  H   H140      1.0  0.8815400000000001  0.27096  0.40274000000000004  1.0000
  H   H141      1.0  0.008589999999999997  0.33507  0.44299  1.0000
  C   C239      1.0  0.9425500000000001  0.4804  0.37697  1.0000
  C   C240      1.0  0.024180000000000017  0.58721  0.6418500000000001  1.0000
  H   H142      1.0  0.09200999999999998  0.68095  0.6366700000000002  1.0000
  C   C241      1.0  0.8670700000000003  0.34101999999999993  0.65583  1.0000
  C   C242      1.0  0.9327800000000002  0.36368  0.39688000000000007  1.0000
  H   H143      1.0  0.8067400000000001  0.24561000000000002  0.66125  1.0000
  C   C243      1.0  0.027039999999999984  0.39791  0.42348  1.0000
  C   C244      1.0  0.08946000000000005  0.53963  0.50609  1.0000
  C   C245      1.0  0.045040000000000004  0.42373  0.43655  1.0000
  C   C246      1.0  0.04286  0.58569  0.6549100000000002  1.0000
  C   C247      1.0  0.14604  0.5749  0.52848  1.0000
  C   C248      1.0  0.71192  0.66574  0.71319  1.0000
  C   C249      1.0  0.0674299999999999  0.9687799999999999  0.71669  1.0000
  C   C250      1.0  0.9453400000000002  0.09536  0.71465  1.0000
  C   C251      1.0  0.5668500000000001  0.76702  0.71454  1.0000
  H   H144      1.0  0.028499999999999998  0.46187  0.7175400000000002  1.0000
  C   C252      1.0  0.20446999999999999  0.45708999999999994  0.72383  1.0000
  C   C253      1.0  0.09584000000000001  0.47990999999999995  0.72536  1.0000
  C   C254      1.0  0.74224  0.69252  0.7260600000000003  1.0000
  C   C255      1.0  0.5931200000000002  0.79023  0.72755  1.0000
  C   C256      1.0  0.94022  0.10239  0.72791  1.0000
  C   C257      1.0  0.07079999999999996  0.98444  0.72974  1.0000
  H   H145      1.0  0.4756  0.89331  0.72994  1.0000
  H   H146      1.0  0.82141  0.67802  0.7299000000000002  1.0000
  H   H147      1.0  0.79902  0.17877  0.7284600000000001  1.0000
  C   C258      1.0  0.28145  0.4651699999999999  0.73445  1.0000
  H   H148      1.0  0.36002  0.43839  0.73358  1.0000
  C   C259      1.0  0.5375200000000001  0.8575499999999999  0.73455  1.0000
  C   C260      1.0  0.67477  0.74432  0.73361  1.0000
  C   C261      1.0  0.8659800000000001  0.15627  0.73389  1.0000
  H   H149      1.0  0.11698000000000001  0.9384299999999999  0.73546  1.0000
  C   C262      1.0  0.02056  0.06612  0.7352400000000001  1.0000
  C   C263      1.0  0.07927000000000005  0.53534  0.73667  1.0000
  H   H150      1.0  0.9918700000000003  0.54664  0.73786  1.0000
  C   C264      1.0  0.26523  0.52111  0.74585  1.0000
  H   H151      1.0  0.24778000000000006  0.13058  0.74775  1.0000
  H   H152      1.0  0.06966  0.74783  0.74778  1.0000
  C   C265      1.0  0.17394  0.57183  0.74644  1.0000
  C   C266      1.0  0.5616700000000001  0.88002  0.74746  1.0000
  C   C267      1.0  0.6896600000000002  0.75614  0.74704  1.0000
  C   C268      1.0  0.8796300000000002  0.18272  0.7469600000000001  1.0000
  C   C269      1.0  0.05449999999999999  0.11906999999999998  0.7476300000000001  1.0000
  H   H153      1.0  0.77601  0.61889  0.7494000000000001  1.0000
  H   H154      1.0  0.5190200000000003  0.9340000000000003  0.7526500000000003  1.0000
  H   H155      1.0  0.82032  0.22187  0.7515400000000001  1.0000
  C   C270      1.0  0.17565000000000008  0.14546  0.75309  1.0000
  C   C271      1.0  0.97639  0.16779  0.7538400000000001  1.0000
  C   C272      1.0  0.6363  0.82924  0.75379  1.0000
  C   C273      1.0  0.7487  0.68971  0.7539500000000002  1.0000
  C   C274      1.0  0.12194999999999995  0.74518  0.75613  1.0000
  C   C275      1.0  0.18106999999999998  0.65896  0.75673  1.0000
  C   C276      1.0  0.34268  0.53235  0.75647  1.0000
  H   H156      1.0  0.4099500000000001  0.48972  0.7562500000000001  1.0000
  C   C277      1.0  0.20746000000000006  0.19795000000000004  0.7653100000000003  1.0000
  C   C278      1.0  0.12935  0.82847  0.76643  1.0000
  H   H157      1.0  0.0740800000000001  0.8848900000000001  0.7661700000000001  1.0000
  C   C279      1.0  0.65434  0.8471499999999998  0.7669  1.0000
  C   C280      1.0  0.7670800000000002  0.70954  0.76705  1.0000
  C   C281      1.0  0.003150000000000014  0.21016  0.7666000000000001  1.0000
  C   C282      1.0  0.25926  0.6691  0.76743  1.0000
  C   C283      1.0  0.33447  0.59974  0.76742  1.0000
  H   H158      1.0  0.30117  0.21701  0.7693800000000002  1.0000
  H   H159      1.0  0.6159200000000001  0.9061500000000001  0.77196  1.0000
  H   H160      1.0  0.8180900000000002  0.66366  0.7721  1.0000
  C   C284      1.0  0.11657000000000002  0.21915000000000004  0.7725200000000002  1.0000
  H   H161      1.0  0.93698  0.2358  0.7718  1.0000
  C   C285      1.0  0.7233900000000002  0.79151  0.7735200000000001  1.0000
  H   H162      1.0  0.39202  0.60405  0.77567  1.0000
  C   C286      1.0  0.19112000000000012  0.82375  0.77767  1.0000
  C   C287      1.0  0.26232000000000005  0.75005  0.77794  1.0000
  C   C288      1.0  0.13161000000000003  0.22727  0.7864  1.0000
  H   H163      1.0  0.31312999999999996  0.74894  0.78653  1.0000
  C   C289      1.0  0.7717300000000002  0.84317  0.78644  1.0000
  C   C290      1.0  0.14135  0.85006  0.7894800000000001  1.0000
  O   O91       1.0  0.22419  0.20395  0.79141  1.0000
  O   O92       1.0  0.046869999999999995  0.24457999999999996  0.79372  1.0000
  O   O93       1.0  0.015440000000000013  0.76106  0.79241  1.0000
  O   O94       1.0  0.7953100000000002  0.97149  0.7894200000000001  1.0000
  H   H164      1.0  0.009409999999999967  0.98211  0.79515  1.0000
  O   O95       1.0  0.76474  0.75334  0.79539  1.0000
  O   O96       1.0  0.22625000000000006  0.9439099999999999  0.7978000000000001  1.0000
  O   O97       1.0  0.005419999999999994  0.98722  0.8043900000000003  1.0000
  Ni  Ni22      1.0  0.19401000000000002  0.0889  0.8072  1.0000
  Ni  Ni23      1.0  0.9214500000000002  0.78808  0.8070300000000002  1.0000
  Ni  Ni24      1.0  0.9046100000000002  0.08084  0.80507  1.0000
  O   O98       1.0  0.19983000000000006  0.25733  0.8161100000000002  1.0000
  O   O99       1.0  0.748  0.9298299999999999  0.8158700000000001  1.0000
  O   O100      1.0  0.057850000000000075  0.77954  0.8185200000000002  1.0000
  O   O101      1.0  0.9865700000000002  0.19168000000000002  0.8215900000000003  1.0000
  H   H165      1.0  0.20076000000000002  0.67813  0.82344  1.0000
  C   C291      1.0  0.11191000000000001  0.24253999999999998  0.82474  1.0000
  O   O102      1.0  0.19533  0.011390000000000003  0.8242300000000002  1.0000
  C   C292      1.0  0.7691000000000001  0.86215  0.82507  1.0000
  O   O103      1.0  0.81618  0.77694  0.82266  1.0000
  C   C293      1.0  0.13016999999999998  0.8763  0.82709  1.0000
  H   H166      1.0  0.93943  0.32354  0.8359500000000002  1.0000
  N   N13       1.0  0.15666  0.62686  0.83189  1.0000
  H   H167      1.0  0.14274  0.52592  0.83322  1.0000
  H   H168      1.0  0.35161000000000003  0.31405  0.83474  1.0000
  H   H169      1.0  0.51226  0.74343  0.83185  1.0000
  N   N14       1.0  0.94841  0.27799  0.84428  1.0000
  C   C294      1.0  0.13842999999999997  0.69749  0.84158  1.0000
  C   C295      1.0  0.15379000000000007  0.83245  0.83964  1.0000
  C   C296      1.0  0.15562000000000006  0.28742  0.8380200000000001  1.0000
  C   C297      1.0  0.28222  0.3116799999999999  0.84177  1.0000
  C   C298      1.0  0.5795900000000002  0.78592  0.8398600000000002  1.0000
  C   C299      1.0  0.71753  0.86031  0.83783  1.0000
  H   H170      1.0  0.98163  0.98494  0.8379  1.0000
  H   H171      1.0  0.33797  0.60251  0.8462700000000002  1.0000
  H   H172      1.0  0.8728500000000002  0.24816000000000002  0.85101  1.0000
  C   C300      1.0  0.06515000000000001  0.28324  0.8474400000000002  1.0000
  H   H173      1.0  0.20785000000000003  0.03194  0.84846  1.0000
  C   C301      1.0  0.8051000000000003  0.9088500000000002  0.8483500000000003  1.0000
  N   N15       1.0  0.93869  0.9688300000000001  0.84682  1.0000
  C   C302      1.0  0.18344000000000008  0.92376  0.85  1.0000
  C   C303      1.0  0.5282699999999999  0.7544099999999999  0.85219  1.0000
  N   N16       1.0  0.3975700000000001  0.65855  0.85394  1.0000
  C   C304      1.0  0.12324000000000002  0.64512  0.85397  1.0000
  H   H174      1.0  0.10653000000000001  0.53983  0.8554600000000002  1.0000
  H   H175      1.0  0.49344000000000005  0.31734  0.85124  1.0000
  H   H176      1.0  0.0014600000000000008  0.004560000000000001  0.85467  1.0000
  C   C305      1.0  0.31489  0.31791  0.85461  1.0000
  C   C306      1.0  0.09944000000000001  0.29102  0.86024  1.0000
  N   N17       1.0  0.42436000000000007  0.30949  0.85804  1.0000
  C   C307      1.0  0.7531700000000001  0.89123  0.86058  1.0000
  C   C308      1.0  0.16597999999999993  0.87161  0.8623700000000002  1.0000
  C   C309      1.0  0.14720000000000003  0.73465  0.86443  1.0000
  C   C310      1.0  0.22734000000000004  0.32026  0.8638400000000002  1.0000
  H   H177      1.0  0.35573000000000005  0.63343  0.86293  1.0000
  C   C311      1.0  0.6159100000000002  0.81351  0.86262  1.0000
  H   H178      1.0  0.030080000000000006  0.28711  0.8673500000000002  1.0000
  N   N18       1.0  0.15341999999999995  0.9468799999999999  0.8719900000000002  1.0000
  H   H179      1.0  0.18299  0.05353  0.8708  1.0000
  H   H180      1.0  0.43514000000000014  0.28195  0.86723  1.0000
  H   H181      1.0  0.82051  0.93515  0.86857  1.0000
  C   C312      1.0  0.56487  0.79634  0.8756000000000002  1.0000
  C   C313      1.0  0.17522  0.69314  0.8770000000000001  1.0000
  C   C314      1.0  0.2767200000000001  0.3788  0.87658  1.0000
  O   O104      1.0  0.4047400000000001  0.46525  0.87832  1.0000
  O   O105      1.0  0.4876200000000001  0.8486599999999999  0.87859  1.0000
  O   O106      1.0  0.13577  0.5591  0.87926  1.0000
  H   H182      1.0  0.10022999999999994  0.89641  0.8801400000000001  1.0000
  O   O107      1.0  0.61137  0.7472699999999999  0.8844  1.0000
  O   O108      1.0  0.19244  0.3444  0.88606  1.0000
  O   O109      1.0  0.23302000000000003  0.78904  0.88596  1.0000
  Ni  Ni25      1.0  0.48321  0.57239  0.89508  1.0000
  Ni  Ni26      1.0  0.39568  0.81754  0.89553  1.0000
  Ni  Ni27      1.0  0.16672000000000003  0.49023  0.89585  1.0000
  O   O110      1.0  0.3518800000000001  0.62569  0.89753  1.0000
  O   O111      1.0  0.10310000000000001  0.60571  0.90605  1.0000
  O   O112      1.0  0.36824000000000007  0.3875  0.9054900000000001  1.0000
  O   O113      1.0  0.57247  0.88668  0.9050600000000002  1.0000
  H   H183      1.0  0.3539200000000001  0.62766  0.9067900000000001  1.0000
  O   O114      1.0  0.58536  0.68921  0.91086  1.0000
  O   O115      1.0  0.3008000000000001  0.80906  0.91162  1.0000
  O   O116      1.0  0.17678000000000002  0.3886  0.91152  1.0000
  C   C315      1.0  0.17650000000000002  0.70966  0.91419  1.0000
  C   C316      1.0  0.28539000000000003  0.38167  0.9144500000000002  1.0000
  C   C317      1.0  0.59146  0.8106  0.91383  1.0000
  H   H184      1.0  0.10001  0.9070599999999999  0.91557  1.0000
  C   C318      1.0  0.09353000000000002  0.85524  0.9245000000000002  1.0000
  C   C319      1.0  0.10999999999999996  0.7359099999999998  0.92479  1.0000
  C   C320      1.0  0.33166000000000007  0.40794  0.9275700000000001  1.0000
  H   H185      1.0  0.37163  0.23434  0.9286  1.0000
  C   C321      1.0  0.6348900000000001  0.8685900000000001  0.92672  1.0000
  H   H186      1.0  0.55316  0.009020000000000004  0.9258000000000001  1.0000
  H   H187      1.0  0.05075000000000002  0.07439  0.9266000000000001  1.0000
  C   C322      1.0  0.07847999999999997  0.9134699999999999  0.9358  1.0000
  H   H188      1.0  0.31815  0.59754  0.9290100000000002  1.0000
  C   C323      1.0  0.33663999999999994  0.52235  0.93404  1.0000
  C   C324      1.0  0.36772  0.31826999999999994  0.9337500000000001  1.0000
  H   H189      1.0  0.73405  0.74792  0.9305100000000002  1.0000
  C   C325      1.0  0.6987800000000001  0.81529  0.93446  1.0000
  C   C326      1.0  0.59932  0.96453  0.93179  1.0000
  C   C327      1.0  0.058289999999999995  0.03042  0.93554  1.0000
  C   C328      1.0  0.09345000000000002  0.66415  0.9362  1.0000
  H   H190      1.0  0.09702000000000004  0.5666  0.93638  1.0000
  C   C329      1.0  0.61897  0.99921  0.94473  1.0000
  H   H191      1.0  0.5547  0.15446  0.94349  1.0000
  C   C330      1.0  0.08498999999999987  0.8544999999999999  0.9475  1.0000
  C   C331      1.0  0.08071000000000002  0.72253  0.94753  1.0000
  H   H192      1.0  0.34981  0.72966  0.9482500000000001  1.0000
  C   C332      1.0  0.36133  0.53804  0.94702  1.0000
  C   C333      1.0  0.3962  0.33484  0.9467  1.0000
  C   C334      1.0  0.7161900000000003  0.8469600000000002  0.9473500000000002  1.0000
  C   C335      1.0  0.5891800000000001  0.09989  0.94967  1.0000
  H   H193      1.0  0.02621  0.17755  0.9464100000000001  1.0000
  C   C336      1.0  0.04552  0.08979  0.9467800000000002  1.0000
  H   H194      1.0  0.4325400000000001  0.2709  0.95104  1.0000
  H   H195      1.0  0.7718  0.81037  0.9529  1.0000
  C   C337      1.0  0.66812  0.93152  0.9527900000000001  1.0000
  C   C338      1.0  0.38296000000000024  0.43828  0.9536900000000001  1.0000
  C   C339      1.0  0.3606800000000001  0.65011  0.95342  1.0000
  H   H196      1.0  0.06478999999999999  0.66359  0.95619  1.0000
  C   C340      1.0  0.0596  0.03774  0.9584700000000002  1.0000
  C   C341      1.0  0.08869000000000005  0.92583  0.9588700000000001  1.0000
  C   C342      1.0  0.37277  0.66017  0.96647  1.0000
  C   C343      1.0  0.38805000000000006  0.44389  0.96717  1.0000
  C   C344      1.0  0.6698  0.95259  0.9661  1.0000
  C   C345      1.0  0.60623  0.13293  0.96253  1.0000
  H   H197      1.0  0.58619  0.21388  0.9661  1.0000
  H   H198      1.0  0.012060000000000005  0.17388  0.96948  1.0000
  C   C346      1.0  0.12701  0.89314  0.97048  1.0000
  H   H199      1.0  0.17133999999999994  0.82588  0.9708600000000002  1.0000
  H   H200      1.0  0.37949  0.24123  0.9702600000000001  1.0000
  H   H201      1.0  0.68402  0.76779  0.97161  1.0000
  C   C347      1.0  0.04369  0.09526  0.96977  1.0000
  H   H202      1.0  0.36956  0.74657  0.97125  1.0000
  C   C348      1.0  0.6444700000000001  0.05886999999999999  0.97082  1.0000
  C   C349      1.0  0.3839100000000001  0.55721  0.97342  1.0000
  C   C350      1.0  0.38274000000000014  0.33268  0.97456  1.0000
  C   C351      1.0  0.68283  0.8615300000000001  0.97478  1.0000
  C   C352      1.0  0.062370000000000016  0.04603  0.98146  1.0000
  C   C353      1.0  0.11268  0.95214  0.98169  1.0000
  C   C354      1.0  0.6537  0.08689  0.98387  1.0000
  C   C355      1.0  0.3768800000000001  0.55837  0.9866000000000003  1.0000
  C   C356      1.0  0.36547000000000013  0.33129  0.98765  1.0000
  C   C357      1.0  0.6828500000000001  0.88461  0.9877700000000003  1.0000
  H   H203      1.0  0.64247  0.17396999999999999  0.98741  1.0000
  H   H204      1.0  0.13702  0.92164  0.99062  1.0000
  C   C358      1.0  0.6788700000000001  0.003560000000000003  0.9923400000000002  1.0000
  H   H205      1.0  0.6907  0.81235  0.99427  1.0000
  H   H206      1.0  0.37395  0.64527  0.9913400000000002  1.0000
  C   C359      1.0  0.3501  0.43777  0.9934700000000001  1.0000
  H   H207      1.0  0.34990000000000004  0.23970999999999998  0.99303  1.0000
  O   O117      1.0  0.98297  0.17962  0.99299  1.0000
  C   C360      1.0  0.010250000000000002  0.0743  0.9932  1.0000
