data_image0
_chemical_formula_structural       C192O52Zn16OCH3OCH3OCH3OCH3OCH3OCH3OCH3OCH3OCH3OCH3OCH3OCH3OCH3OCH3OCH3OCH3SO3HSO3HSO3HSO3HSO3HSO3HSO3HSO3HSO3HSO3HSO3HSO3HSO3HSO3HSO3HSO3HSO3HSO3HSO3HSO3HSO3HSO3HSO3HSO3HSO3HSO3HSO3HSO3HSO3HSO3HSO3HSO3HSO3HSO3HSO3HSO3HSO3HSO3HSO3HSO3HSO3HSO3HSO3HSO3HSO3HSO3HSO3HSO3HSO3HSO3HSO3HSO3HSO3HSO3HSO3HSO3HSO3HSO3HSO3HSO3HSO3HSO3HSO3HSO3HOCH3OCH3OCH3OCH3OCH3OCH3OCH3OCH3OCH3OCH3OCH3OCH3OCH3OCH3OCH3OCH3
_chemical_formula_sum              "C224 O276 Zn16 H160 S64"
_cell_length_a       28.12476
_cell_length_b       28.11863
_cell_length_c       26.18885
_cell_angle_alpha    90.09629
_cell_angle_beta     89.89833
_cell_angle_gamma    90.0167

_space_group_name_H-M_alt    "P 1"
_space_group_IT_number       1

loop_
  _space_group_symop_operation_xyz
  'x, y, z'

loop_
  _atom_site_type_symbol
  _atom_site_label
  _atom_site_symmetry_multiplicity
  _atom_site_fract_x
  _atom_site_fract_y
  _atom_site_fract_z
  _atom_site_occupancy
  C   C1        1.0  0.80312  0.7004999999999998  0.7473999999999997  1.0000
  C   C2        1.0  0.19872  0.30195  0.25128  1.0000
  C   C3        1.0  0.6984700000000001  0.19839  0.75009  1.0000
  C   C4        1.0  0.30135  0.80151  0.25004999999999994  1.0000
  C   C5        1.0  0.20033  0.30278  0.7516899999999997  1.0000
  C   C6        1.0  0.80204  0.69881  0.24875  1.0000
  C   C7        1.0  0.30218  0.80005  0.75149  1.0000
  C   C8        1.0  0.6976400000000001  0.19822  0.24960999999999997  1.0000
  C   C9        1.0  0.80066  0.3011099999999999  0.24966999999999995  1.0000
  C   C10       1.0  0.19959000000000005  0.69731  0.75164  1.0000
  C   C11       1.0  0.69935  0.80226  0.24837  1.0000
  C   C12       1.0  0.30305  0.20017  0.7524899999999998  1.0000
  C   C13       1.0  0.1984  0.6984899999999998  0.25006  1.0000
  C   C14       1.0  0.80165  0.30158999999999997  0.75006  1.0000
  C   C15       1.0  0.30216  0.19926  0.25162  1.0000
  C   C16       1.0  0.70062  0.80336  0.7464399999999998  1.0000
  C   C17       1.0  0.88084  0.67348  0.77368  1.0000
  C   C18       1.0  0.15448  0.36288  0.20505999999999994  1.0000
  C   C19       1.0  0.67544  0.11541999999999997  0.73809  1.0000
  C   C20       1.0  0.35819  0.85042  0.20328999999999997  1.0000
  C   C21       1.0  0.12164000000000003  0.3284699999999999  0.7757599999999998  1.0000
  C   C22       1.0  0.84519  0.6353899999999999  0.20507  1.0000
  C   C23       1.0  0.32917  0.87752  0.7785299999999998  1.0000
  C   C24       1.0  0.65192  0.13885  0.20426999999999998  1.0000
  C   C25       1.0  0.8771500000000002  0.32923  0.22106999999999993  1.0000
  C   C26       1.0  0.13347  0.65842  0.79327  1.0000
  C   C27       1.0  0.6764  0.8856  0.25758  1.0000
  C   C28       1.0  0.3404500000000001  0.13266  0.79284  1.0000
  C   C29       1.0  0.11684000000000003  0.6741799999999998  0.26787999999999995  1.0000
  C   C30       1.0  0.84596  0.3632299999999999  0.7952499999999999  1.0000
  C   C31       1.0  0.3241  0.11559999999999997  0.25843  1.0000
  C   C32       1.0  0.66263  0.8696199999999998  0.7887  1.0000
  C   C33       1.0  0.38550999999999996  0.17640999999999998  0.24251  1.0000
  C   C34       1.0  0.63217  0.83997  0.7072099999999998  1.0000
  C   C35       1.0  0.17415  0.61691  0.23216999999999993  1.0000
  C   C36       1.0  0.86328  0.34589  0.7048599999999999  1.0000
  C   C37       1.0  0.6157  0.82414  0.24144  1.0000
  C   C38       1.0  0.36875  0.16136999999999999  0.71002  1.0000
  C   C39       1.0  0.82903  0.37738  0.27871999999999997  1.0000
  C   C40       1.0  0.15992  0.6325  0.7085099999999999  1.0000
  C   C41       1.0  0.37872  0.8281699999999997  0.72275  1.0000
  C   C42       1.0  0.63861  0.15237  0.29530999999999996  1.0000
  C   C43       1.0  0.17283  0.38005  0.72451  1.0000
  C   C44       1.0  0.86289  0.65448  0.29496999999999995  1.0000
  C   C45       1.0  0.61548  0.17540999999999995  0.76199  1.0000
  C   C46       1.0  0.35034  0.85832  0.29674999999999996  1.0000
  C   C47       1.0  0.8281300000000001  0.6210599999999998  0.7253199999999999  1.0000
  C   C48       1.0  0.13527  0.3451  0.29491  1.0000
  C   C49       1.0  0.87248  0.6287499999999998  0.7497899999999997  1.0000
  C   C50       1.0  0.12749  0.37184  0.24990999999999994  1.0000
  C   C51       1.0  0.62783  0.12780999999999998  0.7499999999999998  1.0000
  C   C52       1.0  0.37202  0.87206  0.25000999999999995  1.0000
  C   C53       1.0  0.12872  0.37233  0.7499899999999998  1.0000
  C   C54       1.0  0.87187  0.62753  0.25009  1.0000
  C   C55       1.0  0.3721  0.87139  0.7503699999999998  1.0000
  C   C56       1.0  0.62745  0.12765  0.24986  1.0000
  C   C57       1.0  0.87158  0.37172  0.24993999999999997  1.0000
  C   C58       1.0  0.12832000000000002  0.6276  0.7505699999999998  1.0000
  C   C59       1.0  0.62824  0.8723799999999998  0.24993  1.0000
  C   C60       1.0  0.37243000000000004  0.12851  0.7509599999999997  1.0000
  C   C61       1.0  0.12787  0.62791  0.25000999999999995  1.0000
  C   C62       1.0  0.87222  0.37219999999999986  0.75004  1.0000
  C   C63       1.0  0.37235  0.12822  0.25007999999999997  1.0000
  C   C64       1.0  0.62875  0.87257  0.7486399999999998  1.0000
  C   C65       1.0  0.76717  0.73696  0.7465199999999997  1.0000
  C   C66       1.0  0.23549000000000006  0.266  0.2520899999999999  1.0000
  C   C67       1.0  0.73489  0.23479999999999998  0.7500799999999997  1.0000
  C   C68       1.0  0.26502  0.76516  0.25007  1.0000
  C   C69       1.0  0.23674000000000006  0.26678  0.7523299999999998  1.0000
  C   C70       1.0  0.7661000000000002  0.7356  0.24795  1.0000
  C   C71       1.0  0.26613  0.7637  0.7517999999999999  1.0000
  C   C72       1.0  0.73397  0.23454999999999995  0.24957  1.0000
  C   C73       1.0  0.76432  0.26483999999999996  0.24957999999999994  1.0000
  C   C74       1.0  0.23592  0.73341  0.7518199999999998  1.0000
  C   C75       1.0  0.73588  0.76605  0.24786  1.0000
  C   C76       1.0  0.267  0.23654999999999995  0.7525699999999997  1.0000
  C   C77       1.0  0.23472  0.73484  0.25007  1.0000
  C   C78       1.0  0.76524  0.26517  0.7500699999999998  1.0000
  C   C79       1.0  0.26593  0.23577  0.25215999999999994  1.0000
  C   C80       1.0  0.73698  0.7672799999999999  0.74625  1.0000
  C   C81       1.0  0.47851  0.9121999999999998  0.5443799999999999  1.0000
  C   C82       1.0  0.4645700000000001  0.08198  0.4531699999999999  1.0000
  C   C83       1.0  0.91367  0.52621  0.54658  1.0000
  C   C84       1.0  0.08709  0.5187799999999999  0.45413  1.0000
  C   C85       1.0  0.51606  0.08914  0.54401  1.0000
  C   C86       1.0  0.53021  0.9157899999999998  0.4532299999999999  1.0000
  C   C87       1.0  0.0843  0.4676599999999999  0.54538  1.0000
  C   C88       1.0  0.91268  0.4764999999999999  0.45398999999999995  1.0000
  C   C89       1.0  0.97614  0.41271  0.04610999999999999  1.0000
  C   C90       1.0  0.96768  0.5843199999999997  0.9545099999999997  1.0000
  C   C91       1.0  0.41594  0.03060999999999999  0.04689  1.0000
  C   C92       1.0  0.58893  0.01672  0.95593  1.0000
  C   C93       1.0  0.018740000000000007  0.5870999999999997  0.04579  1.0000
  C   C94       1.0  0.025780000000000004  0.41353  0.9534799999999998  1.0000
  C   C95       1.0  0.58216  0.9650299999999998  0.04669  1.0000
  C   C96       1.0  0.41206  0.97899  0.9557  1.0000
  C   C97       1.0  0.49112  0.86953  0.51965  1.0000
  C   C98       1.0  0.47219  0.12696  0.47499999999999987  1.0000
  C   C99       1.0  0.87017  0.5145  0.52373  1.0000
  C   C100      1.0  0.12948  0.50115  0.4747699999999999  1.0000
  C   C101      1.0  0.50004  0.13088  0.5198199999999998  1.0000
  C   C102      1.0  0.51837  0.87151  0.4742699999999999  1.0000
  C   C103      1.0  0.12815  0.47441999999999995  0.52038  1.0000
  C   C104      1.0  0.86969  0.48986  0.4769899999999999  1.0000
  C   C105      1.0  0.98931  0.36967  0.023089999999999992  1.0000
  C   C106      1.0  0.97462  0.6281999999999998  0.97936  1.0000
  C   C107      1.0  0.37161000000000005  0.018979999999999997  0.025899999999999996  1.0000
  C   C108      1.0  0.63077  0.0009399999999999995  0.9800599999999998  1.0000
  C   C109      1.0  0.0012800000000000005  0.62953  0.025019999999999997  1.0000
  C   C110      1.0  0.01388  0.3700599999999999  0.97631  1.0000
  C   C111      1.0  0.62706  0.9729299999999997  0.024799999999999992  1.0000
  C   C112      1.0  0.36947  0.99179  0.9804899999999998  1.0000
  C   C113      1.0  0.50001  0.99985  0.8902299999999999  1.0000
  C   C114      1.0  0.49998  0.99994  0.10995999999999997  1.0000
  C   C115      1.0  0.9997600000000001  0.4999599999999999  0.8900899999999998  1.0000
  C   C116      1.0  0.99985  0.4999299999999999  0.10982  1.0000
  C   C117      1.0  0.99993  0.4998799999999999  0.3901799999999999  1.0000
  C   C118      1.0  0.99997  0.4997599999999999  0.60991  1.0000
  C   C119      1.0  0.4999300000000001  0.9999599999999997  0.39004  1.0000
  C   C120      1.0  0.49981  3.0000000000000024e-05  0.60976  1.0000
  C   C121      1.0  0.00713  0.4567499999999999  0.9741299999999999  1.0000
  C   C122      1.0  0.0034400000000000003  0.54289  0.025399999999999995  1.0000
  C   C123      1.0  0.45653  0.9957999999999998  0.9747599999999997  1.0000
  C   C124      1.0  0.54173  0.98826  0.026099999999999998  1.0000
  C   C125      1.0  0.98943  0.54225  0.9742299999999998  1.0000
  C   C126      1.0  0.99332  0.45645  0.025599999999999994  1.0000
  C   C127      1.0  0.54361  0.00209  0.97491  1.0000
  C   C128      1.0  0.45774  0.00991  0.025979999999999993  1.0000
  C   C129      1.0  0.50966  0.9577  0.47407999999999995  1.0000
  C   C130      1.0  0.50174  0.04367999999999999  0.52505  1.0000
  C   C131      1.0  0.95645  0.4935799999999999  0.47444  1.0000
  C   C132      1.0  0.04226  0.4895099999999999  0.52574  1.0000
  C   C133      1.0  0.48798000000000014  0.04169  0.47385  1.0000
  C   C134      1.0  0.49552  0.95658  0.5252799999999999  1.0000
  C   C135      1.0  0.04288  0.50355  0.4745699999999999  1.0000
  C   C136      1.0  0.95682  0.5074  0.5259  1.0000
  C   C137      1.0  0.40906  0.90896  0.75004  1.0000
  C   C138      1.0  0.59071  0.09073  0.24999  1.0000
  C   C139      1.0  0.90917  0.5910399999999998  0.75002  1.0000
  C   C140      1.0  0.09074  0.40916  0.24993  1.0000
  C   C141      1.0  0.5907800000000002  0.09076999999999999  0.7499899999999998  1.0000
  C   C142      1.0  0.40917000000000003  0.90917  0.24999999999999994  1.0000
  C   C143      1.0  0.09105  0.40913  0.74996  1.0000
  C   C144      1.0  0.90916  0.59075  0.25006  1.0000
  C   C145      1.0  0.4093  0.09094999999999998  0.24990999999999994  1.0000
  C   C146      1.0  0.59102  0.9091799999999999  0.74975  1.0000
  C   C147      1.0  0.90897  0.4089899999999999  0.24999999999999994  1.0000
  C   C148      1.0  0.09093  0.59083  0.7500799999999997  1.0000
  C   C149      1.0  0.59095  0.9092999999999999  0.25009  1.0000
  C   C150      1.0  0.40917000000000003  0.09096999999999997  0.75018  1.0000
  C   C151      1.0  0.09079000000000001  0.59079  0.24999999999999994  1.0000
  C   C152      1.0  0.90923  0.40923  0.7500099999999997  1.0000
  C   C153      1.0  0.99896  0.49968999999999997  0.9462699999999998  1.0000
  C   C154      1.0  0.99911  0.49971999999999994  0.053459999999999994  1.0000
  C   C155      1.0  0.50008  0.9993799999999999  0.9466499999999998  1.0000
  C   C156      1.0  0.49983  0.99957  0.05382999999999999  1.0000
  C   C157      1.0  0.49944  0.99979  0.4461799999999999  1.0000
  C   C158      1.0  0.49917  0.00015  0.55335  1.0000
  C   C159      1.0  0.99971  0.4992399999999999  0.4465499999999999  1.0000
  C   C160      1.0  0.99973  0.4990599999999999  0.5537299999999999  1.0000
  C   C161      1.0  0.84189  0.70392  0.7812  1.0000
  C   C162      1.0  0.18646  0.32386  0.20439999999999997  1.0000
  C   C163      1.0  0.71163  0.15002  0.74459  1.0000
  C   C164      1.0  0.31839  0.81951  0.20301999999999995  1.0000
  C   C165      1.0  0.16141  0.29989  0.7853799999999997  1.0000
  C   C166      1.0  0.81453  0.6752899999999997  0.20277999999999996  1.0000
  C   C167      1.0  0.30076  0.83736  0.7873399999999998  1.0000
  C   C168      1.0  0.69304  0.16684999999999997  0.20776  1.0000
  C   C169      1.0  0.8369  0.3009899999999999  0.21253999999999995  1.0000
  C   C170      1.0  0.16244000000000003  0.69873  0.7878  1.0000
  C   C171      1.0  0.71244  0.85089  0.2505  1.0000
  C   C172      1.0  0.3004100000000001  0.16192  0.78709  1.0000
  C   C173      1.0  0.15082  0.71094  0.26174  1.0000
  C   C174      1.0  0.81493  0.3235099999999999  0.7966599999999998  1.0000
  C   C175      1.0  0.28846  0.1508  0.25279  1.0000
  C   C176      1.0  0.7034300000000001  0.8418899999999998  0.7807199999999997  1.0000
  C   C177      1.0  0.35076000000000007  0.21240999999999993  0.24958999999999998  1.0000
  C   C178      1.0  0.66159  0.8000599999999998  0.7129799999999997  1.0000
  C   C179      1.0  0.21088  0.6509199999999999  0.23835999999999993  1.0000
  C   C180      1.0  0.82357  0.31486  0.70347  1.0000
  C   C181      1.0  0.6509200000000003  0.7885099999999998  0.24706999999999996  1.0000
  C   C182      1.0  0.34093  0.20223  0.7173099999999999  1.0000
  C   C183      1.0  0.8005800000000002  0.3372199999999999  0.28696  1.0000
  C   C184      1.0  0.20076  0.6605  0.7150799999999998  1.0000
  C   C185      1.0  0.33903  0.7988399999999998  0.7150799999999998  1.0000
  C   C186      1.0  0.6663800000000001  0.19364  0.2915499999999999  1.0000
  C   C187      1.0  0.20287  0.34081  0.7168699999999999  1.0000
  C   C188      1.0  0.82389  0.68649  0.29563  1.0000
  C   C189      1.0  0.65011  0.21159999999999998  0.7555999999999998  1.0000
  C   C190      1.0  0.31938  0.81856  0.29707  1.0000
  C   C191      1.0  0.79939  0.6605999999999999  0.7151399999999998  1.0000
  C   C192      1.0  0.17513  0.31441  0.29722  1.0000
  O   O1        1.0  0.5  0.9999999999999999  0.7499999999999998  1.0000
  O   O2        1.0  0.5  0.9999999999999999  0.24999999999999994  1.0000
  O   O3        1.0  9.25193748840954e-20  0.4999999999999999  0.7499999999999998  1.0000
  O   O4        1.0  6.16795832560636e-20  0.4999999999999999  0.24999999999999994  1.0000
  O   O5        1.0  0.53932  0.9999999999999998  0.86567  1.0000
  O   O6        1.0  0.4606800000000001  0.9999999999999999  0.13432999999999998  1.0000
  O   O7        1.0  1.0793927069811129e-19  0.46068  0.86567  1.0000
  O   O8        1.0  0.0  0.53932  0.13432999999999998  1.0000
  O   O9        1.0  0.4606800000000001  0.9999999999999998  0.86567  1.0000
  O   O10       1.0  0.53932  0.9999999999999999  0.13432999999999998  1.0000
  O   O11       1.0  1.233591665121272e-19  0.53932  0.86567  1.0000
  O   O12       1.0  1.54198958140159e-20  0.46068  0.13432999999999998  1.0000
  O   O13       1.0  0.03932000000000001  0.4999999999999999  0.36567  1.0000
  O   O14       1.0  0.96068  0.4999999999999999  0.63433  1.0000
  O   O15       1.0  0.5  0.96068  0.36567  1.0000
  O   O16       1.0  0.5  0.039319999999999994  0.63433  1.0000
  O   O17       1.0  0.96068  0.4999999999999999  0.36567  1.0000
  O   O18       1.0  0.03932000000000001  0.4999999999999999  0.63433  1.0000
  O   O19       1.0  0.5  0.039319999999999994  0.36567  1.0000
  O   O20       1.0  0.5  0.96068  0.63433  1.0000
  O   O21       1.0  0.40562  0.94481  0.78024  1.0000
  O   O22       1.0  0.59438  0.05519  0.21975999999999996  1.0000
  O   O23       1.0  0.94481  0.59438  0.78024  1.0000
  O   O24       1.0  0.05519  0.40561999999999987  0.21975999999999996  1.0000
  O   O25       1.0  0.59438  0.05519  0.78024  1.0000
  O   O26       1.0  0.40562  0.94481  0.21975999999999996  1.0000
  O   O27       1.0  0.05519  0.40561999999999987  0.78024  1.0000
  O   O28       1.0  0.94481  0.59438  0.21975999999999996  1.0000
  O   O29       1.0  0.40562  0.05519  0.21975999999999996  1.0000
  O   O30       1.0  0.59438  0.94481  0.78024  1.0000
  O   O31       1.0  0.94481  0.40561999999999987  0.21975999999999996  1.0000
  O   O32       1.0  0.05519  0.59438  0.78024  1.0000
  O   O33       1.0  0.59438  0.94481  0.21975999999999996  1.0000
  O   O34       1.0  0.40562  0.05519  0.78024  1.0000
  O   O35       1.0  0.05519  0.59438  0.21975999999999996  1.0000
  O   O36       1.0  0.94481  0.40561999999999987  0.78024  1.0000
  O   O37       1.0  0.90562  0.44481  0.28024  1.0000
  O   O38       1.0  0.09438  0.55519  0.71976  1.0000
  O   O39       1.0  0.4448100000000001  0.09437999999999998  0.28024  1.0000
  O   O40       1.0  0.55519  0.9056199999999998  0.71976  1.0000
  O   O41       1.0  0.09438  0.55519  0.28024  1.0000
  O   O42       1.0  0.90562  0.44481  0.71976  1.0000
  O   O43       1.0  0.55519  0.9056199999999998  0.28024  1.0000
  O   O44       1.0  0.4448100000000001  0.09437999999999998  0.71976  1.0000
  O   O45       1.0  0.90562  0.55519  0.71976  1.0000
  O   O46       1.0  0.09438  0.44481  0.28024  1.0000
  O   O47       1.0  0.4448100000000001  0.9056199999999998  0.71976  1.0000
  O   O48       1.0  0.55519  0.09437999999999998  0.28024  1.0000
  O   O49       1.0  0.09438  0.44481  0.71976  1.0000
  O   O50       1.0  0.90562  0.55519  0.28024  1.0000
  O   O51       1.0  0.55519  0.09437999999999998  0.71976  1.0000
  O   O52       1.0  0.4448100000000001  0.9056199999999998  0.28024  1.0000
  Zn  Zn1       1.0  0.5  0.94396  0.70652  1.0000
  Zn  Zn2       1.0  0.5  0.05604  0.29348  1.0000
  Zn  Zn3       1.0  0.94396  0.4999999999999999  0.70652  1.0000
  Zn  Zn4       1.0  0.05604  0.4999999999999999  0.29348  1.0000
  Zn  Zn5       1.0  0.5  0.05604  0.70652  1.0000
  Zn  Zn6       1.0  0.5  0.94396  0.29348  1.0000
  Zn  Zn7       1.0  0.05604  0.4999999999999999  0.70652  1.0000
  Zn  Zn8       1.0  0.94396  0.4999999999999999  0.29348  1.0000
  Zn  Zn9       1.0  0.0  0.44396  0.20652  1.0000
  Zn  Zn10      1.0  0.0  0.55604  0.79348  1.0000
  Zn  Zn11      1.0  0.4439600000000001  0.0  0.20652  1.0000
  Zn  Zn12      1.0  0.55604  0.0  0.79348  1.0000
  Zn  Zn13      1.0  0.0  0.55604  0.20652  1.0000
  Zn  Zn14      1.0  0.0  0.44396  0.79348  1.0000
  Zn  Zn15      1.0  0.55604  0.0  0.20652  1.0000
  Zn  Zn16      1.0  0.4439600000000001  0.0  0.79348  1.0000
  O   O53       1.0  0.51676  0.17417  0.53833  1.0000
  C   C193      1.0  0.47995  0.20774  0.54521  1.0000
  H   H1        1.0  0.44421000000000005  0.19148999999999994  0.55066  1.0000
  H   H2        1.0  0.47926  0.23271  0.5124599999999999  1.0000
  H   H3        1.0  0.48783  0.22901999999999997  0.57988  1.0000
  O   O54       1.0  0.53426  0.8304199999999998  0.45075  1.0000
  C   C194      1.0  0.50244  0.8186  0.4111799999999999  1.0000
  H   H4        1.0  0.46613  0.8116099999999998  0.4264199999999999  1.0000
  H   H5        1.0  0.51502  0.78544  0.3925399999999999  1.0000
  H   H6        1.0  0.50131  0.84675  0.3813699999999999  1.0000
  O   O55       1.0  0.16797  0.4514299999999999  0.53973  1.0000
  C   C195      1.0  0.20585000000000006  0.48354999999999987  0.5481199999999999  1.0000
  H   H7        1.0  0.22689  0.47092  0.58119  1.0000
  H   H8        1.0  0.19393  0.52045  0.5569699999999999  1.0000
  H   H9        1.0  0.23027  0.4835199999999999  0.51481  1.0000
  O   O56       1.0  0.8272200000000001  0.477  0.45431999999999995  1.0000
  C   C196      1.0  0.80802  0.5172  0.42960999999999994  1.0000
  H   H10       1.0  0.83285  0.53121  0.4001099999999999  1.0000
  H   H11       1.0  0.79849  0.54579  0.4571399999999999  1.0000
  H   H12       1.0  0.77482  0.50642  0.4099299999999999  1.0000
  O   O57       1.0  0.4723500000000001  0.8272999999999998  0.5384499999999999  1.0000
  C   C197      1.0  0.50806  0.7927899999999998  0.54658  1.0000
  H   H13       1.0  0.49905000000000005  0.7725  0.58158  1.0000
  H   H14       1.0  0.54427  0.8079999999999999  0.5521299999999999  1.0000
  H   H15       1.0  0.50847  0.7671199999999999  0.5143599999999999  1.0000
  O   O58       1.0  0.45043  0.16635  0.4538  1.0000
  C   C198      1.0  0.4779400000000001  0.18235  0.41224  1.0000
  H   H16       1.0  0.48004  0.15508  0.3814799999999999  1.0000
  H   H17       1.0  0.51411  0.19320999999999994  0.4248999999999999  1.0000
  H   H18       1.0  0.46053  0.2142  0.3957499999999999  1.0000
  O   O59       1.0  0.82823  0.52875  0.54677  1.0000
  C   C199      1.0  0.80686  0.4888499999999999  0.5701099999999999  1.0000
  H   H19       1.0  0.83128  0.4717299999999999  0.5980199999999999  1.0000
  H   H20       1.0  0.7947300000000002  0.46228999999999987  0.54153  1.0000
  H   H21       1.0  0.77485  0.50091  0.59125  1.0000
  O   O60       1.0  0.17212  0.5115  0.4509799999999999  1.0000
  C   C200      1.0  0.17907  0.4786199999999999  0.4109499999999999  1.0000
  H   H22       1.0  0.15097  0.4819  0.38127  1.0000
  H   H23       1.0  0.18068000000000006  0.44152  0.4256499999999999  1.0000
  H   H24       1.0  0.21367  0.48637  0.39234  1.0000
  O   O61       1.0  0.01172  0.67219  0.048739999999999985  1.0000
  C   C201      1.0  0.97883  0.6793  0.08871999999999997  1.0000
  H   H25       1.0  0.9820400000000002  0.6512599999999997  0.11849  1.0000
  H   H26       1.0  0.94176  0.68094  0.07399  1.0000
  H   H27       1.0  0.98664  0.7139399999999998  0.10723999999999997  1.0000
  O   O62       1.0  0.02793  0.32805  0.95324  1.0000
  C   C202      1.0  0.98791  0.30679  0.9300299999999999  1.0000
  H   H28       1.0  0.96139  0.29472  0.95868  1.0000
  H   H29       1.0  0.99983  0.27475999999999995  0.9087999999999998  1.0000
  H   H30       1.0  0.97081  0.33126  0.9021599999999999  1.0000
  O   O63       1.0  0.66658  0.9512299999999998  0.04578  1.0000
  C   C203      1.0  0.6826000000000002  0.9786499999999998  0.08740999999999997  1.0000
  H   H31       1.0  0.65544  0.9804799999999998  0.11829  1.0000
  H   H32       1.0  0.69324  0.01493  0.07487999999999997  1.0000
  H   H33       1.0  0.7145900000000002  0.96133  0.10366  1.0000
  O   O64       1.0  0.32715  0.9732699999999997  0.96167  1.0000
  C   C204      1.0  0.29279  0.00916  0.9537099999999997  1.0000
  H   H34       1.0  0.30812  0.04536  0.9483899999999997  1.0000
  H   H35       1.0  0.2671  0.0095  0.9859199999999999  1.0000
  H   H36       1.0  0.2725  0.00039999999999999953  0.9186399999999998  1.0000
  O   O65       1.0  0.97641  0.32723  0.04583  1.0000
  C   C205      1.0  0.01667  0.3078299999999999  0.07026  1.0000
  H   H37       1.0  0.00581  0.27479999999999993  0.09021999999999998  1.0000
  H   H38       1.0  0.031120000000000002  0.33269  0.09948999999999998  1.0000
  H   H39       1.0  0.04494  0.29796  0.04249999999999999  1.0000
  O   O66       1.0  0.9519200000000001  0.6680899999999999  0.9597499999999998  1.0000
  C   C206      1.0  0.98421  0.70587  0.9515699999999999  1.0000
  H   H40       1.0  0.9720800000000003  0.72674  0.9181799999999998  1.0000
  H   H41       1.0  0.021210000000000007  0.69386  0.9433699999999998  1.0000
  H   H42       1.0  0.98379  0.73047  0.9847299999999998  1.0000
  O   O67       1.0  0.33062  0.03498  0.04952  1.0000
  C   C207      1.0  0.3187400000000001  0.0031299999999999995  0.08906  1.0000
  H   H43       1.0  0.34692  0.00186  0.11881999999999998  1.0000
  H   H44       1.0  0.31161  0.9668599999999998  0.07375999999999999  1.0000
  H   H45       1.0  0.2856600000000001  0.01579  0.10776999999999998  1.0000
  O   O68       1.0  0.67394  0.01799  0.9616  1.0000
  C   C208      1.0  0.70759  0.98132  0.9542899999999997  1.0000
  H   H46       1.0  0.69142  0.9455899999999998  0.94851  1.0000
  H   H47       1.0  0.73261  0.9804199999999997  0.98699  1.0000
  H   H48       1.0  0.72881  0.9895699999999997  0.91967  1.0000
  S   S1        1.0  0.8388  0.7396099999999998  0.837  1.0000
  O   O69       1.0  0.85422  0.78943  0.82486  1.0000
  O   O70       1.0  0.7886  0.73993  0.8567499999999999  1.0000
  O   O71       1.0  0.87426  0.7172899999999999  0.8826799999999998  1.0000
  H   H49       1.0  0.87194  0.74013  0.9114099999999998  1.0000
  S   S2        1.0  0.21192  0.30217  0.14595  1.0000
  O   O72       1.0  0.25922  0.32594  0.13801  1.0000
  O   O73       1.0  0.21949000000000005  0.24935  0.14833999999999997  1.0000
  O   O74       1.0  0.1767  0.31284  0.09544999999999998  1.0000
  H   H50       1.0  0.19619  0.3044399999999999  0.06521  1.0000
  S   S3        1.0  0.7732  0.13383  0.7465799999999998  1.0000
  O   O75       1.0  0.79395  0.13929  0.69398  1.0000
  O   O76       1.0  0.79991  0.16562  0.78271  1.0000
  O   O77       1.0  0.78071  0.07757  0.76664  1.0000
  H   H51       1.0  0.8148100000000003  0.07061  0.7607899999999997  1.0000
  S   S4        1.0  0.28918  0.8030599999999998  0.14482999999999996  1.0000
  O   O78       1.0  0.30849  0.7559499999999998  0.12723  1.0000
  O   O79       1.0  0.23657  0.7982  0.15341  1.0000
  O   O80       1.0  0.2971  0.8438599999999998  0.09874  1.0000
  H   H52       1.0  0.28422  0.8289999999999997  0.06735999999999999  1.0000
  S   S5        1.0  0.16498  0.26791  0.84356  1.0000
  O   O81       1.0  0.15022  0.21720999999999993  0.8352299999999998  1.0000
  O   O82       1.0  0.21514  0.26956  0.8631799999999997  1.0000
  O   O83       1.0  0.12903  0.29277999999999993  0.8874999999999997  1.0000
  H   H53       1.0  0.13108  0.27164  0.9176299999999997  1.0000
  S   S6        1.0  0.7922000000000001  0.6968899999999998  0.14318999999999998  1.0000
  O   O84       1.0  0.74357  0.67628  0.13444999999999996  1.0000
  O   O85       1.0  0.7883600000000002  0.75018  0.14421999999999996  1.0000
  O   O86       1.0  0.8281100000000001  0.68222  0.09423999999999999  1.0000
  H   H54       1.0  0.81057  0.69184  0.06316  1.0000
  S   S7        1.0  0.27079  0.8311299999999998  0.84661  1.0000
  O   O87       1.0  0.21994  0.84649  0.8413499999999998  1.0000
  O   O88       1.0  0.27274  0.78008  0.86335  1.0000
  O   O89       1.0  0.2974  0.8648  0.89136  1.0000
  H   H55       1.0  0.27745  0.86118  0.9223199999999999  1.0000
  S   S8        1.0  0.7411  0.15593999999999997  0.16555  1.0000
  O   O90       1.0  0.74128  0.19237  0.12375999999999998  1.0000
  O   O91       1.0  0.78682  0.15835999999999995  0.19497999999999993  1.0000
  O   O92       1.0  0.73657  0.10140999999999997  0.13954999999999998  1.0000
  H   H56       1.0  0.7633600000000003  0.09924  0.11506  1.0000
  S   S9        1.0  0.8283600000000001  0.27542  0.15141  1.0000
  O   O93       1.0  0.8423400000000002  0.22394999999999995  0.15197999999999995  1.0000
  O   O94       1.0  0.777  0.28019  0.13665999999999998  1.0000
  O   O95       1.0  0.86169  0.30419  0.10792  1.0000
  H   H57       1.0  0.8559  0.28723999999999994  0.07532999999999998  1.0000
  S   S10       1.0  0.14787  0.75206  0.8205899999999998  1.0000
  O   O96       1.0  0.17793  0.7564999999999997  0.86765  1.0000
  O   O97       1.0  0.15664  0.7938  0.78607  1.0000
  O   O98       1.0  0.09016  0.75215  0.8374699999999998  1.0000
  H   H58       1.0  0.08597  0.78133  0.8582399999999998  1.0000
  S   S11       1.0  0.77375  0.86719  0.24382999999999994  1.0000
  O   O99       1.0  0.79707  0.86484  0.29533  1.0000
  O   O100      1.0  0.79928  0.8335699999999998  0.20856  1.0000
  O   O101      1.0  0.78033  0.92226  0.21997  1.0000
  H   H59       1.0  0.76816  0.9201799999999999  0.18456  1.0000
  S   S12       1.0  0.246  0.14632  0.8170799999999999  1.0000
  O   O102      1.0  0.23965000000000003  0.17524  0.8648199999999999  1.0000
  O   O103      1.0  0.20559  0.15573  0.78103  1.0000
  O   O104      1.0  0.24554  0.08820999999999998  0.8321599999999998  1.0000
  H   H60       1.0  0.21612  0.08359999999999998  0.8523899999999999  1.0000
  S   S13       1.0  0.13469  0.7723099999999998  0.26789  1.0000
  O   O105      1.0  0.14454  0.7881399999999997  0.3216899999999999  1.0000
  O   O106      1.0  0.16335  0.80248  0.23190999999999995  1.0000
  O   O107      1.0  0.07698000000000002  0.7811399999999997  0.2541999999999999  1.0000
  H   H61       1.0  0.07053  0.81448  0.26434  1.0000
  S   S14       1.0  0.7929700000000001  0.30018999999999996  0.8557599999999997  1.0000
  O   O108      1.0  0.74472  0.3211  0.8660999999999998  1.0000
  O   O109      1.0  0.78843  0.24702  0.8527399999999999  1.0000
  O   O110      1.0  0.82958  0.31274999999999986  0.9046599999999998  1.0000
  H   H62       1.0  0.81214  0.30252  0.9356399999999999  1.0000
  S   S15       1.0  0.22689  0.13522  0.24706  1.0000
  O   O111      1.0  0.20428  0.13771999999999998  0.29904999999999987  1.0000
  O   O112      1.0  0.20158  0.16919  0.21223999999999998  1.0000
  O   O113      1.0  0.21981  0.08032  0.22269999999999998  1.0000
  H   H63       1.0  0.18546  0.07333999999999999  0.22648999999999994  1.0000
  S   S16       1.0  0.75865  0.8603999999999998  0.80673  1.0000
  O   O114      1.0  0.76789  0.83468  0.8558799999999999  1.0000
  O   O115      1.0  0.79785  0.8499699999999998  0.7692999999999998  1.0000
  O   O116      1.0  0.75783  0.9192799999999998  0.8180299999999999  1.0000
  H   H64       1.0  0.78812  0.92605  0.8358599999999999  1.0000
  S   S17       1.0  0.36693  0.27377  0.25619999999999993  1.0000
  O   O117      1.0  0.36376  0.29715  0.20474999999999993  1.0000
  O   O118      1.0  0.33363  0.29872  0.29226  1.0000
  O   O119      1.0  0.42221  0.28026  0.27949999999999997  1.0000
  H   H65       1.0  0.42916  0.3146799999999999  0.27658  1.0000
  S   S18       1.0  0.6452800000000001  0.74511  0.68461  1.0000
  O   O120      1.0  0.67334  0.73764  0.63645  1.0000
  O   O121      1.0  0.6552  0.70543  0.72144  1.0000
  O   O122      1.0  0.58693  0.74456  0.6707299999999999  1.0000
  H   H66       1.0  0.58177  0.71452  0.65173  1.0000
  S   S19       1.0  0.27225  0.6348199999999998  0.23227999999999993  1.0000
  O   O123      1.0  0.28813000000000005  0.64472  0.17850999999999997  1.0000
  O   O124      1.0  0.3023500000000001  0.6634799999999997  0.26832  1.0000
  O   O125      1.0  0.2811  0.5771  0.24593999999999994  1.0000
  H   H67       1.0  0.31444  0.57067  0.23583999999999997  1.0000
  S   S20       1.0  0.80024  0.29293  0.64436  1.0000
  O   O126      1.0  0.82107  0.24464  0.63404  1.0000
  O   O127      1.0  0.74707  0.28847  0.6473799999999998  1.0000
  O   O128      1.0  0.8128800000000003  0.32953  0.5954699999999998  1.0000
  H   H68       1.0  0.80262  0.31211  0.56449  1.0000
  S   S21       1.0  0.63546  0.72688  0.25257  1.0000
  O   O129      1.0  0.63869  0.7042599999999999  0.20063999999999996  1.0000
  O   O130      1.0  0.66912  0.70173  0.28786  1.0000
  O   O131      1.0  0.58033  0.7194999999999998  0.2761799999999999  1.0000
  H   H69       1.0  0.57365  0.68507  0.27247999999999994  1.0000
  S   S22       1.0  0.3584  0.25676  0.6888799999999998  1.0000
  O   O132      1.0  0.33124000000000003  0.26439  0.6403099999999999  1.0000
  O   O133      1.0  0.34875  0.29698999999999987  0.72529  1.0000
  O   O134      1.0  0.41693  0.256  0.6756999999999997  1.0000
  H   H70       1.0  0.42288  0.28556  0.6561899999999998  1.0000
  S   S23       1.0  0.77481  0.32851  0.34795999999999994  1.0000
  O   O135      1.0  0.72338  0.3426399999999999  0.3472399999999999  1.0000
  O   O136      1.0  0.77939  0.27707  0.36251  1.0000
  O   O137      1.0  0.8035  0.3616  0.39172  1.0000
  H   H71       1.0  0.78632  0.35585  0.42418  1.0000
  S   S24       1.0  0.2544  0.64457  0.6836299999999997  1.0000
  O   O138      1.0  0.2601  0.67353  0.63593  1.0000
  O   O139      1.0  0.29574  0.6533699999999998  0.71868  1.0000
  O   O140      1.0  0.25375  0.58652  0.6681299999999998  1.0000
  H   H72       1.0  0.28335  0.58131  0.6483499999999998  1.0000
  S   S25       1.0  0.33271  0.7674999999999997  0.6566299999999998  1.0000
  O   O141      1.0  0.34848  0.71691  0.6632599999999997  1.0000
  O   O142      1.0  0.28155  0.76867  0.64022  1.0000
  O   O143      1.0  0.36588  0.79325  0.6108599999999998  1.0000
  H   H73       1.0  0.3626  0.77224  0.58067  1.0000
  S   S26       1.0  0.65513  0.24189  0.3334099999999999  1.0000
  O   O144      1.0  0.69124  0.24231999999999998  0.3755099999999999  1.0000
  O   O145      1.0  0.65768  0.2875  0.30377  1.0000
  O   O146      1.0  0.60044  0.23735999999999993  0.35898999999999986  1.0000
  H   H74       1.0  0.59805  0.26426  0.3833299999999999  1.0000
  S   S27       1.0  0.23671  0.33631  0.6598199999999999  1.0000
  O   O147      1.0  0.28693  0.35174  0.6697199999999999  1.0000
  O   O148      1.0  0.23653  0.28573  0.6412099999999997  1.0000
  O   O149      1.0  0.21361  0.37096  0.61386  1.0000
  H   H75       1.0  0.18085  0.35894  0.6087599999999999  1.0000
  S   S28       1.0  0.80216  0.7118899999999998  0.35409  1.0000
  O   O150      1.0  0.8259  0.7592199999999998  0.36207  1.0000
  O   O151      1.0  0.74935  0.7194399999999999  0.3516699999999999  1.0000
  O   O152      1.0  0.81283  0.6766499999999998  0.40457  1.0000
  H   H76       1.0  0.80435  0.6960999999999999  0.43481  1.0000
  S   S29       1.0  0.63406  0.27323  0.75383  1.0000
  O   O153      1.0  0.64014  0.29396  0.8063499999999998  1.0000
  O   O154      1.0  0.66558  0.29981  0.7173299999999998  1.0000
  O   O155      1.0  0.5776500000000001  0.28102  0.7344399999999998  1.0000
  H   H77       1.0  0.57108  0.31525999999999993  0.7398999999999998  1.0000
  S   S30       1.0  0.30286  0.7894399999999998  0.35529  1.0000
  O   O156      1.0  0.25576  0.8088099999999999  0.37281  1.0000
  O   O157      1.0  0.29799  0.7368099999999997  0.3467999999999999  1.0000
  O   O158      1.0  0.34362  0.7974199999999998  0.4014  1.0000
  H   H78       1.0  0.32875000000000004  0.7845499999999997  0.4327899999999999  1.0000
  S   S31       1.0  0.76599  0.66248  0.6578099999999998  1.0000
  O   O159      1.0  0.71549  0.64813  0.6681  1.0000
  O   O160      1.0  0.7672600000000003  0.712  0.6363899999999999  1.0000
  O   O161      1.0  0.78968  0.62513  0.61447  1.0000
  H   H79       1.0  0.76794  0.62651  0.58479  1.0000
  S   S32       1.0  0.19662  0.29196  0.35682  1.0000
  O   O162      1.0  0.17596  0.24332  0.3654399999999999  1.0000
  O   O163      1.0  0.24989  0.2881  0.35588999999999993  1.0000
  O   O164      1.0  0.18189  0.32782  0.40581  1.0000
  H   H80       1.0  0.19136  0.31019  0.43688  1.0000
  S   S33       1.0  0.93926  0.6948399999999998  0.78752  1.0000
  O   O165      1.0  0.9558600000000003  0.67404  0.83715  1.0000
  O   O166      1.0  0.9731400000000002  0.68021  0.74587  1.0000
  O   O167      1.0  0.94054  0.75444  0.79211  1.0000
  H   H81       1.0  0.93253  0.7659599999999998  0.75745  1.0000
  S   S34       1.0  0.14925  0.40194  0.15133  1.0000
  O   O168      1.0  0.11190000000000003  0.3829799999999999  0.11578  1.0000
  O   O169      1.0  0.1347  0.45098  0.16771999999999998  1.0000
  O   O170      1.0  0.20099000000000006  0.4069299999999999  0.11954999999999998  1.0000
  H   H82       1.0  0.2228  0.42289  0.14379999999999998  1.0000
  S   S35       1.0  0.68828  0.057589999999999995  0.7126099999999997  1.0000
  O   O171      1.0  0.69778  0.02405  0.7560599999999997  1.0000
  O   O172      1.0  0.64691  0.038979999999999994  0.68228  1.0000
  O   O173      1.0  0.7357300000000001  0.05901  0.67349  1.0000
  H   H83       1.0  0.74283  0.02524  0.6658499999999999  1.0000
  S   S36       1.0  0.39295  0.8596299999999998  0.1467  1.0000
  O   O174      1.0  0.37397  0.902  0.11847  1.0000
  O   O175      1.0  0.44409  0.8690299999999999  0.15962999999999994  1.0000
  O   O176      1.0  0.39145  0.8119  0.10799  1.0000
  H   H84       1.0  0.4072  0.78627  0.12759  1.0000
  S   S37       1.0  0.06393  0.30527  0.7888699999999997  1.0000
  O   O177      1.0  0.045690000000000015  0.32685  0.83753  1.0000
  O   O178      1.0  0.03072  0.3174899999999999  0.7459199999999998  1.0000
  O   O179      1.0  0.06526  0.24578999999999995  0.7948299999999998  1.0000
  H   H85       1.0  0.03321  0.23700999999999994  0.8074099999999999  1.0000
  S   S38       1.0  0.84808  0.59287  0.15403  1.0000
  O   O180      1.0  0.8879400000000002  0.6061199999999998  0.11853999999999998  1.0000
  O   O181      1.0  0.8575  0.54375  0.17423999999999995  1.0000
  O   O182      1.0  0.79698  0.59076  0.12091  1.0000
  H   H86       1.0  0.7730500000000002  0.57871  0.1455  1.0000
  S   S39       1.0  0.3063  0.93462  0.7957999999999997  1.0000
  O   O183      1.0  0.32849000000000006  0.9506199999999998  0.84501  1.0000
  O   O184      1.0  0.31747  0.9703899999999998  0.75485  1.0000
  O   O185      1.0  0.24699  0.93307  0.80344  1.0000
  H   H87       1.0  0.23431  0.9246999999999997  0.76931  1.0000
  S   S40       1.0  0.62761  0.12475999999999998  0.14318999999999998  1.0000
  O   O186      1.0  0.64085  0.07486  0.12866999999999998  1.0000
  O   O187      1.0  0.5742900000000001  0.12847  0.14485  1.0000
  O   O188      1.0  0.64807  0.16207999999999997  0.09815  1.0000
  H   H88       1.0  0.63635  0.19386999999999996  0.10857999999999997  1.0000
  S   S41       1.0  0.93367  0.30634999999999996  0.20274  1.0000
  O   O189      1.0  0.94969  0.33073  0.15485999999999994  1.0000
  O   O190      1.0  0.96954  0.3153299999999999  0.24416999999999997  1.0000
  O   O191      1.0  0.9311500000000003  0.24748999999999996  0.19182999999999995  1.0000
  H   H89       1.0  0.92245  0.23333  0.22517999999999994  1.0000
  S   S42       1.0  0.11041  0.64376  0.8549499999999998  1.0000
  O   O192      1.0  0.059320000000000005  0.6589699999999997  0.85848  1.0000
  O   O193      1.0  0.11321  0.59095  0.8635  1.0000
  O   O194      1.0  0.14120000000000005  0.67082  0.90163  1.0000
  H   H90       1.0  0.17362  0.6572  0.89937  1.0000
  S   S43       1.0  0.6903600000000001  0.9447599999999999  0.27853999999999995  1.0000
  O   O195      1.0  0.698  0.9758299999999998  0.23261999999999994  1.0000
  O   O196      1.0  0.65046  0.9655599999999998  0.30963999999999997  1.0000
  O   O197      1.0  0.73954  0.9457899999999998  0.3149199999999999  1.0000
  H   H91       1.0  0.73091  0.9276499999999999  0.34598  1.0000
  S   S44       1.0  0.35304  0.10768999999999998  0.85404  1.0000
  O   O198      1.0  0.33841  0.05631999999999999  0.8544199999999998  1.0000
  O   O199      1.0  0.40542  0.11084  0.86503  1.0000
  O   O200      1.0  0.3238  0.13641  0.90084  1.0000
  H   H92       1.0  0.33731  0.16894999999999993  0.9009299999999998  1.0000
  S   S45       1.0  0.06175  0.6841599999999998  0.30038  1.0000
  O   O201      1.0  0.02411  0.69613  0.26181  1.0000
  O   O202      1.0  0.04715000000000001  0.6400199999999999  0.32851  1.0000
  O   O203      1.0  0.06604  0.7283499999999998  0.34344  1.0000
  H   H93       1.0  0.0334  0.7324099999999998  0.35704  1.0000
  S   S46       1.0  0.85029  0.40375  0.848  1.0000
  O   O204      1.0  0.89033  0.3883899999999999  0.8821099999999997  1.0000
  O   O205      1.0  0.8604  0.4534399999999999  0.8298399999999998  1.0000
  O   O206      1.0  0.79964  0.4054799999999999  0.8821399999999999  1.0000
  H   H94       1.0  0.77562  0.41876  0.8585099999999998  1.0000
  S   S47       1.0  0.30968  0.05671  0.27931  1.0000
  O   O207      1.0  0.30182  0.02558  0.23336999999999994  1.0000
  O   O208      1.0  0.34975  0.03647  0.3101899999999999  1.0000
  O   O209      1.0  0.26078  0.05624999999999999  0.31633  1.0000
  H   H95       1.0  0.25452  0.0222  0.32327  1.0000
  S   S48       1.0  0.6519400000000001  0.8941399999999999  0.8505899999999997  1.0000
  O   O210      1.0  0.6655500000000001  0.94582  0.8506499999999998  1.0000
  O   O211      1.0  0.60015  0.8898499999999998  0.8642499999999999  1.0000
  O   O212      1.0  0.68358  0.8656399999999999  0.8954699999999999  1.0000
  H   H96       1.0  0.6709200000000002  0.83277  0.89558  1.0000
  S   S49       1.0  0.44464  0.19050999999999996  0.22157999999999994  1.0000
  O   O213      1.0  0.47552  0.19863999999999996  0.26754999999999995  1.0000
  O   O214      1.0  0.46575  0.15054999999999993  0.19082  1.0000
  O   O215      1.0  0.44541  0.23948  0.18484999999999993  1.0000
  H   H97       1.0  0.4270100000000001  0.23068  0.15403  1.0000
  S   S50       1.0  0.60642  0.8517  0.6462  1.0000
  O   O216      1.0  0.55507  0.83709  0.64683  1.0000
  O   O217      1.0  0.60947  0.9039199999999998  0.63426  1.0000
  O   O218      1.0  0.63456  0.82173  0.59953  1.0000
  H   H98       1.0  0.66711  0.8351699999999997  0.59879  1.0000
  S   S51       1.0  0.18418  0.5618399999999999  0.19964999999999997  1.0000
  O   O219      1.0  0.19613  0.52417  0.23820999999999995  1.0000
  O   O220      1.0  0.14009  0.54723  0.17146999999999996  1.0000
  O   O221      1.0  0.22841  0.56618  0.15662999999999994  1.0000
  H   H99       1.0  0.23251  0.53354  0.14303  1.0000
  S   S52       1.0  0.90387  0.35011999999999993  0.6521699999999999  1.0000
  O   O222      1.0  0.88869  0.39024  0.6180699999999998  1.0000
  O   O223      1.0  0.9535600000000001  0.36006  0.6704399999999999  1.0000
  O   O224      1.0  0.9055  0.29948  0.6179999999999998  1.0000
  H   H100      1.0  0.9187  0.2754  0.6416299999999998  1.0000
  S   S53       1.0  0.55693  0.8096999999999998  0.22018999999999997  1.0000
  O   O225      1.0  0.5257  0.80115  0.26587  1.0000
  O   O226      1.0  0.53621  0.8499299999999999  0.18987999999999997  1.0000
  O   O227      1.0  0.55651  0.7611  0.18270999999999998  1.0000
  H   H101      1.0  0.5745800000000001  0.77044  0.15181  1.0000
  S   S54       1.0  0.39255  0.14918  0.6481099999999999  1.0000
  O   O228      1.0  0.44415  0.16299  0.64692  1.0000
  O   O229      1.0  0.38837  0.09701  0.63614  1.0000
  O   O230      1.0  0.3634  0.17947  0.6026399999999998  1.0000
  H   H102      1.0  0.33061  0.16663  0.60332  1.0000
  S   S55       1.0  0.8064500000000002  0.4339  0.29745  1.0000
  O   O231      1.0  0.83105  0.44957  0.3453499999999999  1.0000
  O   O232      1.0  0.8154  0.4696699999999999  0.25591  1.0000
  O   O233      1.0  0.74757  0.43121  0.30818  1.0000
  H   H103      1.0  0.7390900000000001  0.46277999999999997  0.32233999999999996  1.0000
  S   S56       1.0  0.14597  0.6100399999999999  0.6464  1.0000
  O   O234      1.0  0.1606  0.55878  0.64276  1.0000
  O   O235      1.0  0.09337  0.6135699999999998  0.63688  1.0000
  O   O236      1.0  0.17416  0.64082  0.60048  1.0000
  H   H104      1.0  0.16112  0.67347  0.6029599999999999  1.0000
  S   S57       1.0  0.43597  0.8064099999999997  0.7044499999999998  1.0000
  O   O237      1.0  0.45076  0.82918  0.65508  1.0000
  O   O238      1.0  0.47183000000000014  0.81807  0.7451299999999997  1.0000
  O   O239      1.0  0.43525  0.7470599999999997  0.6968599999999999  1.0000
  H   H105      1.0  0.46683000000000013  0.73908  0.6823799999999999  1.0000
  S   S58       1.0  0.62463  0.12834  0.35653999999999997  1.0000
  O   O240      1.0  0.57471  0.14155  0.3710299999999999  1.0000
  O   O241      1.0  0.62845  0.07501  0.35519999999999996  1.0000
  O   O242      1.0  0.6619200000000001  0.14911999999999995  0.4014199999999999  1.0000
  H   H106      1.0  0.69373  0.13747  0.39099999999999996  1.0000
  S   S59       1.0  0.19407  0.43803  0.7084999999999999  1.0000
  O   O243      1.0  0.17131  0.45393999999999995  0.65959  1.0000
  O   O244      1.0  0.18149  0.47244999999999987  0.75041  1.0000
  O   O245      1.0  0.25346  0.43847999999999987  0.70135  1.0000
  H   H107      1.0  0.261  0.47049999999999986  0.6878299999999999  1.0000
  S   S60       1.0  0.90194  0.64924  0.3486899999999999  1.0000
  O   O246      1.0  0.88297  0.61187  0.38424999999999987  1.0000
  O   O247      1.0  0.95096  0.6346799999999999  0.33230999999999994  1.0000
  O   O248      1.0  0.90691  0.70098  0.38048999999999994  1.0000
  H   H108      1.0  0.92288  0.7228  0.3562299999999999  1.0000
  S   S61       1.0  0.55772  0.18825  0.78767  1.0000
  O   O249      1.0  0.5242  0.1985  0.74444  1.0000
  O   O250      1.0  0.53852  0.14669999999999997  0.8173399999999997  1.0000
  O   O251      1.0  0.55909  0.23532  0.8272899999999997  1.0000
  H   H109      1.0  0.57923  0.22508  0.8562499999999998  1.0000
  S   S62       1.0  0.35949  0.89321  0.35326  1.0000
  O   O252      1.0  0.40179  0.87424  0.38161  1.0000
  O   O253      1.0  0.36897  0.94432  0.3402099999999999  1.0000
  O   O254      1.0  0.3117  0.8918399999999997  0.3918899999999999  1.0000
  H   H110      1.0  0.28615  0.90766  0.3722399999999999  1.0000
  S   S63       1.0  0.80457  0.56298  0.7150699999999998  1.0000
  O   O255      1.0  0.82435  0.54324  0.6662299999999999  1.0000
  O   O256      1.0  0.8183600000000001  0.53075  0.75833  1.0000
  O   O257      1.0  0.7449400000000002  0.56387  0.7112099999999998  1.0000
  H   H111      1.0  0.73408  0.57508  0.74516  1.0000
  S   S64       1.0  0.09268  0.34795  0.34587999999999997  1.0000
  O   O258      1.0  0.1059  0.3877599999999999  0.38146  1.0000
  O   O259      1.0  0.04360000000000001  0.35743  0.32561  1.0000
  O   O260      1.0  0.09048000000000003  0.29679  0.3789299999999999  1.0000
  H   H112      1.0  0.07845  0.2729  0.35428  1.0000
  O   O261      1.0  0.44624000000000014  0.9094399999999998  0.58423  1.0000
  C   C209      1.0  0.40179  0.9265  0.56749  1.0000
  H   H113      1.0  0.38918000000000014  0.90681  0.53313  1.0000
  H   H114      1.0  0.4030500000000001  0.9653399999999999  0.55968  1.0000
  H   H115      1.0  0.37536  0.92069  0.59836  1.0000
  O   O262      1.0  0.43170000000000003  0.07812  0.41404999999999986  1.0000
  C   C210      1.0  0.39148  0.05332  0.4323099999999999  1.0000
  H   H116      1.0  0.37895  0.06725  0.46988  1.0000
  H   H117      1.0  0.39887000000000006  0.014569999999999996  0.4349299999999999  1.0000
  H   H118      1.0  0.36192000000000013  0.05832  0.4049799999999999  1.0000
  O   O263      1.0  0.91259  0.55786  0.58715  1.0000
  C   C211      1.0  0.93436  0.6008599999999997  0.5723  1.0000
  H   H119      1.0  0.91764  0.6156799999999998  0.53723  1.0000
  H   H120      1.0  0.9732700000000001  0.59629  0.56656  1.0000
  H   H121      1.0  0.9293700000000001  0.6272499999999999  0.60339  1.0000
  O   O264      1.0  0.09032  0.55407  0.41748999999999997  1.0000
  C   C212      1.0  0.07484  0.59743  0.43910999999999994  1.0000
  H   H122      1.0  0.08976  0.6036  0.47800999999999993  1.0000
  H   H123      1.0  0.03535  0.5989  0.44027  1.0000
  H   H124      1.0  0.08768000000000001  0.62704  0.4148799999999999  1.0000
  O   O265      1.0  0.54886  0.09429  0.58302  1.0000
  C   C213      1.0  0.59341  0.07716  0.56634  1.0000
  H   H125      1.0  0.60421  0.09331  0.52925  1.0000
  H   H126      1.0  0.59337  0.03771999999999998  0.56343  1.0000
  H   H127      1.0  0.62061  0.0873  0.5949599999999999  1.0000
  O   O266      1.0  0.56313  0.91678  0.41381999999999997  1.0000
  C   C214      1.0  0.60444  0.94058  0.43059999999999987  1.0000
  H   H128      1.0  0.61693  0.9271399999999997  0.46828  1.0000
  H   H129      1.0  0.59855  0.97964  0.43229  1.0000
  H   H130      1.0  0.63336  0.93379  0.4027399999999999  1.0000
  O   O267      1.0  0.08345000000000002  0.43731  0.58695  1.0000
  C   C215      1.0  0.06032  0.39473999999999987  0.57297  1.0000
  H   H131      1.0  0.07759  0.3779  0.5391699999999999  1.0000
  H   H132      1.0  0.021870000000000004  0.4007399999999999  0.5655599999999998  1.0000
  H   H133      1.0  0.06304  0.3693799999999999  0.60524  1.0000
  O   O268      1.0  0.91056  0.4444299999999999  0.4138699999999999  1.0000
  C   C216      1.0  0.93007  0.40062  0.4295099999999999  1.0000
  H   H134      1.0  0.9124000000000001  0.3871099999999999  0.46471999999999997  1.0000
  H   H135      1.0  0.9691200000000001  0.40338999999999997  0.43535  1.0000
  H   H136      1.0  0.92399  0.3740799999999999  0.39881  1.0000
  O   O269      1.0  0.94417  0.41069  0.08631999999999997  1.0000
  C   C217      1.0  0.90038  0.43029  0.07078999999999999  1.0000
  H   H137      1.0  0.88673  0.4126  0.03566  1.0000
  H   H138      1.0  0.9032300000000002  0.46933  0.06488  1.0000
  H   H139      1.0  0.87392  0.42432  0.10158999999999999  1.0000
  O   O270      1.0  0.93731  0.5835  0.9129499999999998  1.0000
  C   C218      1.0  0.89492  0.55997  0.9267599999999999  1.0000
  H   H140      1.0  0.87805  0.5767699999999998  0.9608199999999999  1.0000
  H   H141      1.0  0.90116  0.52147  0.9336899999999998  1.0000
  H   H142      1.0  0.86947  0.56286  0.8945999999999998  1.0000
  O   O271      1.0  0.4171  0.06349  0.08634  1.0000
  C   C219      1.0  0.44103  0.10475  0.06957999999999999  1.0000
  H   H143      1.0  0.4275600000000001  0.11734  0.031939999999999996  1.0000
  H   H144      1.0  0.48005  0.0987  0.06776999999999998  1.0000
  H   H145      1.0  0.43442  0.13366  0.09749999999999998  1.0000
  O   O272      1.0  0.59384  0.04956  0.9169  1.0000
  C   C220      1.0  0.57652  0.09402999999999997  0.93364  1.0000
  H   H146      1.0  0.59267  0.10489  0.97071  1.0000
  H   H147      1.0  0.53709  0.0938  0.93663  1.0000
  H   H148      1.0  0.58649  0.1213  0.9050199999999998  1.0000
  O   O273      1.0  0.054000000000000006  0.5903  0.08244999999999998  1.0000
  C   C221      1.0  0.09737  0.57494  0.06077999999999999  1.0000
  H   H149      1.0  0.10355000000000002  0.59003  0.02196  1.0000
  H   H150      1.0  0.09887  0.53545  0.05941999999999999  1.0000
  H   H151      1.0  0.12696  0.5877  0.08508999999999997  1.0000
  O   O274      1.0  0.05752  0.4123599999999999  0.91299  1.0000
  C   C222      1.0  0.10059  0.43387  0.9280099999999998  1.0000
  H   H152      1.0  0.11523000000000001  0.41701999999999995  0.9630899999999998  1.0000
  H   H153      1.0  0.0962  0.4728  0.9338099999999999  1.0000
  H   H154      1.0  0.12703  0.4287999999999999  0.89699  1.0000
  O   O275      1.0  0.57855  0.93214  0.08583  1.0000
  C   C223      1.0  0.55391  0.89179  0.06768  1.0000
  H   H155      1.0  0.5679  0.87923  0.030139999999999993  1.0000
  H   H156      1.0  0.51514  0.8990299999999999  0.06503  1.0000
  H   H157      1.0  0.559  0.8623  0.09511  1.0000
  O   O276      1.0  0.4091  0.94675  0.9158499999999998  1.0000
  C   C224      1.0  0.4258800000000001  0.90218  0.9325899999999998  1.0000
  H   H158      1.0  0.40607  0.8896699999999997  0.96691  1.0000
  H   H159      1.0  0.46471  0.90322  0.9404599999999997  1.0000
  H   H160      1.0  0.41995  0.8757899999999998  0.9017  1.0000
