data_image0
_chemical_formula_structural       C19H16N2O9Zn2
_chemical_formula_sum              "C19 H16 N2 O9 Zn2"
_cell_length_a       7.78538
_cell_length_b       8.57393
_cell_length_c       10.66971
_cell_angle_alpha    91.81065
_cell_angle_beta     84.18501
_cell_angle_gamma    93.82384

_symmetry_space_group_name_H-M    'P 1'
_symmetry_Int_Tables_number       1

loop_
  _symmetry_equiv_pos_as_xyz
  'x,y,z'

loop_
  _atom_site_type_symbol
  _atom_site_label
  _atom_site_symmetry_multiplicity
  _atom_site_fract_x
  _atom_site_fract_y
  _atom_site_fract_z
  _atom_site_occupancy
  C   C1        1.0  0.54586  0.7948  0.49705  1.0000
  C   C2        1.0  0.45413  0.20519  0.50291  1.0000
  C   C3        1.0  0.5018  0.50917  0.26  1.0000
  C   C4        1.0  0.15848  0.50337  0.9155700000000001  1.0000
  C   C5        1.0  0.03930999999999996  0.5998  0.9800900000000001  1.0000
  C   C6        1.0  0.08012  0.68207  0.08853  1.0000
  C   C7        1.0  0.23645  0.66141  0.13652  1.0000
  C   C8        1.0  0.35686  0.5623  0.07274  1.0000
  C   C9        1.0  0.05626999999999997  0.2526299999999999  0.8689500000000001  1.0000
  C   C10       1.0  0.20992999999999998  0.14823  0.8517100000000001  1.0000
  C   C11       1.0  0.15005  0.9757099999999999  0.86186  1.0000
  C   C12       1.0  0.33018  0.50671  0.95168  1.0000
  C   C13       1.0  0.47869000000000006  0.4617699999999999  0.87334  1.0000
  C   C14       1.0  0.6245  0.4195699999999999  0.92566  1.0000
  C   C15       1.0  0.63192  0.43706999999999996  0.05306  1.0000
  C   C16       1.0  0.50132  0.51213  0.12634  1.0000
  C   C17       1.0  0.5699500000000002  0.95832  0.49513  1.0000
  C   C18       1.0  0.42996  0.04168  0.50529  1.0000
  C   C19       1.0  0.49447000000000024  0.48466999999999993  0.7396400000000001  1.0000
  H   H1        1.0  0.7334  0.37569  0.8676  1.0000
  H   H2        1.0  0.95312  0.19970999999999997  0.81331  1.0000
  H   H3        1.0  0.99989  0.2547  0.9694400000000001  1.0000
  H   H4        1.0  0.28282  0.16714999999999997  0.75801  1.0000
  H   H5        1.0  0.29799  0.17836999999999997  0.9256400000000001  1.0000
  H   H6        1.0  0.07027999999999998  0.9557299999999999  0.95281  1.0000
  H   H7        1.0  0.2641899999999999  0.90383  0.8571400000000001  1.0000
  H   H8        1.0  0.07233999999999999  0.9383499999999999  0.78313  1.0000
  H   H9        1.0  0.9858599999999998  0.61834  0.5955900000000001  1.0000
  H   H10       1.0  0.9151200000000002  0.61105  0.94584  1.0000
  H   H11       1.0  0.98825  0.75773  0.13770000000000002  1.0000
  H   H12       1.0  0.26316  0.7253  0.22219  1.0000
  H   H13       1.0  0.74189  0.39513999999999994  0.09348  1.0000
  H   H14       1.0  0.7021  0.009550000000000003  0.48509  1.0000
  H   H15       1.0  0.29779  0.99048  0.51558  1.0000
  H   H16       1.0  0.014189999999999993  0.3816199999999999  0.40449  1.0000
  N   N1        1.0  0.95033  0.45794999999999997  0.46625  1.0000
  N   N2        1.0  0.04967  0.54205  0.53375  1.0000
  O   O1        1.0  0.38925  0.7385699999999997  0.50828  1.0000
  O   O2        1.0  0.67839  0.71163  0.48665  1.0000
  O   O3        1.0  0.35539999999999994  0.5134699999999998  0.69405  1.0000
  O   O4        1.0  0.64454  0.48653  0.67242  1.0000
  O   O5        1.0  0.32161  0.28837  0.51335  1.0000
  O   O6        1.0  0.61075  0.26143  0.49172  1.0000
  O   O7        1.0  0.35546000000000005  0.5134699999999998  0.32758  1.0000
  O   O8        1.0  0.6446  0.48653  0.30595  1.0000
  O   O9        1.0  0.10252  0.40357  0.82129  1.0000
  Zn  Zn1       1.0  0.30693000000000004  0.51799  0.51444  1.0000
  Zn  Zn2       1.0  0.69307  0.48201  0.48556  1.0000
