data_image0
_chemical_formula_structural       C400H240O104Zn32SO3HSO3HSO3HSO3HSO3HSO3HSO3HSO3HSO3HSO3HSO3HSO3HSO3HSO3HSO3HSO3HC6H5C6H5C6H5C6H5C6H5C6H5C6H5C6H5C6H5C6H5C6H5C6H5C6H5C6H5C6H5C6H5C6H5C6H5C6H5C6H5C6H5C6H5C6H5C6H5C6H5C6H5C6H5C6H5C6H5C6H5C6H5C6H5
_chemical_formula_sum              "C592 H416 O152 Zn32 S16"
_cell_length_a       25.71717
_cell_length_b       43.35209
_cell_length_c       43.29699
_cell_angle_alpha    90.00012
_cell_angle_beta     89.18182
_cell_angle_gamma    90.00438

_symmetry_space_group_name_H-M    'P 1'
_symmetry_Int_Tables_number       1

loop_
  _symmetry_equiv_pos_as_xyz
  'x,y,z'

loop_
  _atom_site_type_symbol
  _atom_site_label
  _atom_site_symmetry_multiplicity
  _atom_site_fract_x
  _atom_site_fract_y
  _atom_site_fract_z
  _atom_site_occupancy
  C   C1        1.0  0.39118999999999987  0.49962  0.75028  1.0000
  C   C2        1.0  0.60888  0.49913999999999986  0.24922  1.0000
  C   C3        1.0  0.60883  0.49856  0.75173  1.0000
  C   C4        1.0  0.39118999999999987  0.4986799999999999  0.24838999999999997  1.0000
  C   C5        1.0  0.8911799999999999  0.49960999999999994  0.25028  1.0000
  C   C6        1.0  0.10884  0.49986  0.75001  1.0000
  C   C7        1.0  0.10880999999999999  0.49864999999999987  0.25163  1.0000
  C   C8        1.0  0.89117  0.49830999999999986  0.7479499999999999  1.0000
  C   C9        1.0  0.8911799999999999  0.99967  0.75023  1.0000
  C   C10       1.0  0.10882999999999997  0.99975  0.24987  1.0000
  C   C11       1.0  0.10887999999999996  0.9983299999999998  0.75202  1.0000
  C   C12       1.0  0.8911399999999999  0.9983299999999998  0.24798  1.0000
  C   C13       1.0  0.39118999999999987  0.99962  0.25029  1.0000
  C   C14       1.0  0.60882  0.9997899999999997  0.74993  1.0000
  C   C15       1.0  0.6089  0.9983  0.25206  1.0000
  C   C16       1.0  0.3911499999999999  0.9983899999999999  0.7480700000000001  1.0000
  C   C17       1.0  0.2937499999999999  0.26582999999999996  0.73787  1.0000
  C   C18       1.0  0.70908  0.26602  0.26399  1.0000
  C   C19       1.0  0.70949  0.26611  0.73412  1.0000
  C   C20       1.0  0.2807  0.26662  0.27068  1.0000
  C   C21       1.0  0.79512  0.26582  0.23902  1.0000
  C   C22       1.0  0.20805999999999997  0.26591999999999993  0.7632800000000001  1.0000
  C   C23       1.0  0.21177999999999997  0.26636999999999994  0.23249999999999998  1.0000
  C   C24       1.0  0.77246  0.26582  0.77582  1.0000
  C   C25       1.0  0.79393  0.7658  0.73811  1.0000
  C   C26       1.0  0.20506999999999997  0.76582  0.26054  1.0000
  C   C27       1.0  0.21091999999999994  0.76519  0.73496  1.0000
  C   C28       1.0  0.76507  0.76591  0.2782  1.0000
  C   C29       1.0  0.29229  0.76602  0.23708999999999997  1.0000
  C   C30       1.0  0.70809  0.76589  0.76332  1.0000
  C   C31       1.0  0.71378  0.76631  0.23108999999999996  1.0000
  C   C32       1.0  0.28768  0.7650199999999999  0.76761  1.0000
  C   C33       1.0  0.25091  0.2827299999999999  0.7505199999999999  1.0000
  C   C34       1.0  0.7521199999999999  0.28275  0.25139  1.0000
  C   C35       1.0  0.7416199999999997  0.28301999999999994  0.75474  1.0000
  C   C36       1.0  0.24619  0.28329999999999994  0.25147  1.0000
  C   C37       1.0  0.7510199999999998  0.78272  0.75067  1.0000
  C   C38       1.0  0.24860999999999994  0.7827499999999997  0.24888  1.0000
  C   C39       1.0  0.24928  0.7822599999999998  0.75139  1.0000
  C   C40       1.0  0.7401299999999998  0.7831599999999997  0.25451  1.0000
  C   C41       1.0  0.25063  0.21722999999999995  0.7504100000000001  1.0000
  C   C42       1.0  0.7514199999999999  0.21727  0.25106  1.0000
  C   C43       1.0  0.74212  0.21708999999999998  0.75406  1.0000
  C   C44       1.0  0.24646999999999997  0.21753  0.25176  1.0000
  C   C45       1.0  0.75067  0.7172  0.75048  1.0000
  C   C46       1.0  0.24933999999999995  0.71727  0.2493  1.0000
  C   C47       1.0  0.25033  0.71654  0.75028  1.0000
  C   C48       1.0  0.7413899999999999  0.7172299999999999  0.25351  1.0000
  C   C49       1.0  0.20642999999999997  0.33371  0.7409999999999999  1.0000
  C   C50       1.0  0.7955099999999999  0.3342399999999999  0.26033  1.0000
  C   C51       1.0  0.74999  0.33538999999999997  0.78067  1.0000
  C   C52       1.0  0.24426999999999993  0.33405  0.22309  1.0000
  C   C53       1.0  0.7075  0.33351  0.24114  1.0000
  C   C54       1.0  0.29487  0.33401999999999993  0.75952  1.0000
  C   C55       1.0  0.2494899999999999  0.3345699999999999  0.27886  1.0000
  C   C56       1.0  0.74011  0.3335699999999999  0.72525  1.0000
  C   C57       1.0  0.70651  0.8336899999999999  0.74111  1.0000
  C   C58       1.0  0.2925  0.8336199999999999  0.25973  1.0000
  C   C59       1.0  0.26249  0.8343999999999998  0.77756  1.0000
  C   C60       1.0  0.7482699999999999  0.83341  0.22503  1.0000
  C   C61       1.0  0.20549  0.8341499999999997  0.23901  1.0000
  C   C62       1.0  0.7949199999999998  0.8340299999999999  0.7596500000000002  1.0000
  C   C63       1.0  0.74029  0.83561  0.28076  1.0000
  C   C64       1.0  0.23757  0.83375  0.72401  1.0000
  C   C65       1.0  0.20560999999999993  0.36593  0.74192  1.0000
  C   C66       1.0  0.79549  0.3664499999999999  0.25902  1.0000
  C   C67       1.0  0.7557  0.3673199999999999  0.7791200000000001  1.0000
  C   C68       1.0  0.24315999999999993  0.3661499999999999  0.22286999999999998  1.0000
  C   C69       1.0  0.7063299999999998  0.36572999999999994  0.24183999999999997  1.0000
  C   C70       1.0  0.2951699999999999  0.36622  0.75839  1.0000
  C   C71       1.0  0.25321  0.36662  0.27837  1.0000
  C   C72       1.0  0.73889  0.3657  0.72432  1.0000
  C   C73       1.0  0.7056599999999998  0.86589  0.74198  1.0000
  C   C74       1.0  0.29351  0.86584  0.25901  1.0000
  C   C75       1.0  0.26604  0.8664099999999999  0.7765  1.0000
  C   C76       1.0  0.74795  0.8655299999999998  0.22376999999999997  1.0000
  C   C77       1.0  0.20525  0.8663599999999998  0.24028  1.0000
  C   C78       1.0  0.7952  0.86624  0.75846  1.0000
  C   C79       1.0  0.74597  0.86756  0.27965  1.0000
  C   C80       1.0  0.23419999999999994  0.86582  0.72425  1.0000
  C   C81       1.0  0.25026  0.38226  0.75011  1.0000
  C   C82       1.0  0.7506099999999998  0.38226  0.25029  1.0000
  C   C83       1.0  0.7484199999999999  0.38264  0.7511  1.0000
  C   C84       1.0  0.24893  0.38254  0.25043  1.0000
  C   C85       1.0  0.75029  0.8822599999999998  0.7501399999999999  1.0000
  C   C86       1.0  0.24957999999999997  0.8822699999999998  0.24978  1.0000
  C   C87       1.0  0.25005999999999995  0.88237  0.75021  1.0000
  C   C88       1.0  0.7482699999999999  0.88265  0.25113  1.0000
  C   C89       1.0  0.25077  0.31727  0.75033  1.0000
  C   C90       1.0  0.7517899999999998  0.3173  0.25091  1.0000
  C   C91       1.0  0.74378  0.3177  0.7536199999999998  1.0000
  C   C92       1.0  0.24642  0.31775999999999993  0.25116  1.0000
  C   C93       1.0  0.75085  0.8172599999999998  0.7504600000000001  1.0000
  C   C94       1.0  0.24879  0.8173099999999999  0.24923  1.0000
  C   C95       1.0  0.24975  0.81716  0.75105  1.0000
  C   C96       1.0  0.7427599999999999  0.81776  0.25351  1.0000
  C   C97       1.0  0.0302  0.4660999999999999  0.75883  1.0000
  C   C98       1.0  0.9699599999999999  0.46647  0.24007999999999996  1.0000
  C   C99       1.0  0.9704199999999997  0.46532  0.75652  1.0000
  C   C100      1.0  0.02985  0.4665  0.24021999999999996  1.0000
  C   C101      1.0  0.53004  0.46577999999999997  0.25827  1.0000
  C   C102      1.0  0.46994  0.46615999999999996  0.7408500000000001  1.0000
  C   C103      1.0  0.4700999999999999  0.46606999999999993  0.2587  1.0000
  C   C104      1.0  0.52986  0.46604  0.74128  1.0000
  C   C105      1.0  0.53007  0.9664  0.7597099999999999  1.0000
  C   C106      1.0  0.46994  0.9656799999999999  0.24243  1.0000
  C   C107      1.0  0.47024  0.96577  0.75805  1.0000
  C   C108      1.0  0.5298299999999999  0.9652099999999998  0.24383000000000002  1.0000
  C   C109      1.0  0.03013  0.96593  0.25838  1.0000
  C   C110      1.0  0.9699199999999999  0.96585  0.74188  1.0000
  C   C111      1.0  0.97028  0.9653399999999999  0.25667  1.0000
  C   C112      1.0  0.029799999999999997  0.96537  0.74326  1.0000
  C   C113      1.0  0.028379999999999996  0.52338  0.76852  1.0000
  C   C114      1.0  0.9712  0.52417  0.23283999999999996  1.0000
  C   C115      1.0  0.9688199999999998  0.5218199999999998  0.76911  1.0000
  C   C116      1.0  0.03077  0.5238899999999999  0.2331  1.0000
  C   C117      1.0  0.5291  0.52311  0.26788  1.0000
  C   C118      1.0  0.4713399999999999  0.52367  0.73232  1.0000
  C   C119      1.0  0.46953  0.5232199999999999  0.26746  1.0000
  C   C120      1.0  0.53088  0.5232199999999999  0.7325  1.0000
  C   C121      1.0  0.52846  0.023979999999999998  0.76766  1.0000
  C   C122      1.0  0.47163  0.022679999999999995  0.23124  1.0000
  C   C123      1.0  0.46889  0.022819999999999997  0.76802  1.0000
  C   C124      1.0  0.53117  0.02168  0.23116  1.0000
  C   C125      1.0  0.028399999999999998  0.023139999999999994  0.26849  1.0000
  C   C126      1.0  0.9715999999999998  0.02302  0.73154  1.0000
  C   C127      1.0  0.96886  0.02193  0.26877  1.0000
  C   C128      1.0  0.031149999999999997  0.022019999999999998  0.73142  1.0000
  C   C129      1.0  0.03400999999999999  0.5028599999999999  0.71342  1.0000
  C   C130      1.0  0.9668499999999999  0.50124  0.28702  1.0000
  C   C131      1.0  0.9726199999999999  0.5050099999999998  0.71289  1.0000
  C   C132      1.0  0.02855999999999999  0.5019  0.28751  1.0000
  C   C133      1.0  0.53272  0.50258  0.21273999999999998  1.0000
  C   C134      1.0  0.4668  0.50196  0.78703  1.0000
  C   C135      1.0  0.47103  0.50284  0.21243  1.0000
  C   C136      1.0  0.5284999999999999  0.50271  0.7875300000000001  1.0000
  C   C137      1.0  0.53369  0.00179  0.71315  1.0000
  C   C138      1.0  0.46657  0.0037099999999999998  0.28692  1.0000
  C   C139      1.0  0.47214  0.00339  0.71257  1.0000
  C   C140      1.0  0.5282  0.004839999999999999  0.28748  1.0000
  C   C141      1.0  0.03374  0.0030299999999999993  0.2132  1.0000
  C   C142      1.0  0.9664899999999997  0.00317  0.78693  1.0000
  C   C143      1.0  0.9721899999999998  0.00457  0.21266  1.0000
  C   C144      1.0  0.028119999999999996  0.004399999999999999  0.7874800000000001  1.0000
  C   C145      1.0  0.24997999999999995  0.50009  0.8340099999999999  1.0000
  C   C146      1.0  0.7499399999999998  0.5000299999999999  0.16597  1.0000
  C   C147      1.0  0.7493  0.49998999999999993  0.83402  1.0000
  C   C148      1.0  0.25073  0.49994999999999995  0.16601  1.0000
  C   C149      1.0  0.74985  0.50017  0.33399  1.0000
  C   C150      1.0  0.24996999999999994  0.50009  0.66598  1.0000
  C   C151      1.0  0.2494  0.50001  0.33398  1.0000
  C   C152      1.0  0.75047  0.50004  0.66599  1.0000
  C   C153      1.0  0.7499099999999997  0.0001  0.83399  1.0000
  C   C154      1.0  0.25017  0.00013  0.16603  1.0000
  C   C155      1.0  0.24941  0.0001  0.83404  1.0000
  C   C156      1.0  0.75058  5.999999999999999e-05  0.16596  1.0000
  C   C157      1.0  0.24992999999999999  9e-05  0.33398  1.0000
  C   C158      1.0  0.7501999999999999  0.00015999999999999999  0.66604  1.0000
  C   C159      1.0  0.74941  0.0001  0.33403  1.0000
  C   C160      1.0  0.25063  5e-05  0.66597  1.0000
  C   C161      1.0  0.05154  0.49773999999999996  0.7475799999999999  1.0000
  C   C162      1.0  0.9485699999999998  0.49752  0.25273  1.0000
  C   C163      1.0  0.94925  0.49724  0.74604  1.0000
  C   C164      1.0  0.05088  0.49734  0.2536  1.0000
  C   C165      1.0  0.55145  0.49728  0.24679999999999996  1.0000
  C   C166      1.0  0.4486  0.49752  0.7528000000000001  1.0000
  C   C167      1.0  0.4491  0.49732999999999994  0.24627000000000002  1.0000
  C   C168      1.0  0.5508999999999998  0.49724999999999997  0.75376  1.0000
  C   C169      1.0  0.55145  0.99768  0.74747  1.0000
  C   C170      1.0  0.44862  0.9976  0.25289  1.0000
  C   C171      1.0  0.44915999999999995  0.9972099999999999  0.7461500000000001  1.0000
  C   C172      1.0  0.55094  0.9971399999999999  0.25417  1.0000
  C   C173      1.0  0.051459999999999985  0.99765  0.24734  1.0000
  C   C174      1.0  0.9485999999999999  0.99761  0.7528000000000001  1.0000
  C   C175      1.0  0.9491599999999998  0.99717  0.24597  1.0000
  C   C176      1.0  0.05091  0.9971499999999999  0.75409  1.0000
  C   C177      1.0  0.1957  0.49939999999999996  0.38193  1.0000
  C   C178      1.0  0.80208  0.50104  0.61713  1.0000
  C   C179      1.0  0.7640399999999999  0.52949  0.38200999999999996  1.0000
  C   C180      1.0  0.23123  0.52788  0.61756  1.0000
  C   C181      1.0  0.69428  0.5005  0.88149  1.0000
  C   C182      1.0  0.30512999999999996  0.501  0.11832  1.0000
  C   C183      1.0  0.26658  0.52816  0.8825299999999999  1.0000
  C   C184      1.0  0.73116  0.5270999999999999  0.11708  1.0000
  C   C185      1.0  0.69644  0.00663  0.38175  1.0000
  C   C186      1.0  0.30519  0.00421  0.61847  1.0000
  C   C187      1.0  0.2647  0.02819  0.38266  1.0000
  C   C188      1.0  0.73866  0.029219999999999996  0.61761  1.0000
  C   C189      1.0  0.19609  0.005819999999999999  0.8818  1.0000
  C   C190      1.0  0.8044399999999998  0.00287  0.11809  1.0000
  C   C191      1.0  0.7644199999999998  0.02833  0.88269  1.0000
  C   C192      1.0  0.23861  0.028819999999999995  0.11730999999999998  1.0000
  C   C193      1.0  0.19061  0.4977199999999999  0.41388  1.0000
  C   C194      1.0  0.8058  0.50021  0.58512  1.0000
  C   C195      1.0  0.7647  0.5318399999999999  0.41399  1.0000
  C   C196      1.0  0.22859999999999994  0.52947  0.58558  1.0000
  C   C197      1.0  0.6878999999999997  0.49828999999999996  0.9133399999999999  1.0000
  C   C198      1.0  0.31097  0.4990999999999999  0.0864  1.0000
  C   C199      1.0  0.26913  0.52963  0.9145200000000001  1.0000
  C   C200      1.0  0.72764  0.52788  0.0851  1.0000
  C   C201      1.0  0.68939  0.00424  0.4135  1.0000
  C   C202      1.0  0.31232  0.00129  0.58673  1.0000
  C   C203      1.0  0.26735999999999993  0.029329999999999995  0.41467  1.0000
  C   C204      1.0  0.73679  0.03084  0.58559  1.0000
  C   C205      1.0  0.18914999999999998  0.00348  0.91357  1.0000
  C   C206      1.0  0.81068  0.0005999999999999998  0.08627  1.0000
  C   C207      1.0  0.76703  0.029539999999999993  0.9146999999999998  1.0000
  C   C208      1.0  0.2361  0.03006  0.08528  1.0000
  C   C209      1.0  0.23478999999999997  0.4986799999999999  0.43248  1.0000
  C   C210      1.0  0.7608  0.50071  0.56727  1.0000
  C   C211      1.0  0.75581  0.50581  0.43276  1.0000
  C   C212      1.0  0.23868  0.50332  0.56716  1.0000
  C   C213      1.0  0.7313899999999999  0.49731  0.9325  1.0000
  C   C214      1.0  0.26713  0.49773  0.06754  1.0000
  C   C215      1.0  0.26105  0.50314  0.93282  1.0000
  C   C216      1.0  0.7352799999999998  0.5009599999999998  0.06729  1.0000
  C   C217      1.0  0.7317  0.9981799999999998  0.43272  1.0000
  C   C218      1.0  0.26936  0.9967  0.56736  1.0000
  C   C219      1.0  0.26145  0.00238  0.43265  1.0000
  C   C220      1.0  0.7413799999999999  0.00402  0.56741  1.0000
  C   C221      1.0  0.23177  0.9983299999999998  0.9328099999999999  1.0000
  C   C222      1.0  0.76724  0.99803  0.06723  1.0000
  C   C223      1.0  0.7609399999999998  0.0026699999999999996  0.93259  1.0000
  C   C224      1.0  0.23969  0.0029599999999999995  0.06748  1.0000
  C   C225      1.0  0.28434  0.49828  0.41801  1.0000
  C   C226      1.0  0.71195  0.49883  0.58247  1.0000
  C   C227      1.0  0.74186  0.4778599999999999  0.41799  1.0000
  C   C228      1.0  0.25551  0.47612999999999994  0.58227  1.0000
  C   C229      1.0  0.7812999999999999  0.49551999999999996  0.91855  1.0000
  C   C230      1.0  0.21756  0.49519999999999986  0.08179  1.0000
  C   C231      1.0  0.24607  0.47566  0.91751  1.0000
  C   C232      1.0  0.7518299999999999  0.4739499999999999  0.08288  1.0000
  C   C233      1.0  0.7801899999999998  0.9911999999999999  0.4184  1.0000
  C   C234      1.0  0.21985999999999997  0.9915399999999999  0.58137  1.0000
  C   C235      1.0  0.24802  0.9747299999999999  0.41713  1.0000
  C   C236      1.0  0.7526899999999997  0.9759299999999997  0.58269  1.0000
  C   C237      1.0  0.28062  0.9922299999999998  0.91853  1.0000
  C   C238      1.0  0.71779  0.99434  0.08154  1.0000
  C   C239      1.0  0.7473199999999998  0.97505  0.9172  1.0000
  C   C240      1.0  0.25091  0.9750099999999999  0.08294  1.0000
  C   C241      1.0  0.28934  0.49742999999999993  0.38588999999999996  1.0000
  C   C242      1.0  0.7084699999999999  0.49728999999999995  0.61463  1.0000
  C   C243      1.0  0.73699  0.47622  0.38595000000000007  1.0000
  C   C244      1.0  0.26227  0.4753699999999999  0.61423  1.0000
  C   C245      1.0  0.78735  0.4951499999999999  0.88645  1.0000
  C   C246      1.0  0.21213  0.49465  0.11388999999999999  1.0000
  C   C247      1.0  0.2392  0.47494  0.8855699999999999  1.0000
  C   C248      1.0  0.7600899999999998  0.47401999999999994  0.11471  1.0000
  C   C249      1.0  0.7857799999999998  0.9904399999999999  0.38629  1.0000
  C   C250      1.0  0.21377999999999997  0.99131  0.61349  1.0000
  C   C251      1.0  0.24086999999999997  0.9742599999999998  0.38522  1.0000
  C   C252      1.0  0.75888  0.97486  0.61463  1.0000
  C   C253      1.0  0.28627  0.9914199999999997  0.88641  1.0000
  C   C254      1.0  0.71228  0.99366  0.11368  1.0000
  C   C255      1.0  0.74048  0.9744699999999998  0.8852900000000001  1.0000
  C   C256      1.0  0.25762  0.9742599999999998  0.11485  1.0000
  C   C257      1.0  0.24498999999999996  0.49881  0.36769  1.0000
  C   C258      1.0  0.75355  0.4993399999999999  0.63217  1.0000
  C   C259      1.0  0.7495699999999998  0.50182  0.36778  1.0000
  C   C260      1.0  0.24877  0.5010199999999999  0.63211  1.0000
  C   C261      1.0  0.74388  0.4984399999999999  0.86774  1.0000
  C   C262      1.0  0.2558  0.49845999999999996  0.13231  1.0000
  C   C263      1.0  0.25095  0.50098  0.86784  1.0000
  C   C264      1.0  0.7481  0.50033  0.13211  1.0000
  C   C265      1.0  0.74422  0.9990199999999998  0.36778  1.0000
  C   C266      1.0  0.25623  0.99851  0.63222  1.0000
  C   C267      1.0  0.25084  0.0007899999999999998  0.36776  1.0000
  C   C268      1.0  0.7501699999999998  0.0013299999999999998  0.63229  1.0000
  C   C269      1.0  0.24424999999999994  0.99904  0.86784  1.0000
  C   C270      1.0  0.7554999999999997  0.9987999999999999  0.13216  1.0000
  C   C271      1.0  0.75067  0.00089  0.86778  1.0000
  C   C272      1.0  0.24978  0.00101  0.13226  1.0000
  C   C273      1.0  0.26613  0.4826999999999999  0.48366  1.0000
  C   C274      1.0  0.72857  0.48514  0.51616  1.0000
  C   C275      1.0  0.72586  0.48746  0.48439  1.0000
  C   C276      1.0  0.26843  0.4848799999999999  0.51547  1.0000
  C   C277      1.0  0.7595299999999998  0.4791399999999999  0.9836499999999999  1.0000
  C   C278      1.0  0.23792999999999995  0.48037  0.0163  1.0000
  C   C279      1.0  0.23465999999999998  0.48285  0.9845399999999999  1.0000
  C   C280      1.0  0.76178  0.48089999999999994  0.015520000000000003  1.0000
  C   C281      1.0  0.75999  0.9799999999999999  0.48412  1.0000
  C   C282      1.0  0.24148999999999998  0.97832  0.51599  1.0000
  C   C283      1.0  0.23726999999999998  0.9810399999999998  0.48432  1.0000
  C   C284      1.0  0.7649799999999998  0.98287  0.51573  1.0000
  C   C285      1.0  0.25994  0.97991  0.98411  1.0000
  C   C286      1.0  0.73777  0.9805499999999998  0.01598  1.0000
  C   C287      1.0  0.73445  0.98279  0.98423  1.0000
  C   C288      1.0  0.26403  0.9822199999999998  0.01583  1.0000
  C   C289      1.0  0.23426  0.50387  0.53247  1.0000
  C   C290      1.0  0.7591299999999997  0.50702  0.46742  1.0000
  C   C291      1.0  0.7637499999999998  0.50282  0.53296  1.0000
  C   C292      1.0  0.23043999999999995  0.49994999999999995  0.46682  1.0000
  C   C293      1.0  0.7292799999999999  0.5007799999999999  0.03266  1.0000
  C   C294      1.0  0.26604  0.50347  0.9675399999999998  1.0000
  C   C295      1.0  0.27163  0.49897  0.03316  1.0000
  C   C296      1.0  0.726  0.4979199999999999  0.9668699999999999  1.0000
  C   C297      1.0  0.7359  0.00444  0.53285  1.0000
  C   C298      1.0  0.26727  0.00237  0.46726  1.0000
  C   C299      1.0  0.27446  0.99758  0.53285  1.0000
  C   C300      1.0  0.7272099999999998  0.9994  0.46732  1.0000
  C   C301      1.0  0.23385  0.0032  0.03303  1.0000
  C   C302      1.0  0.76644  0.00286  0.9671  1.0000
  C   C303      1.0  0.7720099999999998  0.9989899999999999  0.03274  1.0000
  C   C304      1.0  0.22698999999999994  0.99927  0.9673899999999999  1.0000
  C   C305      1.0  0.19748999999999997  0.52188  0.51575  1.0000
  C   C306      1.0  0.79471  0.52584  0.48412  1.0000
  C   C307      1.0  0.79831  0.5228899999999999  0.51673  1.0000
  C   C308      1.0  0.19443  0.5190699999999999  0.48307  1.0000
  C   C309      1.0  0.6931899999999998  0.5194899999999999  0.01612  1.0000
  C   C310      1.0  0.30102000000000007  0.5226999999999999  0.9842899999999999  1.0000
  C   C311      1.0  0.30512999999999996  0.51958  0.01689  1.0000
  C   C312      1.0  0.69099  0.5175999999999998  0.98327  1.0000
  C   C313      1.0  0.7014799999999999  0.02423  0.51648  1.0000
  C   C314      1.0  0.3021299999999999  0.02185  0.48377999999999993  1.0000
  C   C315      1.0  0.30723999999999996  0.01857  0.51629  1.0000
  C   C316      1.0  0.69535  0.02073  0.48408  1.0000
  C   C317      1.0  0.19868  0.02266  0.01687  1.0000
  C   C318      1.0  0.80268  0.02152  0.9834299999999999  1.0000
  C   C319      1.0  0.80665  0.01881  0.01608  1.0000
  C   C320      1.0  0.19395  0.019949999999999996  0.98426  1.0000
  C   C321      1.0  0.25003  0.58387  0.7499900000000002  1.0000
  C   C322      1.0  0.74993  0.58388  0.25002  1.0000
  C   C323      1.0  0.7500099999999998  0.58412  0.75001  1.0000
  C   C324      1.0  0.25001  0.58412  0.24999  1.0000
  C   C325      1.0  0.74992  0.08384999999999998  0.75003  1.0000
  C   C326      1.0  0.24989  0.08389999999999999  0.25006  1.0000
  C   C327      1.0  0.25001  0.08412  0.75001  1.0000
  C   C328      1.0  0.75001  0.08412  0.25001  1.0000
  C   C329      1.0  0.25002  0.41601  0.75001  1.0000
  C   C330      1.0  0.75004  0.41601999999999995  0.25002  1.0000
  C   C331      1.0  0.7499099999999997  0.41622999999999993  0.7500699999999999  1.0000
  C   C332      1.0  0.24988  0.41618999999999995  0.25004  1.0000
  C   C333      1.0  0.7500199999999998  0.9160099999999999  0.75001  1.0000
  C   C334      1.0  0.24996999999999994  0.9160199999999998  0.24999  1.0000
  C   C335      1.0  0.25005999999999995  0.91613  0.7499900000000002  1.0000
  C   C336      1.0  0.74993  0.91624  0.25005  1.0000
  C   C337      1.0  0.22736  0.13432  0.7747899999999999  1.0000
  C   C338      1.0  0.77355  0.13448999999999997  0.22578  1.0000
  C   C339      1.0  0.78361  0.13388  0.76871  1.0000
  C   C340      1.0  0.20984  0.13376  0.2354  1.0000
  C   C341      1.0  0.7272499999999998  0.13427999999999998  0.27488  1.0000
  C   C342      1.0  0.2729999999999999  0.1344  0.72547  1.0000
  C   C343      1.0  0.28725  0.13406  0.26622  1.0000
  C   C344      1.0  0.71174  0.13344999999999999  0.73353  1.0000
  C   C345      1.0  0.7273199999999999  0.63431  0.7748  1.0000
  C   C346      1.0  0.27408  0.63431  0.22561  1.0000
  C   C347      1.0  0.27369  0.63367  0.7740699999999999  1.0000
  C   C348      1.0  0.71609  0.63365  0.23053  1.0000
  C   C349      1.0  0.22573999999999994  0.63448  0.27403  1.0000
  C   C350      1.0  0.77304  0.6344099999999999  0.7255  1.0000
  C   C351      1.0  0.7793799999999997  0.6340299999999999  0.27122  1.0000
  C   C352      1.0  0.22682999999999998  0.63383  0.72591  1.0000
  C   C353      1.0  0.22792  0.16649  0.7750399999999998  1.0000
  C   C354      1.0  0.77353  0.16667999999999997  0.22591  1.0000
  C   C355      1.0  0.7822299999999998  0.16594  0.76935  1.0000
  C   C356      1.0  0.20818999999999996  0.1658  0.23643000000000003  1.0000
  C   C357      1.0  0.72801  0.16645  0.2753  1.0000
  C   C358      1.0  0.27276  0.16658  0.72543  1.0000
  C   C359      1.0  0.28695  0.16613999999999998  0.26626  1.0000
  C   C360      1.0  0.70883  0.16542  0.7351  1.0000
  C   C361      1.0  0.72789  0.6664699999999999  0.7750599999999999  1.0000
  C   C362      1.0  0.27358  0.66649  0.2253  1.0000
  C   C363      1.0  0.273  0.66569  0.77443  1.0000
  C   C364      1.0  0.71297  0.66562  0.23182  1.0000
  C   C365      1.0  0.22595999999999997  0.66667  0.274  1.0000
  C   C366      1.0  0.7728199999999998  0.6665799999999998  0.72548  1.0000
  C   C367      1.0  0.7778499999999999  0.66609  0.27179  1.0000
  C   C368      1.0  0.22782999999999995  0.66587  0.72563  1.0000
  C   C369      1.0  0.25043  0.18298999999999999  0.7502899999999999  1.0000
  C   C370      1.0  0.75097  0.18301999999999993  0.25075  1.0000
  C   C371      1.0  0.74426  0.18253  0.7529099999999999  1.0000
  C   C372      1.0  0.24715  0.18286  0.25154  1.0000
  C   C373      1.0  0.75045  0.68298  0.7503399999999999  1.0000
  C   C374      1.0  0.24967999999999999  0.6830299999999999  0.24955  1.0000
  C   C375      1.0  0.25049  0.6822899999999998  0.7500699999999999  1.0000
  C   C376      1.0  0.7439499999999998  0.68268  0.25243  1.0000
  C   C377      1.0  0.2501  0.11805  0.75008  1.0000
  C   C378      1.0  0.75023  0.11807  0.2502  1.0000
  C   C379      1.0  0.7486499999999998  0.1175  0.75063  1.0000
  C   C380      1.0  0.24909999999999996  0.11768  0.25049  1.0000
  C   C381      1.0  0.7501  0.61804  0.7500899999999999  1.0000
  C   C382      1.0  0.24994999999999998  0.61808  0.2499  1.0000
  C   C383      1.0  0.25016  0.61755  0.74998  1.0000
  C   C384      1.0  0.7487599999999998  0.61763  0.25048  1.0000
  C   C385      1.0  0.2932199999999999  0.23353  0.73846  1.0000
  C   C386      1.0  0.7090299999999999  0.23370999999999995  0.26309  1.0000
  C   C387      1.0  0.71227  0.23392999999999997  0.73316  1.0000
  C   C388      1.0  0.2787  0.23441999999999993  0.27149  1.0000
  C   C389      1.0  0.79435  0.23351  0.23946  1.0000
  C   C390      1.0  0.20826  0.23361999999999997  0.7625199999999999  1.0000
  C   C391      1.0  0.21400999999999998  0.23415999999999995  0.23196  1.0000
  C   C392      1.0  0.7701499999999999  0.23361999999999997  0.77605  1.0000
  C   C393      1.0  0.79334  0.7335  0.73864  1.0000
  C   C394      1.0  0.20588  0.73351  0.26016  1.0000
  C   C395      1.0  0.21095000000000003  0.7329399999999999  0.73576  1.0000
  C   C396      1.0  0.7633099999999998  0.73373  0.27798  1.0000
  C   C397      1.0  0.29229  0.7336999999999999  0.23801999999999998  1.0000
  C   C398      1.0  0.7082599999999998  0.73359  0.7625399999999999  1.0000
  C   C399      1.0  0.71698  0.73417  0.23018  1.0000
  C   C400      1.0  0.28902  0.73286  0.76546  1.0000
  H   H1        1.0  0.20974  0.12222  0.7941599999999999  1.0000
  H   H2        1.0  0.79127  0.12250999999999997  0.20635999999999996  1.0000
  H   H3        1.0  0.8124299999999999  0.12199999999999997  0.7822799999999999  1.0000
  H   H4        1.0  0.17976  0.12157  0.22312999999999997  1.0000
  H   H5        1.0  0.7093  0.12211999999999998  0.29412  1.0000
  H   H6        1.0  0.29051  0.12235999999999998  0.70602  1.0000
  H   H7        1.0  0.31791  0.12209999999999999  0.2782  1.0000
  H   H8        1.0  0.6844  0.12124  0.7192  1.0000
  H   H9        1.0  0.70968  0.62219  0.7941599999999999  1.0000
  H   H10       1.0  0.29278  0.62219  0.20661  1.0000
  H   H11       1.0  0.29194  0.62154  0.7929499999999999  1.0000
  H   H12       1.0  0.6923399999999997  0.62149  0.21402  1.0000
  H   H13       1.0  0.20712  0.62248  0.29314  1.0000
  H   H14       1.0  0.79058  0.62237  0.70606  1.0000
  H   H15       1.0  0.8047800000000002  0.62213  0.28705  1.0000
  H   H16       1.0  0.20842  0.6218199999999999  0.70702  1.0000
  H   H17       1.0  0.047699999999999985  0.52634  0.70667  1.0000
  H   H18       1.0  0.9546699999999999  0.5248899999999999  0.29417  1.0000
  H   H19       1.0  0.96342  0.52979  0.70888  1.0000
  H   H20       1.0  0.03933  0.52582  0.29436  1.0000
  H   H21       1.0  0.54484  0.52648  0.20646  1.0000
  H   H22       1.0  0.45473999999999987  0.5258  0.7936  1.0000
  H   H23       1.0  0.45978  0.52681  0.20607999999999999  1.0000
  H   H24       1.0  0.53926  0.52681  0.7937  1.0000
  H   H25       1.0  0.54673  0.025289999999999997  0.70602  1.0000
  H   H26       1.0  0.4542899999999999  0.027779999999999996  0.29241  1.0000
  H   H27       1.0  0.46235999999999994  0.027879999999999995  0.70723  1.0000
  H   H28       1.0  0.53864  0.02939  0.29187  1.0000
  H   H29       1.0  0.04660999999999999  0.026809999999999994  0.20699  1.0000
  H   H30       1.0  0.9540499999999997  0.027099999999999992  0.7928499999999999  1.0000
  H   H31       1.0  0.96229  0.02918  0.20818999999999996  1.0000
  H   H32       1.0  0.03842  0.028909999999999998  0.79218  1.0000
  H   H33       1.0  0.041  0.54648  0.7600499999999999  1.0000
  H   H34       1.0  0.9569399999999998  0.5468099999999999  0.24164  1.0000
  H   H35       1.0  0.9527099999999998  0.54495  0.76345  1.0000
  H   H36       1.0  0.04520999999999999  0.54651  0.24162  1.0000
  H   H37       1.0  0.54381  0.54606  0.26021  1.0000
  H   H38       1.0  0.45728  0.54653  0.74067  1.0000
  H   H39       1.0  0.45552  0.54614  0.25948  1.0000
  H   H40       1.0  0.54556  0.54606  0.7402800000000002  1.0000
  H   H41       1.0  0.5416  0.046819999999999994  0.75869  1.0000
  H   H42       1.0  0.45824999999999994  0.04597  0.23872  1.0000
  H   H43       1.0  0.45328  0.04574  0.7611  1.0000
  H   H44       1.0  0.54655  0.0449  0.23713  1.0000
  H   H45       1.0  0.0415  0.04629  0.2604  1.0000
  H   H46       1.0  0.9582299999999998  0.04619  0.7394000000000001  1.0000
  H   H47       1.0  0.9532  0.04506999999999999  0.26271  1.0000
  H   H48       1.0  0.04654  0.04515  0.73772  1.0000
  H   H49       1.0  0.16086  0.50084  0.36847  1.0000
  H   H50       1.0  0.83748  0.50265  0.62986  1.0000
  H   H51       1.0  0.77383  0.5497  0.36837  1.0000
  H   H52       1.0  0.22038999999999995  0.5481  0.63091  1.0000
  H   H53       1.0  0.6600899999999998  0.50349  0.8676999999999999  1.0000
  H   H54       1.0  0.33946  0.50413  0.13198  1.0000
  H   H55       1.0  0.27593  0.54868  0.8692500000000001  1.0000
  H   H56       1.0  0.72161  0.54784  0.13005  1.0000
  H   H57       1.0  0.66389  0.013979999999999998  0.36814  1.0000
  H   H58       1.0  0.33848  0.01069  0.63215  1.0000
  H   H59       1.0  0.27257999999999993  0.04907  0.36953  1.0000
  H   H60       1.0  0.732  0.05006  0.63093  1.0000
  H   H61       1.0  0.16316999999999998  0.012519999999999996  0.86818  1.0000
  H   H62       1.0  0.83836  0.0074399999999999996  0.13157  1.0000
  H   H63       1.0  0.77236  0.049139999999999996  0.86958  1.0000
  H   H64       1.0  0.23265999999999998  0.04986  0.13043  1.0000
  H   H65       1.0  0.15193000000000004  0.49603  0.42378  1.0000
  H   H66       1.0  0.84414  0.49947999999999987  0.57462  1.0000
  H   H67       1.0  0.77122  0.55446  0.42324999999999996  1.0000
  H   H68       1.0  0.21973999999999996  0.55167  0.57605  1.0000
  H   H69       1.0  0.64877  0.4976799999999999  0.92272  1.0000
  H   H70       1.0  0.34993  0.49901  0.07678  1.0000
  H   H71       1.0  0.27635  0.55201  0.92407  1.0000
  H   H72       1.0  0.7200599999999999  0.55008  0.07497  1.0000
  H   H73       1.0  0.65045  0.00712  0.42233999999999994  1.0000
  H   H74       1.0  0.35169999999999996  0.0029  0.57784  1.0000
  H   H75       1.0  0.2731  0.05175  0.42458000000000007  1.0000
  H   H76       1.0  0.73262  0.05342999999999999  0.5758  1.0000
  H   H77       1.0  0.15007999999999994  0.00569  0.92248  1.0000
  H   H78       1.0  0.84978  0.00101  0.07702  1.0000
  H   H79       1.0  0.77295  0.05185999999999999  0.9249  1.0000
  H   H80       1.0  0.23204999999999998  0.05249999999999999  0.075  1.0000
  H   H81       1.0  0.31945  0.49884  0.43149  1.0000
  H   H82       1.0  0.6762299999999999  0.49873  0.56954  1.0000
  H   H83       1.0  0.73481  0.45692999999999995  0.431  1.0000
  H   H84       1.0  0.26353  0.45511  0.56961  1.0000
  H   H85       1.0  0.8159099999999999  0.49455999999999994  0.9324399999999999  1.0000
  H   H86       1.0  0.18269999999999997  0.49389  0.06816  1.0000
  H   H87       1.0  0.23978999999999995  0.45430999999999994  0.92993  1.0000
  H   H88       1.0  0.75852  0.45246999999999993  0.07071  1.0000
  H   H89       1.0  0.81438  0.9865199999999997  0.43182999999999994  1.0000
  H   H90       1.0  0.18537  0.9878699999999999  0.56764  1.0000
  H   H91       1.0  0.24325999999999995  0.9530899999999999  0.42937  1.0000
  H   H92       1.0  0.75636  0.95443  0.5702  1.0000
  H   H93       1.0  0.31497999999999987  0.9882099999999999  0.93204  1.0000
  H   H94       1.0  0.68296  0.99214  0.06801  1.0000
  H   H95       1.0  0.7420999999999998  0.9536199999999999  0.92964  1.0000
  H   H96       1.0  0.2542  0.9534199999999999  0.07053  1.0000
  H   H97       1.0  0.3277299999999999  0.49679  0.37528000000000006  1.0000
  H   H98       1.0  0.67061  0.49551  0.62579  1.0000
  H   H99       1.0  0.72516  0.4546899999999999  0.37541  1.0000
  H   H100      1.0  0.27632  0.4544199999999999  0.62496  1.0000
  H   H101      1.0  0.8259499999999999  0.49336  0.87627  1.0000
  H   H102      1.0  0.17377999999999993  0.4923199999999999  0.12429000000000001  1.0000
  H   H103      1.0  0.22663  0.45373  0.8747  1.0000
  H   H104      1.0  0.77396  0.45319  0.1258  1.0000
  H   H105      1.0  0.8229099999999999  0.9842199999999999  0.376  1.0000
  H   H106      1.0  0.17569  0.9865799999999998  0.6236  1.0000
  H   H107      1.0  0.22961  0.9528899999999998  0.37414  1.0000
  H   H108      1.0  0.7683499999999998  0.95312  0.62557  1.0000
  H   H109      1.0  0.32376  0.9859  0.8761500000000001  1.0000
  H   H110      1.0  0.6741599999999998  0.99019  0.12406  1.0000
  H   H111      1.0  0.72915  0.95312  0.8742300000000001  1.0000
  H   H112      1.0  0.26685999999999993  0.9525899999999999  0.12598  1.0000
  H   H113      1.0  0.2932  0.4672799999999999  0.47208  1.0000
  H   H114      1.0  0.7025599999999997  0.4690799999999999  0.52772  1.0000
  H   H115      1.0  0.69623  0.47394  0.4732  1.0000
  H   H116      1.0  0.29881  0.47192  0.52658  1.0000
  H   H117      1.0  0.78525  0.46301999999999993  0.97196  1.0000
  H   H118      1.0  0.21302  0.46370999999999996  0.02785  1.0000
  H   H119      1.0  0.20554999999999998  0.46882  0.97355  1.0000
  H   H120      1.0  0.7910399999999997  0.4669699999999999  0.02649  1.0000
  H   H121      1.0  0.78279  0.96225  0.47276  1.0000
  H   H122      1.0  0.21775999999999995  0.9609599999999999  0.52743  1.0000
  H   H123      1.0  0.20852  0.9666  0.47343  1.0000
  H   H124      1.0  0.79335  0.96818  0.5266  1.0000
  H   H125      1.0  0.28357  0.9626399999999998  0.9726099999999999  1.0000
  H   H126      1.0  0.71253  0.9640999999999997  0.027529999999999995  1.0000
  H   H127      1.0  0.70508  0.9689299999999998  0.97323  1.0000
  H   H128      1.0  0.29248  0.96765  0.02678  1.0000
  H   H129      1.0  0.21130999999999994  0.17835999999999996  0.79483  1.0000
  H   H130      1.0  0.79065  0.17868999999999996  0.20635  1.0000
  H   H131      1.0  0.8118099999999998  0.17696999999999996  0.78278  1.0000
  H   H132      1.0  0.17556  0.17646  0.22541  1.0000
  H   H133      1.0  0.7112  0.17825  0.29507  1.0000
  H   H134      1.0  0.28952  0.17851999999999998  0.70572  1.0000
  H   H135      1.0  0.31882  0.17711  0.27775  1.0000
  H   H136      1.0  0.67796  0.1759  0.72228  1.0000
  H   H137      1.0  0.71124  0.6783299999999999  0.7948500000000001  1.0000
  H   H138      1.0  0.29131999999999997  0.67832  0.20582  1.0000
  H   H139      1.0  0.28961  0.6771499999999999  0.7941599999999999  1.0000
  H   H140      1.0  0.6854099999999999  0.67618  0.21659  1.0000
  H   H141      1.0  0.20805999999999997  0.67866  0.29333  1.0000
  H   H142      1.0  0.78961  0.6785399999999999  0.70579  1.0000
  H   H143      1.0  0.80398  0.67717  0.28754  1.0000
  H   H144      1.0  0.21118999999999993  0.67752  0.70601  1.0000
  H   H145      1.0  0.32656  0.22106  0.72933  1.0000
  H   H146      1.0  0.67547  0.22135999999999997  0.27209  1.0000
  H   H147      1.0  0.69007  0.2226  0.71555  1.0000
  H   H148      1.0  0.30363  0.22305  0.28774  1.0000
  H   H149      1.0  0.82778  0.22099  0.23052  1.0000
  H   H150      1.0  0.17486  0.22121999999999997  0.77167  1.0000
  H   H151      1.0  0.18927  0.22261999999999998  0.21572  1.0000
  H   H152      1.0  0.79158  0.22197999999999998  0.7938100000000001  1.0000
  H   H153      1.0  0.8267299999999997  0.72102  0.72958  1.0000
  H   H154      1.0  0.17204  0.72099  0.26853  1.0000
  H   H155      1.0  0.17949  0.72082  0.72469  1.0000
  H   H156      1.0  0.78006  0.7219499999999999  0.29747  1.0000
  H   H157      1.0  0.32626  0.72134  0.22962  1.0000
  H   H158      1.0  0.67481  0.72119  0.77162  1.0000
  H   H159      1.0  0.69945  0.7228399999999999  0.2107  1.0000
  H   H160      1.0  0.32058  0.7207299999999998  0.7764099999999999  1.0000
  H   H161      1.0  0.17213999999999996  0.32175  0.73314  1.0000
  H   H162      1.0  0.8298699999999999  0.3227  0.26868  1.0000
  H   H163      1.0  0.7501299999999997  0.32506999999999997  0.80329  1.0000
  H   H164      1.0  0.24350999999999995  0.32211  0.20121999999999998  1.0000
  H   H165      1.0  0.67348  0.3213599999999999  0.23315  1.0000
  H   H166      1.0  0.32931  0.3223  0.76751  1.0000
  H   H167      1.0  0.24962  0.32306  0.30103  1.0000
  H   H168      1.0  0.7383  0.3215299999999999  0.70351  1.0000
  H   H169      1.0  0.6722299999999999  0.82171  0.73324  1.0000
  H   H170      1.0  0.32617  0.8215599999999997  0.26833  1.0000
  H   H171      1.0  0.26927  0.82378  0.79955  1.0000
  H   H172      1.0  0.75286  0.82108  0.20349  1.0000
  H   H173      1.0  0.17162999999999998  0.82254  0.23009  1.0000
  H   H174      1.0  0.8293599999999998  0.8223499999999999  0.76768  1.0000
  H   H175      1.0  0.7335699999999999  0.8252899999999997  0.30312  1.0000
  H   H176      1.0  0.23067999999999997  0.8223699999999998  0.70232  1.0000
  H   H177      1.0  0.17049999999999998  0.3780899999999999  0.73558  1.0000
  H   H178      1.0  0.83012  0.37900999999999996  0.26549  1.0000
  H   H179      1.0  0.76376  0.38008999999999993  0.80007  1.0000
  H   H180      1.0  0.23925  0.3781899999999999  0.20108  1.0000
  H   H181      1.0  0.67125  0.37772  0.23517  1.0000
  H   H182      1.0  0.33007999999999993  0.37862  0.76465  1.0000
  H   H183      1.0  0.2579  0.37900999999999996  0.29993  1.0000
  H   H184      1.0  0.7322499999999997  0.37721999999999994  0.70248  1.0000
  H   H185      1.0  0.67055  0.8780399999999998  0.73563  1.0000
  H   H186      1.0  0.32818  0.87792  0.26625  1.0000
  H   H187      1.0  0.27948  0.8787  0.79674  1.0000
  H   H188      1.0  0.7490899999999998  0.87698  0.20149000000000003  1.0000
  H   H189      1.0  0.17091  0.87884  0.2332  1.0000
  H   H190      1.0  0.8300999999999997  0.8786599999999999  0.7647099999999999  1.0000
  H   H191      1.0  0.74659  0.8805999999999998  0.30106  1.0000
  H   H192      1.0  0.22088999999999995  0.87765  0.70371  1.0000
  H   H193      1.0  0.04114999999999997  0.46211  0.78328  1.0000
  H   H194      1.0  0.9567799999999999  0.46263999999999994  0.21601  1.0000
  H   H195      1.0  0.95384  0.45886  0.77949  1.0000
  H   H196      1.0  0.04433  0.4632299999999999  0.21609  1.0000
  H   H197      1.0  0.54378  0.46080999999999994  0.28201  1.0000
  H   H198      1.0  0.45704  0.46190999999999993  0.7168  1.0000
  H   H199      1.0  0.45622999999999997  0.46235  0.28289  1.0000
  H   H200      1.0  0.54465  0.46190999999999993  0.71736  1.0000
  H   H201      1.0  0.54167  0.9629199999999998  0.78414  1.0000
  H   H202      1.0  0.45802  0.96073  0.21832999999999997  1.0000
  H   H203      1.0  0.45426000000000005  0.9606199999999999  0.7815399999999999  1.0000
  H   H204      1.0  0.54556  0.9590299999999999  0.22057  1.0000
  H   H205      1.0  0.04172  0.9615299999999999  0.28265  1.0000
  H   H206      1.0  0.95799  0.9612399999999999  0.71771  1.0000
  H   H207      1.0  0.95425  0.9592999999999999  0.27989  1.0000
  H   H208      1.0  0.04551  0.95956  0.7199  1.0000
  H   H209      1.0  0.04734  0.44697  0.7449399999999999  1.0000
  H   H210      1.0  0.9548999999999997  0.44697  0.2543  1.0000
  H   H211      1.0  0.9587099999999998  0.44699  0.7401899999999999  1.0000
  H   H212      1.0  0.04411999999999999  0.44648  0.25356  1.0000
  H   H213      1.0  0.54457  0.44686999999999993  0.24310999999999997  1.0000
  H   H214      1.0  0.45461  0.44695  0.75536  1.0000
  H   H215      1.0  0.4551799999999999  0.4464  0.24514  1.0000
  H   H216      1.0  0.54379  0.44648  0.75541  1.0000
  H   H217      1.0  0.54655  0.94688  0.74609  1.0000
  H   H218      1.0  0.4537199999999999  0.9469799999999999  0.25723  1.0000
  H   H219      1.0  0.45774999999999993  0.9466099999999997  0.74288  1.0000
  H   H220      1.0  0.5426399999999999  0.94681  0.25978  1.0000
  H   H221      1.0  0.04666  0.9469399999999998  0.24406  1.0000
  H   H222      1.0  0.9537  0.9469499999999997  0.75643  1.0000
  H   H223      1.0  0.95784  0.94681  0.24077  1.0000
  H   H224      1.0  0.04261999999999999  0.9467199999999999  0.75892  1.0000
  H   H225      1.0  0.042850000000000006  0.52086  0.79252  1.0000
  H   H226      1.0  0.95787  0.52194  0.20856999999999998  1.0000
  H   H227      1.0  0.9551  0.51601  0.79293  1.0000
  H   H228      1.0  0.04582  0.52109  0.20901  1.0000
  H   H229      1.0  0.54223  0.51963  0.29205  1.0000
  H   H230      1.0  0.45787  0.5209699999999999  0.70812  1.0000
  H   H231      1.0  0.45428  0.51993  0.29146  1.0000
  H   H232      1.0  0.5457699999999999  0.51963  0.70847  1.0000
  H   H233      1.0  0.54259  0.021949999999999997  0.79178  1.0000
  H   H234      1.0  0.45774  0.01913  0.20724  1.0000
  H   H235      1.0  0.45476  0.01831  0.79207  1.0000
  H   H236      1.0  0.54555  0.0162  0.20737999999999998  1.0000
  H   H237      1.0  0.04250999999999999  0.0202  0.29252  1.0000
  H   H238      1.0  0.9577  0.01985  0.70749  1.0000
  H   H239      1.0  0.9547099999999998  0.016539999999999996  0.29262  1.0000
  H   H240      1.0  0.04551999999999999  0.01687  0.70758  1.0000
  O   O1        1.0  0.25  0.5000299999999999  0.75  1.0000
  O   O2        1.0  0.75  0.5000299999999999  0.25  1.0000
  O   O3        1.0  0.75  0.5000299999999999  0.75  1.0000
  O   O4        1.0  0.25  0.5000299999999999  0.25  1.0000
  O   O5        1.0  0.75  2.9999999999999994e-05  0.75  1.0000
  O   O6        1.0  0.25  2.9999999999999994e-05  0.25  1.0000
  O   O7        1.0  0.25  2.9999999999999994e-05  0.75  1.0000
  O   O8        1.0  0.75  2.9999999999999994e-05  0.25  1.0000
  O   O9        1.0  0.36684  0.48185  0.73187  1.0000
  O   O10       1.0  0.63316  0.48185  0.26813  1.0000
  O   O11       1.0  0.63316  0.48185  0.73187  1.0000
  O   O12       1.0  0.36684  0.48185  0.26813  1.0000
  O   O13       1.0  0.86684  0.48185  0.23187  1.0000
  O   O14       1.0  0.13316  0.48185  0.76813  1.0000
  O   O15       1.0  0.13316  0.48185  0.23187  1.0000
  O   O16       1.0  0.86684  0.48185  0.76813  1.0000
  O   O17       1.0  0.86684  0.9818499999999999  0.73187  1.0000
  O   O18       1.0  0.13316  0.9818499999999999  0.26813  1.0000
  O   O19       1.0  0.13316  0.9818499999999999  0.73187  1.0000
  O   O20       1.0  0.86684  0.9818499999999999  0.26813  1.0000
  O   O21       1.0  0.36684  0.9818499999999999  0.23187  1.0000
  O   O22       1.0  0.63316  0.9818499999999999  0.76813  1.0000
  O   O23       1.0  0.63316  0.9818499999999999  0.23187  1.0000
  O   O24       1.0  0.36684  0.9818499999999999  0.76813  1.0000
  O   O25       1.0  0.28062  0.51821  0.8193199999999999  1.0000
  O   O26       1.0  0.71938  0.51821  0.18068  1.0000
  O   O27       1.0  0.71938  0.51821  0.8193199999999999  1.0000
  O   O28       1.0  0.28062  0.51821  0.18068  1.0000
  O   O29       1.0  0.78062  0.51821  0.31932  1.0000
  O   O30       1.0  0.21937999999999996  0.51821  0.68068  1.0000
  O   O31       1.0  0.21937999999999996  0.51821  0.31932  1.0000
  O   O32       1.0  0.78062  0.51821  0.68068  1.0000
  O   O33       1.0  0.78062  0.01821  0.8193199999999999  1.0000
  O   O34       1.0  0.21937999999999996  0.01821  0.18068  1.0000
  O   O35       1.0  0.21937999999999996  0.01821  0.8193199999999999  1.0000
  O   O36       1.0  0.78062  0.01821  0.18068  1.0000
  O   O37       1.0  0.28062  0.01821  0.31932  1.0000
  O   O38       1.0  0.71938  0.01821  0.68068  1.0000
  O   O39       1.0  0.71938  0.01821  0.31932  1.0000
  O   O40       1.0  0.28062  0.01821  0.68068  1.0000
  O   O41       1.0  0.28061  0.5693199999999999  0.7682  1.0000
  O   O42       1.0  0.71939  0.5693199999999999  0.2318  1.0000
  O   O43       1.0  0.71939  0.5693199999999999  0.7682  1.0000
  O   O44       1.0  0.28061  0.5693199999999999  0.2318  1.0000
  O   O45       1.0  0.78061  0.5693199999999999  0.2682  1.0000
  O   O46       1.0  0.21938999999999995  0.5693199999999999  0.7318  1.0000
  O   O47       1.0  0.21938999999999995  0.5693199999999999  0.2682  1.0000
  O   O48       1.0  0.78061  0.5693199999999999  0.7318  1.0000
  O   O49       1.0  0.78061  0.06932  0.7682  1.0000
  O   O50       1.0  0.21938999999999995  0.06932  0.2318  1.0000
  O   O51       1.0  0.21938999999999995  0.06932  0.7682  1.0000
  O   O52       1.0  0.78061  0.06932  0.2318  1.0000
  O   O53       1.0  0.28061  0.06932  0.2682  1.0000
  O   O54       1.0  0.71939  0.06932  0.7318  1.0000
  O   O55       1.0  0.71939  0.06932  0.2682  1.0000
  O   O56       1.0  0.28061  0.06932  0.7318  1.0000
  O   O57       1.0  0.28065  0.4307299999999999  0.73186  1.0000
  O   O58       1.0  0.71935  0.4307299999999999  0.26814  1.0000
  O   O59       1.0  0.71935  0.4307299999999999  0.73186  1.0000
  O   O60       1.0  0.28065  0.4307299999999999  0.26814  1.0000
  O   O61       1.0  0.78065  0.4307299999999999  0.23186  1.0000
  O   O62       1.0  0.21935  0.4307299999999999  0.76814  1.0000
  O   O63       1.0  0.21935  0.4307299999999999  0.23186  1.0000
  O   O64       1.0  0.78065  0.4307299999999999  0.76814  1.0000
  O   O65       1.0  0.78065  0.93073  0.73186  1.0000
  O   O66       1.0  0.21935  0.93073  0.26814  1.0000
  O   O67       1.0  0.21935  0.93073  0.73186  1.0000
  O   O68       1.0  0.78065  0.93073  0.26814  1.0000
  O   O69       1.0  0.28065  0.93073  0.23186  1.0000
  O   O70       1.0  0.71935  0.93073  0.76814  1.0000
  O   O71       1.0  0.71935  0.93073  0.23186  1.0000
  O   O72       1.0  0.28065  0.93073  0.76814  1.0000
  O   O73       1.0  0.21936999999999998  0.48187999999999986  0.8193199999999999  1.0000
  O   O74       1.0  0.7806299999999999  0.48187999999999986  0.18068  1.0000
  O   O75       1.0  0.7806299999999999  0.48187999999999986  0.8193199999999999  1.0000
  O   O76       1.0  0.21936999999999998  0.48187999999999986  0.18068  1.0000
  O   O77       1.0  0.7193699999999997  0.48187999999999986  0.31932  1.0000
  O   O78       1.0  0.28063  0.48187999999999986  0.68068  1.0000
  O   O79       1.0  0.28063  0.48187999999999986  0.31932  1.0000
  O   O80       1.0  0.7193699999999997  0.48187999999999986  0.68068  1.0000
  O   O81       1.0  0.7193699999999997  0.9818799999999998  0.8193199999999999  1.0000
  O   O82       1.0  0.28063  0.9818799999999998  0.18068  1.0000
  O   O83       1.0  0.28063  0.9818799999999998  0.8193199999999999  1.0000
  O   O84       1.0  0.7193699999999997  0.9818799999999998  0.18068  1.0000
  O   O85       1.0  0.21936999999999998  0.9818799999999998  0.31932  1.0000
  O   O86       1.0  0.7806299999999999  0.9818799999999998  0.68068  1.0000
  O   O87       1.0  0.7806299999999999  0.9818799999999998  0.31932  1.0000
  O   O88       1.0  0.21936999999999998  0.9818799999999998  0.68068  1.0000
  O   O89       1.0  0.3668299999999999  0.51819  0.7682  1.0000
  O   O90       1.0  0.6331699999999999  0.51819  0.2318  1.0000
  O   O91       1.0  0.6331699999999999  0.51819  0.7682  1.0000
  O   O92       1.0  0.3668299999999999  0.51819  0.2318  1.0000
  O   O93       1.0  0.86683  0.51819  0.2682  1.0000
  O   O94       1.0  0.13317  0.51819  0.7318  1.0000
  O   O95       1.0  0.13317  0.51819  0.2682  1.0000
  O   O96       1.0  0.86683  0.51819  0.7318  1.0000
  O   O97       1.0  0.86683  0.018189999999999998  0.7682  1.0000
  O   O98       1.0  0.13317  0.018189999999999998  0.2318  1.0000
  O   O99       1.0  0.13317  0.018189999999999998  0.7682  1.0000
  O   O100      1.0  0.86683  0.018189999999999998  0.2318  1.0000
  O   O101      1.0  0.3668299999999999  0.018189999999999998  0.2682  1.0000
  O   O102      1.0  0.6331699999999999  0.018189999999999998  0.7318  1.0000
  O   O103      1.0  0.6331699999999999  0.018189999999999998  0.2682  1.0000
  O   O104      1.0  0.3668299999999999  0.018189999999999998  0.7318  1.0000
  Zn  Zn1       1.0  0.20624  0.47407999999999995  0.77598  1.0000
  Zn  Zn2       1.0  0.79376  0.47407999999999995  0.22402  1.0000
  Zn  Zn3       1.0  0.79376  0.47407999999999995  0.77598  1.0000
  Zn  Zn4       1.0  0.20624  0.47407999999999995  0.22402  1.0000
  Zn  Zn5       1.0  0.70624  0.47407999999999995  0.27598  1.0000
  Zn  Zn6       1.0  0.29376  0.47407999999999995  0.72402  1.0000
  Zn  Zn7       1.0  0.29376  0.47407999999999995  0.27598  1.0000
  Zn  Zn8       1.0  0.70624  0.47407999999999995  0.72402  1.0000
  Zn  Zn9       1.0  0.70624  0.97408  0.77598  1.0000
  Zn  Zn10      1.0  0.29376  0.97408  0.22402  1.0000
  Zn  Zn11      1.0  0.2937599999999999  0.97408  0.77598  1.0000
  Zn  Zn12      1.0  0.70624  0.97408  0.22402  1.0000
  Zn  Zn13      1.0  0.20624  0.97408  0.27598  1.0000
  Zn  Zn14      1.0  0.79376  0.97408  0.72402  1.0000
  Zn  Zn15      1.0  0.79376  0.97408  0.27598  1.0000
  Zn  Zn16      1.0  0.20624  0.97408  0.72402  1.0000
  Zn  Zn17      1.0  0.29376  0.52599  0.77599  1.0000
  Zn  Zn18      1.0  0.70624  0.52599  0.22401000000000001  1.0000
  Zn  Zn19      1.0  0.70624  0.52599  0.77599  1.0000
  Zn  Zn20      1.0  0.29376  0.52599  0.22401000000000001  1.0000
  Zn  Zn21      1.0  0.79376  0.52599  0.27599  1.0000
  Zn  Zn22      1.0  0.20624  0.52599  0.72401  1.0000
  Zn  Zn23      1.0  0.20624  0.52599  0.27599  1.0000
  Zn  Zn24      1.0  0.79376  0.52599  0.72401  1.0000
  Zn  Zn25      1.0  0.79376  0.02599  0.77599  1.0000
  Zn  Zn26      1.0  0.20624  0.02599  0.22401000000000001  1.0000
  Zn  Zn27      1.0  0.20624  0.02599  0.77599  1.0000
  Zn  Zn28      1.0  0.79376  0.02599  0.22401000000000001  1.0000
  Zn  Zn29      1.0  0.29376  0.02599  0.27599  1.0000
  Zn  Zn30      1.0  0.70624  0.02599  0.72401  1.0000
  Zn  Zn31      1.0  0.70624  0.02599  0.27599  1.0000
  Zn  Zn32      1.0  0.2937599999999999  0.02599  0.72401  1.0000
  S   S1        1.0  0.06908  0.4775499999999999  0.68575  1.0000
  O   O105      1.0  0.11614  0.46295999999999987  0.69987  1.0000
  O   O106      1.0  0.03716999999999999  0.45146  0.67337  1.0000
  O   O107      1.0  0.09078  0.49984999999999996  0.65632  1.0000
  H   H241      1.0  0.07043  0.49365999999999993  0.63789  1.0000
  S   S2        1.0  0.9306099999999998  0.4766199999999999  0.31471  1.0000
  O   O108      1.0  0.8805  0.46501  0.30167  1.0000
  O   O109      1.0  0.9597  0.44859  0.32512  1.0000
  O   O110      1.0  0.91475  0.49856999999999996  0.34557  1.0000
  H   H242      1.0  0.9380199999999997  0.4919299999999999  0.36242  1.0000
  S   S3        1.0  0.9411699999999997  0.4861299999999999  0.68079  1.0000
  O   O111      1.0  0.9694199999999997  0.49359  0.65109  1.0000
  O   O112      1.0  0.93873  0.45176  0.68504  1.0000
  O   O113      1.0  0.88064  0.4993399999999999  0.67726  1.0000
  H   H243      1.0  0.8579799999999997  0.48154  0.68219  1.0000
  S   S4        1.0  0.06029  0.47836999999999996  0.31647  1.0000
  O   O114      1.0  0.03682  0.4849  0.34778  1.0000
  O   O115      1.0  0.055809999999999985  0.44458  0.30924  1.0000
  O   O116      1.0  0.12365999999999999  0.4869999999999999  0.31826  1.0000
  H   H244      1.0  0.14068  0.46795  0.32578  1.0000
  S   S5        1.0  0.56697  0.47878  0.18375  1.0000
  O   O117      1.0  0.62323  0.47411  0.19134  1.0000
  O   O118      1.0  0.54326  0.4473599999999999  0.18042  1.0000
  O   O119      1.0  0.56516  0.49741  0.14963  1.0000
  H   H245      1.0  0.5943  0.48873  0.13714  1.0000
  S   S6        1.0  0.42967999999999995  0.47808  0.8151000000000002  1.0000
  O   O120      1.0  0.38373  0.46283  0.8004399999999999  1.0000
  O   O121      1.0  0.45967999999999987  0.4526799999999999  0.8301399999999999  1.0000
  O   O122      1.0  0.40602  0.5018  0.84274  1.0000
  H   H246      1.0  0.4319299999999999  0.5015  0.8595  1.0000
  S   S7        1.0  0.43945  0.47943  0.18307  1.0000
  O   O123      1.0  0.46241999999999994  0.48618999999999996  0.1517  1.0000
  O   O124      1.0  0.44425  0.44554999999999995  0.18972  1.0000
  O   O125      1.0  0.37602999999999986  0.48801999999999995  0.18139  1.0000
  H   H247      1.0  0.3576099999999999  0.4679999999999999  0.17995  1.0000
  S   S8        1.0  0.56007  0.48002999999999996  0.8171999999999999  1.0000
  O   O126      1.0  0.5375099999999999  0.48839999999999995  0.84832  1.0000
  O   O127      1.0  0.55382  0.4460499999999999  0.8115099999999998  1.0000
  O   O128      1.0  0.62386  0.4876499999999999  0.8181899999999999  1.0000
  H   H248      1.0  0.64042  0.46837999999999996  0.8254  1.0000
  S   S9        1.0  0.57007  0.97656  0.68592  1.0000
  O   O129      1.0  0.61438  0.9604699999999999  0.70151  1.0000
  O   O130      1.0  0.53871  0.9516  0.67092  1.0000
  O   O131      1.0  0.59649  0.99931  0.65819  1.0000
  H   H249      1.0  0.5717  0.9989899999999999  0.64088  1.0000
  S   S10       1.0  0.42881  0.98092  0.31571  1.0000
  O   O132      1.0  0.38810999999999996  0.9615199999999999  0.30043  1.0000
  O   O133      1.0  0.45908  0.95934  0.33562  1.0000
  O   O134      1.0  0.39719  0.006099999999999999  0.33892  1.0000
  H   H250      1.0  0.42183999999999994  0.011159999999999998  0.35548  1.0000
  S   S11       1.0  0.44056  0.9824199999999998  0.68176  1.0000
  O   O135      1.0  0.46607999999999994  0.99026  0.65128  1.0000
  O   O136      1.0  0.44244  0.9480999999999999  0.68704  1.0000
  O   O137      1.0  0.37815  0.9929199999999999  0.6792  1.0000
  H   H251      1.0  0.35793  0.9732899999999999  0.67876  1.0000
  S   S12       1.0  0.55909  0.98466  0.31909  1.0000
  O   O138      1.0  0.53591  0.9957899999999997  0.34917  1.0000
  O   O139      1.0  0.55242  0.95036  0.31617  1.0000
  O   O140      1.0  0.62287  0.9918999999999998  0.32025  1.0000
  H   H252      1.0  0.63733  0.9752299999999998  0.33317  1.0000
  S   S13       1.0  0.0705  0.9789399999999999  0.18505999999999997  1.0000
  O   O141      1.0  0.11384  0.9616599999999998  0.20027000000000003  1.0000
  O   O142      1.0  0.03945  0.9551499999999999  0.16829  1.0000
  O   O143      1.0  0.09836  0.00285  0.15898  1.0000
  H   H253      1.0  0.07392  0.00394  0.14148  1.0000
  S   S14       1.0  0.9290899999999999  0.97974  0.8153299999999999  1.0000
  O   O144      1.0  0.88694  0.9615399999999998  0.80001  1.0000
  O   O145      1.0  0.95962  0.9568999999999999  0.83366  1.0000
  O   O146      1.0  0.8995099999999998  0.0043  0.84009  1.0000
  H   H254      1.0  0.9248399999999998  0.00806  0.85665  1.0000
  S   S15       1.0  0.94097  0.9846299999999999  0.18108  1.0000
  O   O147      1.0  0.9662999999999998  0.99399  0.151  1.0000
  O   O148      1.0  0.94385  0.95022  0.18480000000000002  1.0000
  O   O149      1.0  0.8784099999999998  0.9945799999999999  0.17889  1.0000
  H   H255      1.0  0.8584199999999997  0.9754799999999999  0.18276  1.0000
  S   S16       1.0  0.05919  0.98391  0.81882  1.0000
  O   O150      1.0  0.035269999999999996  0.9940399999999998  0.84905  1.0000
  O   O151      1.0  0.05387  0.9496  0.8151099999999999  1.0000
  O   O152      1.0  0.12264000000000001  0.99201  0.82035  1.0000
  H   H256      1.0  0.13801  0.9746799999999998  0.83198  1.0000
  C   C401      1.0  0.16594  0.54652  0.53054  1.0000
  C   C402      1.0  0.18138  0.57741  0.52647  1.0000
  C   C403      1.0  0.15156  0.60129  0.53908  1.0000
  C   C404      1.0  0.10567  0.5945999999999999  0.55539  1.0000
  C   C405      1.0  0.08964  0.5639699999999999  0.55917  1.0000
  C   C406      1.0  0.11970999999999997  0.53989  0.54684  1.0000
  H   H257      1.0  0.21675999999999998  0.58286  0.51372  1.0000
  H   H258      1.0  0.16405999999999996  0.6249699999999999  0.53612  1.0000
  H   H259      1.0  0.08251  0.61318  0.56502  1.0000
  H   H260      1.0  0.0538  0.55894  0.57155  1.0000
  H   H261      1.0  0.10669999999999998  0.5162799999999999  0.54958  1.0000
  C   C407      1.0  0.8242099999999998  0.55139  0.46939999999999993  1.0000
  C   C408      1.0  0.80591  0.58174  0.47326  1.0000
  C   C409      1.0  0.8339099999999998  0.60652  0.4608999999999999  1.0000
  C   C410      1.0  0.8808  0.60126  0.44508999999999993  1.0000
  C   C411      1.0  0.89964  0.5711599999999999  0.44151  1.0000
  C   C412      1.0  0.87139  0.54618  0.45356  1.0000
  H   H262      1.0  0.7697899999999998  0.5861  0.48571  1.0000
  H   H263      1.0  0.81927  0.6297799999999999  0.46372  1.0000
  H   H264      1.0  0.90257  0.62053  0.43569  1.0000
  H   H265      1.0  0.9362799999999998  0.56723  0.42954999999999993  1.0000
  H   H266      1.0  0.88658  0.52301  0.45101  1.0000
  C   C413      1.0  0.83924  0.54078  0.53288  1.0000
  C   C414      1.0  0.8919  0.53313  0.52798  1.0000
  C   C415      1.0  0.93104  0.5504  0.5419  1.0000
  C   C416      1.0  0.9179899999999998  0.5753799999999999  0.5608  1.0000
  C   C417      1.0  0.86577  0.58319  0.5658  1.0000
  C   C418      1.0  0.8264  0.566  0.55182  1.0000
  H   H267      1.0  0.90252  0.5138499999999999  0.51331  1.0000
  H   H268      1.0  0.9714799999999999  0.5444199999999999  0.53792  1.0000
  H   H269      1.0  0.9484199999999998  0.58874  0.57152  1.0000
  H   H270      1.0  0.85585  0.60266  0.58034  1.0000
  H   H271      1.0  0.78614  0.57245  0.55556  1.0000
  C   C419      1.0  0.15266  0.53618  0.46683  1.0000
  C   C420      1.0  0.10042999999999998  0.5274399999999999  0.47146  1.0000
  C   C421      1.0  0.06049999999999999  0.54388  0.45734  1.0000
  C   C422      1.0  0.07235  0.56911  0.43849  1.0000
  C   C423      1.0  0.12414  0.578  0.43377  1.0000
  C   C424      1.0  0.16427  0.56166  0.44796  1.0000
  H   H272      1.0  0.09075  0.50795  0.48606999999999995  1.0000
  H   H273      1.0  0.020369999999999996  0.53708  0.46109  1.0000
  H   H274      1.0  0.041329999999999985  0.58182  0.4276  1.0000
  H   H275      1.0  0.13312  0.59763  0.41923  1.0000
  H   H276      1.0  0.20418  0.56893  0.4444  1.0000
  C   C425      1.0  0.65977  0.54304  0.03175  1.0000
  C   C426      1.0  0.6715  0.57481  0.02733  1.0000
  C   C427      1.0  0.64027  0.5974799999999999  0.04148  1.0000
  C   C428      1.0  0.5967  0.58869  0.05978  1.0000
  C   C429      1.0  0.58439  0.55717  0.06399  1.0000
  C   C430      1.0  0.61579  0.53431  0.04999  1.0000
  H   H277      1.0  0.70531  0.5818499999999999  0.0133  1.0000
  H   H278      1.0  0.65001  0.6218299999999999  0.0383  1.0000
  H   H279      1.0  0.5725  0.60632  0.07072  1.0000
  H   H280      1.0  0.55049  0.5505  0.07813  1.0000
  H   H281      1.0  0.60564  0.50999  0.05314  1.0000
  C   C431      1.0  0.32937  0.5488  0.96977  1.0000
  C   C432      1.0  0.30982  0.57885  0.97397  1.0000
  C   C433      1.0  0.3367099999999999  0.60414  0.9617899999999999  1.0000
  C   C434      1.0  0.38374  0.59969  0.9458699999999999  1.0000
  C   C435      1.0  0.4038499999999999  0.5699099999999999  0.942  1.0000
  C   C436      1.0  0.37672  0.5444199999999999  0.95386  1.0000
  H   H282      1.0  0.27353999999999995  0.58255  0.9864800000000001  1.0000
  H   H283      1.0  0.32106  0.6271499999999999  0.9648199999999999  1.0000
  H   H284      1.0  0.40465  0.6193599999999999  0.93661  1.0000
  H   H285      1.0  0.44058  0.56664  0.92993  1.0000
  H   H286      1.0  0.39290999999999987  0.52151  0.9511200000000001  1.0000
  C   C437      1.0  0.34582999999999997  0.53773  0.03289  1.0000
  C   C438      1.0  0.39847  0.5299999999999999  0.028179999999999997  1.0000
  C   C439      1.0  0.43757  0.54763  0.04166  1.0000
  C   C440      1.0  0.42448  0.57305  0.05998  1.0000
  C   C441      1.0  0.37222999999999995  0.5809399999999999  0.06477  1.0000
  C   C442      1.0  0.33289999999999986  0.56341  0.05119  1.0000
  H   H287      1.0  0.40912  0.51043  0.0139  1.0000
  H   H288      1.0  0.47798  0.5415999999999999  0.03774  1.0000
  H   H289      1.0  0.45489  0.5867  0.07035  1.0000
  H   H290      1.0  0.36227  0.60077  0.07882  1.0000
  H   H291      1.0  0.29262  0.56995  0.054689999999999996  1.0000
  C   C443      1.0  0.65094  0.5361199999999999  0.96705  1.0000
  C   C444      1.0  0.59798  0.5288  0.97121  1.0000
  C   C445      1.0  0.5597  0.54654  0.9570599999999999  1.0000
  C   C446      1.0  0.57392  0.57169  0.93864  1.0000
  C   C447      1.0  0.62645  0.5791799999999999  0.93441  1.0000
  C   C448      1.0  0.6649399999999999  0.56153  0.9486300000000001  1.0000
  H   H292      1.0  0.58646  0.5093999999999999  0.9854999999999999  1.0000
  H   H293      1.0  0.51902  0.54081  0.9604599999999999  1.0000
  H   H294      1.0  0.54418  0.5854099999999999  0.92771  1.0000
  H   H295      1.0  0.63728  0.59875  0.92021  1.0000
  H   H296      1.0  0.70545  0.56772  0.94544  1.0000
  C   C449      1.0  0.67511  0.05089  0.53133  1.0000
  C   C450      1.0  0.6962  0.08053  0.52691  1.0000
  C   C451      1.0  0.671  0.10634999999999997  0.53921  1.0000
  C   C452      1.0  0.62409  0.10284999999999997  0.5555  1.0000
  C   C453      1.0  0.6024  0.07349  0.55956  1.0000
  C   C454      1.0  0.6278399999999998  0.04747  0.54756  1.0000
  H   H297      1.0  0.73233  0.08351  0.51406  1.0000
  H   H298      1.0  0.68781  0.12904  0.53597  1.0000
  H   H299      1.0  0.60449  0.12293999999999998  0.56486  1.0000
  H   H300      1.0  0.56571  0.07094999999999999  0.57186  1.0000
  H   H301      1.0  0.6103900000000001  0.02489  0.55042  1.0000
  C   C455      1.0  0.33  0.04802  0.46897  1.0000
  C   C456      1.0  0.3107199999999999  0.07808  0.47351  1.0000
  C   C457      1.0  0.33718  0.10337  0.4610099999999999  1.0000
  C   C458      1.0  0.3835599999999999  0.09892999999999999  0.4444  1.0000
  C   C459      1.0  0.40347  0.06915  0.44021999999999994  1.0000
  C   C460      1.0  0.37676  0.04365  0.45241999999999993  1.0000
  H   H302      1.0  0.27494  0.08178  0.48652  1.0000
  H   H303      1.0  0.32171  0.12638  0.46430999999999994  1.0000
  H   H304      1.0  0.40412  0.11860999999999998  0.43487  1.0000
  H   H305      1.0  0.43971999999999994  0.06587999999999998  0.42764  1.0000
  H   H306      1.0  0.39281  0.02074  0.44939999999999997  1.0000
  C   C461      1.0  0.34918  0.03642  0.53149  1.0000
  C   C462      1.0  0.40126  0.027269999999999996  0.52699  1.0000
  C   C463      1.0  0.44169  0.04458999999999999  0.53955  1.0000
  C   C464      1.0  0.4305  0.07120999999999998  0.55654  1.0000
  C   C465      1.0  0.37885  0.08058  0.561  1.0000
  C   C466      1.0  0.3382  0.06328999999999999  0.54846  1.0000
  H   H307      1.0  0.41043  0.00682  0.51362  1.0000
  H   H308      1.0  0.4816899999999999  0.03743  0.53596  1.0000
  H   H309      1.0  0.4618999999999999  0.08465  0.56615  1.0000
  H   H310      1.0  0.37043  0.10135999999999998  0.57398  1.0000
  H   H311      1.0  0.29843000000000003  0.07096999999999999  0.55166  1.0000
  C   C467      1.0  0.65256  0.03826999999999999  0.46947  1.0000
  C   C468      1.0  0.601  0.02808  0.47373  1.0000
  C   C469      1.0  0.55967  0.04506999999999999  0.4618300000000001  1.0000
  C   C470      1.0  0.56942  0.07246  0.44581  1.0000
  C   C471      1.0  0.62053  0.0829  0.44166000000000005  1.0000
  C   C472      1.0  0.6621  0.06590999999999998  0.45348999999999995  1.0000
  H   H312      1.0  0.59296  0.00704  0.4864  1.0000
  H   H313      1.0  0.52009  0.03706  0.46517  1.0000
  H   H314      1.0  0.53731  0.08565999999999999  0.43673  1.0000
  H   H315      1.0  0.6278099999999998  0.10429  0.42948  1.0000
  H   H316      1.0  0.70142  0.07442  0.45056  1.0000
  C   C473      1.0  0.16887  0.04754  0.03259  1.0000
  C   C474      1.0  0.18455999999999997  0.07834999999999999  0.028219999999999995  1.0000
  C   C475      1.0  0.15626  0.1024  0.04177  1.0000
  C   C476      1.0  0.11168999999999997  0.09596  0.059359999999999996  1.0000
  C   C477      1.0  0.09539999999999997  0.0654  0.06346  1.0000
  C   C478      1.0  0.12391999999999999  0.04117  0.05014  1.0000
  H   H317      1.0  0.21896  0.08362999999999998  0.014439999999999998  1.0000
  H   H318      1.0  0.16891999999999993  0.12597  0.03852  1.0000
  H   H319      1.0  0.08972  0.11461  0.06975  1.0000
  H   H320      1.0  0.06052  0.06054  0.07694  1.0000
  H   H321      1.0  0.11065  0.0177  0.053169999999999995  1.0000
  C   C479      1.0  0.83407  0.04592  0.9679299999999998  1.0000
  C   C480      1.0  0.82009  0.07698  0.9722899999999999  1.0000
  C   C481      1.0  0.8498299999999998  0.10045  0.9589  1.0000
  C   C482      1.0  0.8942499999999999  0.09322  0.9414  1.0000
  C   C483      1.0  0.9089099999999999  0.06245  0.93731  1.0000
  C   C484      1.0  0.8789299999999998  0.038759999999999996  0.95044  1.0000
  H   H322      1.0  0.78591  0.08289  0.9857699999999999  1.0000
  H   H323      1.0  0.8384199999999999  0.12426999999999999  0.9621  1.0000
  H   H324      1.0  0.91727  0.11153  0.93112  1.0000
  H   H325      1.0  0.9435699999999998  0.056999999999999995  0.92412  1.0000
  H   H326      1.0  0.89094  0.01502  0.94739  1.0000
  C   C485      1.0  0.8492999999999999  0.0359  0.0314  1.0000
  C   C486      1.0  0.90098  0.025999999999999992  0.026909999999999996  1.0000
  C   C487      1.0  0.9420499999999998  0.04258  0.03964  1.0000
  C   C488      1.0  0.93193  0.06921  0.05682000000000001  1.0000
  C   C489      1.0  0.88069  0.07927  0.06134  1.0000
  C   C490      1.0  0.8393799999999999  0.06272  0.04864  1.0000
  H   H327      1.0  0.90931  0.00551  0.013419999999999998  1.0000
  H   H328      1.0  0.9817399999999998  0.03486999999999999  0.03601  1.0000
  H   H329      1.0  0.96384  0.08211  0.06653  1.0000
  H   H330      1.0  0.8731  0.10004  0.07448  1.0000
  H   H331      1.0  0.79994  0.07093  0.05190999999999999  1.0000
  C   C491      1.0  0.15159  0.03764  0.96937  1.0000
  C   C492      1.0  0.09978  0.027909999999999997  0.97368  1.0000
  C   C493      1.0  0.05891999999999999  0.04503  0.9614199999999999  1.0000
  C   C494      1.0  0.06938  0.07205  0.9449299999999999  1.0000
  C   C495      1.0  0.12074999999999998  0.08199  0.9406699999999999  1.0000
  C   C496      1.0  0.16186  0.06488  0.9528900000000001  1.0000
  H   H332      1.0  0.09118  0.00714  0.9866599999999999  1.0000
  H   H333      1.0  0.01914  0.037399999999999996  0.9648499999999999  1.0000
  H   H334      1.0  0.03762  0.08534999999999998  0.9355699999999999  1.0000
  H   H335      1.0  0.12861  0.10307  0.92809  1.0000
  H   H336      1.0  0.20139  0.07298999999999999  0.94983  1.0000
  C   C497      1.0  0.33990999999999993  0.28054  0.72323  1.0000
  C   C498      1.0  0.33541  0.29759  0.69585  1.0000
  C   C499      1.0  0.37985  0.30978  0.68131  1.0000
  C   C500      1.0  0.42887  0.30504999999999993  0.69405  1.0000
  C   C501      1.0  0.4335999999999999  0.28812  0.7213  1.0000
  C   C502      1.0  0.38938  0.27574  0.73578  1.0000
  H   H337      1.0  0.29773  0.30097999999999997  0.68552  1.0000
  H   H338      1.0  0.3764  0.32263  0.66003  1.0000
  H   H339      1.0  0.46324999999999994  0.31437  0.68273  1.0000
  H   H340      1.0  0.4715599999999999  0.2844  0.73112  1.0000
  H   H341      1.0  0.3935399999999999  0.26243999999999995  0.7567499999999999  1.0000
  C   C503      1.0  0.6636  0.28097  0.2792  1.0000
  C   C504      1.0  0.66969  0.29899  0.30583  1.0000
  C   C505      1.0  0.62615  0.31178  0.32081  1.0000
  C   C506      1.0  0.5763899999999997  0.30663  0.30926  1.0000
  C   C507      1.0  0.57004  0.28871  0.2828  1.0000
  C   C508      1.0  0.61338  0.27576999999999996  0.26786  1.0000
  H   H342      1.0  0.70798  0.30276999999999993  0.31523  1.0000
  H   H343      1.0  0.6309  0.32544  0.34147  1.0000
  H   H344      1.0  0.54269  0.31644  0.3209  1.0000
  H   H345      1.0  0.53148  0.28468  0.27392  1.0000
  H   H346      1.0  0.60794  0.26179  0.24747  1.0000
  C   C509      1.0  0.67165  0.28027  0.71281  1.0000
  C   C510      1.0  0.62675  0.29518999999999995  0.7242  1.0000
  C   C511      1.0  0.59039  0.30718999999999996  0.70361  1.0000
  C   C512      1.0  0.59889  0.30451  0.67167  1.0000
  C   C513      1.0  0.64327  0.28946  0.66023  1.0000
  C   C514      1.0  0.6792  0.27703  0.68067  1.0000
  H   H347      1.0  0.61945  0.29708  0.74886  1.0000
  H   H348      1.0  0.5555099999999998  0.31844999999999996  0.71237  1.0000
  H   H349      1.0  0.57098  0.31398999999999994  0.65577  1.0000
  H   H350      1.0  0.64992  0.28731  0.63555  1.0000
  H   H351      1.0  0.7133599999999999  0.26525  0.67154  1.0000
  C   C515      1.0  0.3206999999999999  0.28159  0.28993  1.0000
  C   C516      1.0  0.36145  0.29859  0.27625  1.0000
  C   C517      1.0  0.3992599999999999  0.3122  0.29476  1.0000
  C   C518      1.0  0.39654  0.30893999999999994  0.32685  1.0000
  C   C519      1.0  0.3563499999999999  0.29183  0.34056  1.0000
  C   C520      1.0  0.31876999999999994  0.2780099999999999  0.32217  1.0000
  H   H352      1.0  0.36409  0.30113  0.2514  1.0000
  H   H353      1.0  0.43075  0.32524999999999993  0.28421  1.0000
  H   H354      1.0  0.42563  0.31965999999999994  0.34115  1.0000
  H   H355      1.0  0.3542399999999999  0.28928  0.3654  1.0000
  H   H356      1.0  0.28778  0.2647999999999999  0.33302  1.0000
  C   C521      1.0  0.84184  0.28047  0.22498  1.0000
  C   C522      1.0  0.83847  0.29748  0.19751  1.0000
  C   C523      1.0  0.88347  0.30967999999999996  0.18362  1.0000
  C   C524      1.0  0.93193  0.30499999999999994  0.1971  1.0000
  C   C525      1.0  0.9355299999999999  0.28809999999999997  0.22442999999999996  1.0000
  C   C526      1.0  0.89076  0.27571  0.23827  1.0000
  H   H357      1.0  0.80124  0.30084  0.18663000000000002  1.0000
  H   H358      1.0  0.88091  0.32250999999999996  0.16227  1.0000
  H   H359      1.0  0.9667399999999999  0.31434  0.18629000000000004  1.0000
  H   H360      1.0  0.97306  0.28441999999999995  0.23483  1.0000
  H   H361      1.0  0.8940399999999997  0.26245  0.25932  1.0000
  C   C527      1.0  0.16241  0.28075  0.77837  1.0000
  C   C528      1.0  0.168  0.29824999999999996  0.8053900000000002  1.0000
  C   C529      1.0  0.12415999999999999  0.31071  0.8203299999999999  1.0000
  C   C530      1.0  0.07461999999999998  0.30578999999999995  0.8083500000000001  1.0000
  C   C531      1.0  0.0688  0.28839999999999993  0.78148  1.0000
  C   C532      1.0  0.11242999999999997  0.27576999999999996  0.7666  1.0000
  H   H362      1.0  0.20608999999999994  0.30180999999999997  0.81512  1.0000
  H   H363      1.0  0.12847  0.32394  0.84131  1.0000
  H   H364      1.0  0.04069999999999999  0.31534  0.81997  1.0000
  H   H365      1.0  0.03043999999999999  0.28453999999999996  0.77226  1.0000
  H   H366      1.0  0.10741  0.26214999999999994  0.7459099999999999  1.0000
  C   C533      1.0  0.17234  0.281  0.21266  1.0000
  C   C534      1.0  0.13034  0.29741  0.22566  1.0000
  C   C535      1.0  0.0927  0.31042  0.20659  1.0000
  C   C536      1.0  0.09697  0.30718  0.17449  1.0000
  C   C537      1.0  0.13851  0.29069  0.16147  1.0000
  C   C538      1.0  0.17584999999999998  0.2774  0.18044  1.0000
  H   H367      1.0  0.12646  0.29985  0.25048  1.0000
  H   H368      1.0  0.060189999999999994  0.32287999999999994  0.21664  1.0000
  H   H369      1.0  0.06806  0.31733  0.15974  1.0000
  H   H370      1.0  0.14185  0.28814  0.13665  1.0000
  H   H371      1.0  0.20782999999999996  0.26465  0.17006  1.0000
  C   C539      1.0  0.8085  0.27947  0.7983999999999999  1.0000
  C   C540      1.0  0.85678  0.29169  0.7888800000000001  1.0000
  C   C541      1.0  0.89157  0.30275  0.8108900000000001  1.0000
  C   C542      1.0  0.87818  0.30176  0.8423699999999998  1.0000
  C   C543      1.0  0.8304299999999998  0.28930999999999996  0.8519499999999999  1.0000
  C   C544      1.0  0.7959999999999998  0.27779999999999994  0.83013  1.0000
  H   H372      1.0  0.8678599999999997  0.29215  0.7646300000000001  1.0000
  H   H373      1.0  0.9290599999999998  0.3119  0.80361  1.0000
  H   H374      1.0  0.9049  0.31049  0.85936  1.0000
  H   H375      1.0  0.8200599999999999  0.28839999999999993  0.8762799999999998  1.0000
  H   H376      1.0  0.75929  0.26788  0.83782  1.0000
  C   C545      1.0  0.84029  0.78047  0.72367  1.0000
  C   C546      1.0  0.83625  0.79738  0.69618  1.0000
  C   C547      1.0  0.88095  0.80944  0.6818  1.0000
  C   C548      1.0  0.92977  0.8047099999999999  0.69483  1.0000
  C   C549      1.0  0.93403  0.7879199999999998  0.7222  1.0000
  C   C550      1.0  0.8895499999999998  0.7756799999999998  0.7365  1.0000
  H   H377      1.0  0.79875  0.80074  0.68563  1.0000
  H   H378      1.0  0.87787  0.8221699999999998  0.66043  1.0000
  H   H379      1.0  0.96436  0.8139199999999999  0.68363  1.0000
  H   H380      1.0  0.97181  0.78419  0.73224  1.0000
  H   H381      1.0  0.8933599999999999  0.7624599999999999  0.7575599999999999  1.0000
  C   C551      1.0  0.15763  0.78046  0.27365  1.0000
  C   C552      1.0  0.1595  0.79765  0.30108  1.0000
  C   C553      1.0  0.11377  0.8099199999999999  0.31403  1.0000
  C   C554      1.0  0.0661  0.80511  0.29965  1.0000
  C   C555      1.0  0.06400999999999998  0.78802  0.27236  1.0000
  C   C556      1.0  0.10949999999999999  0.77558  0.25946  1.0000
  H   H382      1.0  0.1961  0.8011299999999999  0.31264  1.0000
  H   H383      1.0  0.11514999999999999  0.8229099999999999  0.33533  1.0000
  H   H384      1.0  0.03071  0.81451  0.30972  1.0000
  H   H385      1.0  0.027099999999999992  0.7842499999999999  0.26126  1.0000
  H   H386      1.0  0.10737  0.7621899999999998  0.23843  1.0000
  C   C557      1.0  0.17059  0.7790599999999999  0.7153  1.0000
  C   C558      1.0  0.12734  0.7944899999999999  0.72823  1.0000
  C   C559      1.0  0.08947999999999999  0.80696  0.70883  1.0000
  C   C560      1.0  0.09489999999999997  0.8041699999999998  0.67662  1.0000
  C   C561      1.0  0.13765  0.78849  0.66371  1.0000
  C   C562      1.0  0.17503  0.77558  0.68296  1.0000
  H   H387      1.0  0.12274999999999997  0.7966399999999998  0.75314  1.0000
  H   H388      1.0  0.055959999999999996  0.8187799999999998  0.71874  1.0000
  H   H389      1.0  0.06593000000000002  0.81411  0.66164  1.0000
  H   H390      1.0  0.14207  0.78635  0.6388  1.0000
  H   H391      1.0  0.20815999999999998  0.76355  0.67273  1.0000
  C   C563      1.0  0.79379  0.7798299999999998  0.30412  1.0000
  C   C564      1.0  0.84289  0.7933899999999998  0.29932  1.0000
  C   C565      1.0  0.8702699999999998  0.80523  0.32444  1.0000
  C   C566      1.0  0.84871  0.80365  0.35432  1.0000
  C   C567      1.0  0.80008  0.7898699999999997  0.35922  1.0000
  C   C568      1.0  0.77296  0.7776799999999999  0.33429  1.0000
  H   H392      1.0  0.86017  0.7944  0.27633  1.0000
  H   H393      1.0  0.9082899999999998  0.81549  0.32082  1.0000
  H   H394      1.0  0.8697099999999998  0.81298  0.37373999999999996  1.0000
  H   H395      1.0  0.7833699999999999  0.78856  0.38231  1.0000
  H   H396      1.0  0.73544  0.7668799999999999  0.33834  1.0000
  C   C569      1.0  0.33852  0.78095  0.22272  1.0000
  C   C570      1.0  0.3338599999999999  0.7989199999999999  0.19593  1.0000
  C   C571      1.0  0.37816  0.81167  0.18175  1.0000
  C   C572      1.0  0.42726  0.8065299999999999  0.19423999999999997  1.0000
  C   C573      1.0  0.43218  0.7886599999999999  0.22084999999999996  1.0000
  C   C574      1.0  0.38809  0.7757699999999997  0.235  1.0000
  H   H397      1.0  0.29611  0.80268  0.18581000000000003  1.0000
  H   H398      1.0  0.37452999999999986  0.8252899999999997  0.16097  1.0000
  H   H399      1.0  0.4615499999999999  0.8163  0.18321  1.0000
  H   H400      1.0  0.47022  0.78464  0.23046000000000003  1.0000
  H   H401      1.0  0.39242  0.7618199999999999  0.25553  1.0000
  C   C575      1.0  0.66236  0.78069  0.7783599999999999  1.0000
  C   C576      1.0  0.6677499999999998  0.7979299999999999  0.8055699999999999  1.0000
  C   C577      1.0  0.62378  0.8101999999999998  0.8205299999999999  1.0000
  C   C578      1.0  0.57434  0.80537  0.8084000000000001  1.0000
  C   C579      1.0  0.56873  0.7882499999999999  0.78133  1.0000
  C   C580      1.0  0.61248  0.7757999999999999  0.76643  1.0000
  H   H402      1.0  0.7057699999999999  0.8013899999999999  0.8154299999999999  1.0000
  H   H403      1.0  0.62793  0.8231999999999998  0.8416699999999999  1.0000
  H   H404      1.0  0.54032  0.8147499999999999  0.8200599999999999  1.0000
  H   H405      1.0  0.53045  0.7844399999999999  0.7719799999999999  1.0000
  H   H406      1.0  0.60762  0.76236  0.7456  1.0000
  C   C581      1.0  0.68147  0.7808499999999999  0.20694  1.0000
  C   C582      1.0  0.63572  0.79695  0.21489  1.0000
  C   C583      1.0  0.60493  0.8097299999999997  0.19169  1.0000
  C   C584      1.0  0.61981  0.80663  0.16055  1.0000
  C   C585      1.0  0.66507  0.7903999999999999  0.15252  1.0000
  C   C586      1.0  0.6955199999999998  0.7772799999999997  0.17556  1.0000
  H   H407      1.0  0.6235899999999998  0.7992599999999999  0.2389  1.0000
  H   H408      1.0  0.56946  0.8219499999999998  0.19779  1.0000
  H   H409      1.0  0.59624  0.81671  0.14261  1.0000
  H   H410      1.0  0.67665  0.78795  0.12845  1.0000
  H   H411      1.0  0.73046  0.7647  0.16905  1.0000
  C   C587      1.0  0.32483999999999996  0.7782499999999998  0.7895799999999998  1.0000
  C   C588      1.0  0.37185  0.7915899999999998  0.7795499999999999  1.0000
  C   C589      1.0  0.4068499999999999  0.8029999999999998  0.80127  1.0000
  C   C590      1.0  0.39486999999999994  0.80116  0.8328799999999998  1.0000
  C   C591      1.0  0.34842  0.7874199999999999  0.8429300000000001  1.0000
  C   C592      1.0  0.31388  0.77552  0.82141  1.0000
  H   H412      1.0  0.38155999999999995  0.7928899999999999  0.75511  1.0000
  H   H413      1.0  0.44326999999999994  0.81319  0.79361  1.0000
  H   H414      1.0  0.42165  0.81029  0.84963  1.0000
  H   H415      1.0  0.33899  0.78597  0.86737  1.0000
  H   H416      1.0  0.27791999999999994  0.7649  0.82941  1.0000
