data_image0
_chemical_formula_structural       C124H68O196S48Zn16
_chemical_formula_sum              "C124 H68 O196 S48 Zn16"
_cell_length_a       18.43011
_cell_length_b       18.2673
_cell_length_c       26.02819
_cell_angle_alpha    88.99104
_cell_angle_beta     90.91156000000001
_cell_angle_gamma    89.70042999999998

_space_group_name_H-M_alt    "P 1"
_space_group_IT_number       1

loop_
  _space_group_symop_operation_xyz
  'x, y, z'

loop_
  _atom_site_type_symbol
  _atom_site_label
  _atom_site_symmetry_multiplicity
  _atom_site_fract_x
  _atom_site_fract_y
  _atom_site_fract_z
  _atom_site_occupancy
  C   C1        1.0  0.8581200000000001  0.1387  0.25017  1.0000
  C   C2        1.0  0.81612  0.26562  0.25687  1.0000
  C   C3        1.0  0.25467  0.29666  0.28952  1.0000
  C   C4        1.0  0.05243  0.8644999999999998  0.4483100000000001  1.0000
  C   C5        1.0  0.12377000000000002  0.85385  0.43193  1.0000
  C   C6        1.0  0.14316  0.7886  0.40819  1.0000
  C   C7        1.0  0.09149  0.7339299999999999  0.40068  1.0000
  C   C8        1.0  0.020600000000000004  0.7439  0.41763  1.0000
  C   C9        1.0  0.0012200000000000012  0.80876  0.44175  1.0000
  C   C10       1.0  0.060620000000000014  0.8692399999999999  0.55757  1.0000
  C   C11       1.0  0.01478  0.81006  0.56868  1.0000
  C   C12       1.0  0.04098999999999999  0.7500499999999998  0.5976  1.0000
  C   C13       1.0  0.1871  0.2635  0.72304  1.0000
  C   C14       1.0  0.11307000000000002  0.74853  0.61517  1.0000
  C   C15       1.0  0.15916  0.8068700000000001  0.60367  1.0000
  C   C16       1.0  0.13303  0.8672700000000001  0.57512  1.0000
  C   C17       1.0  0.61804  0.41665  0.94992  1.0000
  C   C18       1.0  0.67281  0.457  0.92578  1.0000
  C   C19       1.0  0.7374800000000002  0.42296999999999996  0.91178  1.0000
  C   C20       1.0  0.7483400000000001  0.34840999999999994  0.92209  1.0000
  C   C21       1.0  0.69428  0.30777  0.9462000000000002  1.0000
  C   C22       1.0  0.62867  0.34121  0.95888  1.0000
  C   C23       1.0  0.6100800000000001  0.41414  0.06096  1.0000
  C   C24       1.0  0.19273  0.25652  0.28002  1.0000
  C   C25       1.0  0.59418  0.3433  0.07938  1.0000
  C   C26       1.0  0.64555  0.30391  0.10893  1.0000
  C   C27       1.0  0.7129200000000001  0.3349499999999999  0.12032000000000001  1.0000
  C   C28       1.0  0.72901  0.40543999999999997  0.10219000000000002  1.0000
  C   C29       1.0  0.67779  0.44500999999999996  0.0726  1.0000
  C   C30       1.0  0.31988  0.7659299999999998  0.26684  1.0000
  C   C31       1.0  0.32212  0.77057  0.72896  1.0000
  C   C32       1.0  0.71531  0.73446  0.20227  1.0000
  C   C33       1.0  0.71782  0.73179  0.7942  1.0000
  C   C34       1.0  0.80022  0.19586999999999993  0.74503  1.0000
  C   C35       1.0  0.79804  0.19220999999999994  0.24951  1.0000
  C   C36       1.0  0.19186  0.20245  0.75674  1.0000
  C   C37       1.0  0.85875  0.1399  0.7481800000000001  1.0000
  C   C38       1.0  0.19787  0.1959  0.24766  1.0000
  C   C39       1.0  0.30305  0.6961399999999998  0.24682  1.0000
  C   C40       1.0  0.30441  0.69778  0.74501  1.0000
  C   C41       1.0  0.69741  0.6971099999999999  0.24924  1.0000
  C   C42       1.0  0.69147  0.70225  0.74736  1.0000
  C   C43       1.0  0.7313700000000002  0.17789  0.76367  1.0000
  C   C44       1.0  0.7232800000000003  0.17101  0.24555  1.0000
  C   C45       1.0  0.25396  0.19376  0.7891200000000002  1.0000
  C   C46       1.0  0.25598000000000004  0.19387  0.21188  1.0000
  C   C47       1.0  0.23286  0.6799199999999999  0.22663  1.0000
  C   C48       1.0  0.14038  0.14001  0.24949  1.0000
  C   C49       1.0  0.23182  0.6782299999999999  0.75628  1.0000
  C   C50       1.0  0.73501  0.71527  0.29578  1.0000
  C   C51       1.0  0.71571  0.73159  0.69926  1.0000
  C   C52       1.0  0.17906  0.73594  0.226  1.0000
  C   C53       1.0  0.18191  0.73436  0.76553  1.0000
  C   C54       1.0  0.77589  0.77948  0.2959  1.0000
  C   C55       1.0  0.76517  0.7913399999999999  0.70006  1.0000
  C   C56       1.0  0.6848600000000001  0.23414999999999997  0.77881  1.0000
  C   C57       1.0  0.6690600000000001  0.22500999999999996  0.25373  1.0000
  C   C58       1.0  0.31603  0.23511  0.7784  1.0000
  C   C59       1.0  0.13775  0.14309  0.7528200000000002  1.0000
  C   C60       1.0  0.29784  0.25726  0.20635  1.0000
  C   C61       1.0  0.19457  0.8024699999999998  0.25117  1.0000
  C   C62       1.0  0.19786  0.80607  0.74867  1.0000
  C   C63       1.0  0.80448  0.80432  0.24923  1.0000
  C   C64       1.0  0.80205  0.80645  0.74694  1.0000
  C   C65       1.0  0.6996300000000002  0.30723  0.762  1.0000
  C   C66       1.0  0.6906  0.29822999999999994  0.26103  1.0000
  C   C67       1.0  0.3106300000000001  0.2956  0.74387  1.0000
  C   C68       1.0  0.30458  0.30376  0.24918  1.0000
  C   C69       1.0  0.050630000000000015  0.9567299999999999  0.02666  1.0000
  C   C70       1.0  0.36037000000000013  0.64071  0.74857  1.0000
  C   C71       1.0  0.03928  0.94744  0.97393  1.0000
  C   C72       1.0  0.9534  0.0506  0.024280000000000003  1.0000
  C   C73       1.0  0.9643400000000001  0.05840999999999998  0.9708400000000001  1.0000
  C   C74       1.0  0.5411500000000001  0.44487999999999994  0.52726  1.0000
  C   C75       1.0  0.53154  0.43919  0.47349  1.0000
  C   C76       1.0  0.45455  0.5488599999999998  0.52471  1.0000
  C   C77       1.0  0.4672200000000001  0.55715  0.47176  1.0000
  C   C78       1.0  0.0015200000000000003  0.0021499999999999983  0.94571  1.0000
  C   C79       1.0  0.0007100000000000002  0.0023  0.053  1.0000
  C   C80       1.0  0.50084  0.4992299999999999  0.44593000000000005  1.0000
  C   C81       1.0  0.35932  0.63954  0.24861  1.0000
  C   C82       1.0  0.49819  0.49746999999999997  0.55322  1.0000
  C   C83       1.0  0.14018  0.8602599999999999  0.25101  1.0000
  C   C84       1.0  0.14036  0.8606099999999997  0.74989  1.0000
  C   C85       1.0  0.8602800000000003  0.8598499999999998  0.24975  1.0000
  C   C86       1.0  0.85969  0.8608199999999999  0.74914  1.0000
  C   C87       1.0  0.64136  0.36128  0.7533800000000002  1.0000
  C   C88       1.0  0.63876  0.35859  0.25256  1.0000
  C   C89       1.0  0.36279  0.35661  0.7472600000000001  1.0000
  C   C90       1.0  0.36054000000000014  0.35981  0.2502  1.0000
  C   C91       1.0  0.9998300000000001  0.00046  0.10969  1.0000
  C   C92       1.0  0.63896  0.6413899999999998  0.74929  1.0000
  C   C93       1.0  0.00048000000000000256  8.000000000000054e-05  0.88983  1.0000
  C   C94       1.0  0.49943000000000004  0.49934999999999996  0.60978  1.0000
  C   C95       1.0  0.50044  0.50011  0.3899000000000001  1.0000
  C   C96       1.0  0.003700000000000001  0.9993599999999999  0.38977  1.0000
  C   C97       1.0  0.0021199999999999965  0.0002600000000000002  0.60996  1.0000
  C   C98       1.0  0.5024  0.49969  0.89001  1.0000
  C   C99       1.0  0.49924  0.5006199999999998  0.11007000000000002  1.0000
  C   C100      1.0  0.0030600000000000002  0.06206999999999999  0.47216  1.0000
  C   C101      1.0  0.9992100000000002  0.06189  0.52409  1.0000
  C   C102      1.0  0.46612000000000003  0.55178  0.9722300000000001  1.0000
  C   C103      1.0  0.64064  0.64052  0.2498  1.0000
  C   C104      1.0  0.46395000000000003  0.55168  0.024770000000000004  1.0000
  C   C105      1.0  0.013240000000000005  0.9980899999999999  0.44514  1.0000
  C   C106      1.0  0.01052  0.9991399999999999  0.55428  1.0000
  C   C107      1.0  0.50744  0.5006  0.94589  1.0000
  C   C108      1.0  0.5046900000000001  0.5017  0.05448  1.0000
  C   C109      1.0  0.03168000000000001  0.9332399999999997  0.47394  1.0000
  C   C110      1.0  0.0326  0.93448  0.52851  1.0000
  C   C111      1.0  0.55765  0.45615  0.97488  1.0000
  C   C112      1.0  0.55565  0.4565699999999999  0.029640000000000003  1.0000
  C   C113      1.0  0.96972  0.13822  0.52523  1.0000
  C   C114      1.0  0.8142300000000002  0.2691899999999999  0.7294500000000002  1.0000
  C   C115      1.0  0.9883800000000001  0.14289  0.46611  1.0000
  C   C116      1.0  0.38717  0.58038  0.02552  1.0000
  C   C117      1.0  0.39336  0.5886099999999997  0.96496  1.0000
  C   C118      1.0  0.26277  0.8158699999999998  0.27463  1.0000
  C   C119      1.0  0.26582  0.82432  0.7272600000000001  1.0000
  C   C120      1.0  0.77873  0.77683  0.20211  1.0000
  C   C121      1.0  0.78218  0.77148  0.79301  1.0000
  C   C122      1.0  0.7687600000000002  0.32512999999999986  0.74488  1.0000
  C   C123      1.0  0.76362  0.31388  0.27306  1.0000
  C   C124      1.0  0.24968  0.3020999999999999  0.71091  1.0000
  H   H1        1.0  0.16418  0.89586  0.4377500000000001  1.0000
  H   H2        1.0  0.16896  0.9125599999999999  0.56687  1.0000
  H   H3        1.0  0.6669700000000002  0.5154  0.92032  1.0000
  H   H4        1.0  0.7801900000000002  0.45497999999999994  0.89453  1.0000
  H   H5        1.0  0.7988800000000003  0.32233  0.91195  1.0000
  H   H6        1.0  0.70311  0.2503099999999999  0.9550500000000001  1.0000
  H   H7        1.0  0.58719  0.30883  0.97732  1.0000
  H   H8        1.0  0.54201  0.31889  0.0709  1.0000
  H   H9        1.0  0.63306  0.24947  0.12318  1.0000
  H   H10       1.0  0.75254  0.30439  0.14326  1.0000
  H   H11       1.0  0.78117  0.4294599999999999  0.11104  1.0000
  H   H12       1.0  0.19820000000000002  0.7803  0.3956  1.0000
  H   H13       1.0  0.69077  0.49956999999999996  0.05874000000000001  1.0000
  H   H14       1.0  0.77994  0.07444999999999997  0.51087  1.0000
  H   H15       1.0  0.8292600000000001  0.12171  0.378  1.0000
  H   H16       1.0  0.9647000000000001  0.29836  0.5428  1.0000
  H   H17       1.0  0.12907  0.11975999999999998  0.39289  1.0000
  H   H18       1.0  0.31175  0.3949499999999999  0.03442  1.0000
  H   H19       1.0  0.21413  0.5456300000000001  0.90904  1.0000
  H   H20       1.0  0.29237  0.74381  0.07176  1.0000
  H   H21       1.0  0.52387  0.6908799999999999  0.9393400000000001  1.0000
  H   H22       1.0  0.32649  0.90426  0.39205  1.0000
  H   H23       1.0  0.10652000000000002  0.6836899999999998  0.38205  1.0000
  H   H24       1.0  0.3418500000000001  0.9663399999999999  0.64033  1.0000
  H   H25       1.0  0.84406  0.73025  0.07409  1.0000
  H   H26       1.0  0.8621600000000001  0.7003099999999999  0.91403  1.0000
  H   H27       1.0  0.90831  0.46497999999999995  0.7609600000000001  1.0000
  H   H28       1.0  0.88299  0.4083  0.36440000000000006  1.0000
  H   H29       1.0  0.2084  0.32063  0.57349  1.0000
  H   H30       1.0  0.22047  0.31438  0.42653  1.0000
  H   H31       1.0  0.84077  0.35629999999999995  0.60362  1.0000
  H   H32       1.0  0.91635  0.39984  0.18197  1.0000
  H   H33       1.0  0.13422000000000003  0.40339999999999987  0.75763  1.0000
  H   H34       1.0  0.9807400000000001  0.7013  0.41225000000000006  1.0000
  H   H35       1.0  0.07827  0.42028  0.28092  1.0000
  H   H36       1.0  0.48331  0.87567  0.3049  1.0000
  H   H37       1.0  0.45392000000000005  0.8067899999999998  0.62825  1.0000
  H   H38       1.0  0.6535700000000002  0.77662  0.06803  1.0000
  H   H39       1.0  0.6352300000000001  0.64117  0.90503  1.0000
  H   H40       1.0  0.72234  0.99121  0.71383  1.0000
  H   H41       1.0  0.71962  0.1113  0.14444  1.0000
  H   H42       1.0  0.16267000000000006  0.12048  0.9025700000000001  1.0000
  H   H43       1.0  0.27994  0.99896  0.18490000000000004  1.0000
  H   H44       1.0  0.25107000000000007  0.48033  0.19992  1.0000
  H   H45       1.0  0.94652  0.81571  0.45545  1.0000
  H   H46       1.0  0.1961  0.5903  0.66791  1.0000
  H   H47       1.0  0.66187  0.67627  0.40967  1.0000
  H   H48       1.0  0.77298  0.6162699999999998  0.6366  1.0000
  H   H49       1.0  0.04384  0.66777  0.13151  1.0000
  H   H50       1.0  0.07092  0.64155  0.86258  1.0000
  H   H51       1.0  0.72706  0.8419999999999997  0.42399  1.0000
  H   H52       1.0  0.7073  0.89834  0.58621  1.0000
  H   H53       1.0  0.64433  0.14471  0.90051  1.0000
  H   H54       1.0  0.52239  0.11170999999999999  0.30514  1.0000
  H   H55       1.0  0.43803000000000003  0.0943  0.82859  1.0000
  H   H56       1.0  0.9587100000000001  0.81108  0.55563  1.0000
  H   H57       1.0  0.2986  0.25911  0.0652  1.0000
  H   H58       1.0  0.19406  0.01342  0.05732000000000001  1.0000
  H   H59       1.0  0.9534  0.82572  0.9259  1.0000
  H   H60       1.0  0.8099700000000002  0.0009799999999999995  0.04945  1.0000
  H   H61       1.0  0.9703200000000001  0.19303  0.86461  1.0000
  H   H62       1.0  0.69045  0.47197999999999996  0.55803  1.0000
  H   H63       1.0  0.48688  0.29503  0.38487  1.0000
  H   H64       1.0  0.31038  0.5055499999999999  0.55385  1.0000
  H   H65       1.0  0.52645  0.7066  0.39526  1.0000
  H   H66       1.0  0.005340000000000001  0.7048599999999999  0.60657  1.0000
  H   H67       1.0  0.13316  0.7022899999999997  0.63779  1.0000
  H   H68       1.0  0.21502  0.80541  0.61711  1.0000
  O   O1        1.0  0.0  1.0000000000000067e-05  0.24996  1.0000
  O   O2        1.0  0.41452  0.64619  0.2197  1.0000
  O   O3        1.0  0.21103  0.29112  0.39301  1.0000
  O   O4        1.0  0.93439  0.30608  0.6800500000000002  1.0000
  O   O5        1.0  0.8504  0.21840000000000004  0.64024  1.0000
  O   O6        1.0  0.81524  0.35418  0.63682  1.0000
  O   O7        1.0  0.9459300000000002  0.3262  0.2704  1.0000
  O   O8        1.0  0.93101  0.25033  0.19403  1.0000
  O   O9        1.0  0.87011  0.3785199999999999  0.19385  1.0000
  O   O10       1.0  0.07828  0.2993  0.65839  1.0000
  O   O11       1.0  0.04699  0.28197  0.7492400000000001  1.0000
  O   O12       1.0  0.11462  0.39988  0.7221  1.0000
  O   O13       1.0  0.5854800000000001  0.64619  0.7803  1.0000
  O   O14       1.0  0.07051  0.29141  0.23173  1.0000
  O   O15       1.0  0.0669  0.2831199999999999  0.32636000000000004  1.0000
  O   O16       1.0  0.12678  0.39685  0.28386  1.0000
  O   O17       1.0  0.44917  0.73304  0.31093  1.0000
  O   O18       1.0  0.4496  0.7892499999999998  0.22526  1.0000
  O   O19       1.0  0.42976000000000003  0.87232  0.30206  1.0000
  O   O20       1.0  0.43346  0.8668699999999998  0.7214700000000001  1.0000
  O   O21       1.0  0.46942000000000017  0.73927  0.7208400000000001  1.0000
  O   O22       1.0  0.40538  0.7912299999999998  0.6399  1.0000
  O   O23       1.0  0.65639  0.65458  0.12624  1.0000
  O   O24       1.0  0.5854800000000001  0.64619  0.2197  1.0000
  O   O25       1.0  0.5831600000000002  0.7561099999999998  0.15836  1.0000
  O   O26       1.0  0.6860200000000001  0.7875299999999997  0.09759000000000001  1.0000
  O   O27       1.0  0.69979  0.7735  0.8940800000000001  1.0000
  O   O28       1.0  0.59144  0.75464  0.84221  1.0000
  O   O29       1.0  0.66464  0.63983  0.87356  1.0000
  O   O30       1.0  0.7026  0.04706  0.80855  1.0000
  O   O31       1.0  0.6195  0.08944999999999997  0.73959  1.0000
  O   O32       1.0  0.74473  0.040369999999999996  0.71408  1.0000
  O   O33       1.0  0.7301000000000002  0.024849999999999997  0.26076  1.0000
  O   O34       1.0  0.61977  0.06775999999999999  0.21702  1.0000
  O   O35       1.0  0.08546  0.8538399999999999  0.28034  1.0000
  O   O36       1.0  0.7363300000000002  0.06872  0.16565000000000002  1.0000
  O   O37       1.0  0.26603  0.06638  0.84291  1.0000
  O   O38       1.0  0.30058  0.17774  0.8881300000000002  1.0000
  O   O39       1.0  0.16403000000000004  0.15427999999999994  0.87242  1.0000
  O   O40       1.0  0.22329  0.11092999999999999  0.131  1.0000
  O   O41       1.0  0.3526400000000001  0.12364  0.15163  1.0000
  O   O42       1.0  0.27766  0.0392  0.20986000000000002  1.0000
  O   O43       1.0  0.14056  0.56665  0.21216000000000002  1.0000
  O   O44       1.0  0.21652  0.60398  0.14005  1.0000
  O   O45       1.0  0.27364000000000005  0.5256399999999998  0.21291  1.0000
  O   O46       1.0  0.08546  0.8538399999999999  0.7196600000000001  1.0000
  O   O47       1.0  0.24225  0.5374399999999998  0.7897400000000001  1.0000
  O   O48       1.0  0.12236  0.57413  0.75748  1.0000
  O   O49       1.0  0.22189  0.5558499999999998  0.69172  1.0000
  O   O50       1.0  0.7658800000000002  0.58093  0.3346100000000001  1.0000
  O   O51       1.0  0.79478  0.68116  0.39042000000000004  1.0000
  O   O52       1.0  0.65916  0.64701  0.37804000000000004  1.0000
  O   O53       1.0  0.60196  0.68496  0.64212  1.0000
  O   O54       1.0  0.7007800000000002  0.7342099999999998  0.59192  1.0000
  O   O55       1.0  0.71987  0.60839  0.63482  1.0000
  O   O56       1.0  0.04551  0.67885  0.23399  1.0000
  O   O57       1.0  0.91454  0.8538399999999999  0.28034  1.0000
  O   O58       1.0  0.05206  0.79364  0.18541000000000002  1.0000
  O   O59       1.0  0.09493  0.67814  0.14114  1.0000
  O   O60       1.0  0.08157  0.78389  0.83129  1.0000
  O   O61       1.0  0.04095  0.69752  0.7665  1.0000
  O   O62       1.0  0.11783  0.64863  0.8451500000000001  1.0000
  O   O63       1.0  0.85473  0.81817  0.37862  1.0000
  O   O64       1.0  0.7796100000000002  0.9136799999999999  0.33747  1.0000
  O   O65       1.0  0.71515  0.8149399999999999  0.3923400000000001  1.0000
  O   O66       1.0  0.8149500000000001  0.9201199999999999  0.657  1.0000
  O   O67       1.0  0.82298  0.8094599999999998  0.60638  1.0000
  O   O68       1.0  0.91454  0.8538399999999999  0.7196600000000001  1.0000
  O   O69       1.0  0.69632  0.8710799999999996  0.6183700000000001  1.0000
  O   O70       1.0  0.5998000000000001  0.27853  0.85894  1.0000
  O   O71       1.0  0.56638  0.16605999999999996  0.81559  1.0000
  O   O72       1.0  0.67928  0.16401  0.87518  1.0000
  O   O73       1.0  0.5394200000000001  0.26003999999999994  0.29579  1.0000
  O   O74       1.0  0.53663  0.19015  0.2166  1.0000
  O   O75       1.0  0.57455  0.12395  0.3028  1.0000
  O   O76       1.0  0.45522000000000007  0.21595  0.75377  1.0000
  O   O77       1.0  0.4286500000000001  0.23245  0.84505  1.0000
  O   O78       1.0  0.39893000000000006  0.10710999999999998  0.80343  1.0000
  O   O79       1.0  0.58546  0.35383999999999993  0.78034  1.0000
  O   O80       1.0  0.31779000000000013  0.36761  0.13877  1.0000
  O   O81       1.0  0.4037100000000001  0.2651  0.13589  1.0000
  O   O82       1.0  0.27366  0.24805999999999997  0.09784  1.0000
  O   O83       1.0  0.1056  0.86074  0.09714  1.0000
  O   O84       1.0  0.17829  0.87807  0.020340000000000004  1.0000
  O   O85       1.0  0.17945  0.98023  0.08579000000000002  1.0000
  O   O86       1.0  0.13021000000000002  0.8700399999999997  0.91587  1.0000
  O   O87       1.0  0.06725  0.8013  0.98354  1.0000
  O   O88       1.0  0.99318  0.8422899999999998  0.90347  1.0000
  O   O89       1.0  0.9075  0.14235999999999993  0.09725  1.0000
  O   O90       1.0  0.58546  0.35383999999999993  0.21966  1.0000
  O   O91       1.0  0.8336400000000002  0.14325  0.01862  1.0000
  O   O92       1.0  0.82358  0.03186  0.07894  1.0000
  O   O93       1.0  0.86257  0.13251999999999997  0.91559  1.0000
  O   O94       1.0  0.9440300000000001  0.20529  0.97004  1.0000
  O   O95       1.0  0.9945100000000001  0.15439999999999995  0.88598  1.0000
  O   O96       1.0  0.57012  0.3486399999999999  0.60483  1.0000
  O   O97       1.0  0.6463000000000002  0.33493  0.52987  1.0000
  O   O98       1.0  0.6708800000000003  0.44398  0.58761  1.0000
  O   O99       1.0  0.62667  0.35158  0.42624  1.0000
  O   O100      1.0  0.53153  0.29163  0.4766200000000001  1.0000
  O   O101      1.0  0.41454  0.35383999999999993  0.78034  1.0000
  O   O102      1.0  0.4963  0.3480699999999999  0.38815  1.0000
  O   O103      1.0  0.41427000000000014  0.646  0.59564  1.0000
  O   O104      1.0  0.33845000000000003  0.6455499999999998  0.51781  1.0000
  O   O105      1.0  0.32464  0.5389499999999998  0.58178  1.0000
  O   O106      1.0  0.37518  0.64114  0.41449  1.0000
  O   O107      1.0  0.4553100000000001  0.70458  0.47532  1.0000
  O   O108      1.0  0.51084  0.65503  0.39222  1.0000
  O   O109      1.0  4.359516519597047e-18  9.999999999997787e-06  0.7500400000000002  1.0000
  O   O110      1.0  0.41454  0.35383999999999993  0.21966  1.0000
  O   O111      1.0  0.8538200000000002  0.9145499999999998  0.21961  1.0000
  O   O112      1.0  0.8538200000000002  0.9145499999999998  0.7803900000000001  1.0000
  O   O113      1.0  0.14618  0.9145499999999998  0.21961  1.0000
  O   O114      1.0  0.14618  0.9145499999999998  0.7803900000000001  1.0000
  O   O115      1.0  0.35382  0.4145499999999999  0.71961  1.0000
  O   O116      1.0  0.35382  0.4145499999999999  0.28039  1.0000
  O   O117      1.0  0.64618  0.4145499999999999  0.71961  1.0000
  O   O118      1.0  0.64618  0.4145499999999999  0.28039  1.0000
  O   O119      1.0  0.14617000000000002  0.08543999999999999  0.21960000000000002  1.0000
  O   O120      1.0  0.5  0.50001  0.74996  1.0000
  O   O121      1.0  0.14617000000000002  0.08543999999999999  0.7804  1.0000
  O   O122      1.0  0.8538300000000002  0.08543999999999999  0.21960000000000002  1.0000
  O   O123      1.0  0.8538300000000002  0.08543999999999999  0.7804  1.0000
  O   O124      1.0  0.64617  0.58544  0.7196000000000001  1.0000
  O   O125      1.0  0.64617  0.58544  0.2804  1.0000
  O   O126      1.0  0.35383  0.58544  0.7196000000000001  1.0000
  O   O127      1.0  0.35383  0.58544  0.2804  1.0000
  O   O128      1.0  0.93927  0.99998  0.13416  1.0000
  O   O129      1.0  0.93927  0.99998  0.86584  1.0000
  O   O130      1.0  0.060730000000000006  0.99998  0.13416  1.0000
  O   O131      1.0  0.5  0.50001  0.25004  1.0000
  O   O132      1.0  0.060730000000000006  0.99998  0.86584  1.0000
  O   O133      1.0  0.43927  0.4999799999999999  0.63416  1.0000
  O   O134      1.0  0.43927  0.4999799999999999  0.36584  1.0000
  O   O135      1.0  0.56073  0.4999799999999999  0.63416  1.0000
  O   O136      1.0  0.56073  0.4999799999999999  0.36584  1.0000
  O   O137      1.0  6.118087517572737e-19  0.06076  0.36576  1.0000
  O   O138      1.0  6.118087517572737e-19  0.06076  0.63424  1.0000
  O   O139      1.0  0.5  0.5607599999999998  0.86576  1.0000
  O   O140      1.0  0.5  0.5607599999999998  0.13424  1.0000
  O   O141      1.0  1.505990773556366e-18  0.9393099999999999  0.36577  1.0000
  O   O142      1.0  0.9145200000000001  0.14619  0.2803  1.0000
  O   O143      1.0  3.011981547112732e-18  0.9393099999999999  0.6342300000000001  1.0000
  O   O144      1.0  0.5000000000000001  0.43931  0.86577  1.0000
  O   O145      1.0  0.5  0.43931  0.13423  1.0000
  O   O146      1.0  0.8674  0.09558999999999998  0.5938  1.0000
  O   O147      1.0  0.83776  0.20323999999999998  0.53982  1.0000
  O   O148      1.0  0.83132  0.07377  0.50027  1.0000
  O   O149      1.0  0.87038  0.23072999999999996  0.44434  1.0000
  O   O150      1.0  0.94889  0.20367  0.37366000000000005  1.0000
  O   O151      1.0  0.86326  0.10122  0.40445  1.0000
  O   O152      1.0  0.98426  0.19839999999999997  0.61948  1.0000
  O   O153      1.0  0.9145200000000001  0.14619  0.7197  1.0000
  O   O154      1.0  0.0958  0.17379999999999995  0.57606  1.0000
  O   O155      1.0  0.01682  0.28490999999999994  0.54472  1.0000
  O   O156      1.0  0.06581000000000001  0.26795999999999986  0.44939000000000007  1.0000
  O   O157      1.0  0.13523  0.16272  0.48346  1.0000
  O   O158      1.0  0.09652  0.16284  0.38865  1.0000
  O   O159      1.0  0.33082  0.50967  0.10814  1.0000
  O   O160      1.0  0.25097  0.5235699999999999  0.0331  1.0000
  O   O161      1.0  0.35534  0.42622  0.03201  1.0000
  O   O162      1.0  0.34735  0.5503  0.86909  1.0000
  O   O163      1.0  0.33133  0.45822999999999997  0.9360500000000002  1.0000
  O   O164      1.0  0.08548  0.14619  0.2803  1.0000
  O   O165      1.0  0.2454  0.57194  0.93383  1.0000
  O   O166      1.0  0.37719  0.6445999999999998  0.11885  1.0000
  O   O167      1.0  0.43784  0.71602  0.0532  1.0000
  O   O168      1.0  0.29709  0.7030399999999998  0.04741000000000001  1.0000
  O   O169      1.0  0.4087400000000001  0.68005  0.88114  1.0000
  O   O170      1.0  0.34592  0.7303499999999999  0.95337  1.0000
  O   O171      1.0  0.4861500000000001  0.71547  0.95959  1.0000
  O   O172      1.0  0.3124200000000001  0.9519899999999999  0.29202  1.0000
  O   O173      1.0  0.2021  0.91859  0.33665  1.0000
  O   O174      1.0  0.3221100000000001  0.86089  0.36992  1.0000
  O   O175      1.0  0.08548  0.14619  0.7197  1.0000
  O   O176      1.0  0.20876000000000003  0.95109  0.68404  1.0000
  O   O177      1.0  0.31492  0.9610599999999999  0.74064  1.0000
  O   O178      1.0  0.33126  0.91421  0.64797  1.0000
  O   O179      1.0  0.8115900000000001  0.85886  0.11879  1.0000
  O   O180      1.0  0.91039  0.78814  0.15926  1.0000
  O   O181      1.0  0.8164500000000001  0.71766  0.10534000000000002  1.0000
  O   O182      1.0  0.9197800000000002  0.7649899999999998  0.8278  1.0000
  O   O183      1.0  0.83349  0.83752  0.87693  1.0000
  O   O184      1.0  0.82836  0.69505  0.88437  1.0000
  O   O185      1.0  0.78583  0.46011  0.7016  1.0000
  O   O186      1.0  0.41452  0.64619  0.7803  1.0000
  O   O187      1.0  0.7685300000000003  0.4532399999999999  0.79432  1.0000
  O   O188      1.0  0.89327  0.41311  0.75911  1.0000
  O   O189      1.0  0.8040800000000002  0.45397  0.28224  1.0000
  O   O190      1.0  0.73511  0.4015  0.35397  1.0000
  O   O191      1.0  0.8679500000000001  0.36316  0.34668  1.0000
  O   O192      1.0  0.22771  0.41888999999999993  0.6479  1.0000
  O   O193      1.0  0.33376  0.34182  0.63099  1.0000
  O   O194      1.0  0.20704  0.29248  0.60634  1.0000
  O   O195      1.0  0.34293  0.32539  0.36965  1.0000
  O   O196      1.0  0.24627  0.41484  0.35006  1.0000
  S   S1        1.0  0.8743700000000001  0.12954  0.54117  1.0000
  S   S2        1.0  0.27914  0.9150099999999999  0.7003  1.0000
  S   S3        1.0  0.8311100000000001  0.7875599999999999  0.14538  1.0000
  S   S4        1.0  0.84327  0.76898  0.84661  1.0000
  S   S5        1.0  0.8028100000000002  0.41613  0.74967  1.0000
  S   S6        1.0  0.79133  0.38621  0.31431  1.0000
  S   S7        1.0  0.25622  0.34178  0.6481300000000001  1.0000
  S   S8        1.0  0.26562  0.33478  0.35154  1.0000
  S   S9        1.0  0.85666  0.28641  0.67074  1.0000
  S   S10       1.0  0.89448  0.30372  0.22866  1.0000
  S   S11       1.0  0.10342  0.30976  0.71276  1.0000
  S   S12       1.0  0.9161400000000001  0.17183999999999994  0.4214800000000001  1.0000
  S   S13       1.0  0.11088000000000002  0.30643  0.28097  1.0000
  S   S14       1.0  0.4136400000000001  0.79005  0.27667  1.0000
  S   S15       1.0  0.4106400000000001  0.79214  0.70444  1.0000
  S   S16       1.0  0.65863  0.73173  0.1454  1.0000
  S   S17       1.0  0.66744  0.72718  0.8525700000000002  1.0000
  S   S18       1.0  0.6973599999999999  0.08688999999999998  0.7576  1.0000
  S   S19       1.0  0.69955  0.08122  0.22355  1.0000
  S   S20       1.0  0.24854  0.14611  0.84955  1.0000
  S   S21       1.0  0.27828  0.11645999999999998  0.17394  1.0000
  S   S22       1.0  0.21455  0.5930499999999997  0.19734000000000002  1.0000
  S   S23       1.0  0.01859  0.1985099999999999  0.56792  1.0000
  S   S24       1.0  0.20235000000000003  0.5848499999999999  0.75085  1.0000
  S   S25       1.0  0.74087  0.6551899999999999  0.35093  1.0000
  S   S26       1.0  0.68309  0.69234  0.64011  1.0000
  S   S27       1.0  0.09056  0.72255  0.19698  1.0000
  S   S28       1.0  0.10249000000000001  0.7171099999999998  0.8022  1.0000
  S   S29       1.0  0.78329  0.83376  0.35205  1.0000
  S   S30       1.0  0.77784  0.8493999999999999  0.6446  1.0000
  S   S31       1.0  0.62869  0.21269  0.83232  1.0000
  S   S32       1.0  0.5769500000000001  0.20105999999999993  0.26653  1.0000
  S   S33       1.0  0.40267  0.19865999999999998  0.79584  1.0000
  S   S34       1.0  0.07358  0.18612  0.44839  1.0000
  S   S35       1.0  0.32570000000000005  0.28603  0.14373  1.0000
  S   S36       1.0  0.12927  0.9156099999999999  0.05731  1.0000
  S   S37       1.0  0.06046000000000001  0.8628999999999999  0.94461  1.0000
  S   S38       1.0  0.8789900000000002  0.09591999999999999  0.0544  1.0000
  S   S39       1.0  0.93899  0.13997999999999997  0.93583  1.0000
  S   S40       1.0  0.60713  0.3893399999999999  0.56203  1.0000
  S   S41       1.0  0.54845  0.35524  0.4414  1.0000
  S   S42       1.0  0.38252  0.59848  0.55457  1.0000
  S   S43       1.0  0.44976  0.64198  0.43867  1.0000
  S   S44       1.0  0.32797  0.5095899999999999  0.05052  1.0000
  S   S45       1.0  0.32950000000000007  0.5390399999999997  0.92474  1.0000
  S   S46       1.0  0.37723000000000007  0.6631099999999999  0.06253  1.0000
  S   S47       1.0  0.40692  0.68055  0.9387  1.0000
  S   S48       1.0  0.27353  0.8901099999999998  0.31818  1.0000
  Zn  Zn1       1.0  7.52995386778183e-19  0.9132599999999998  0.29335  1.0000
  Zn  Zn2       1.0  0.41323  0.4999999999999999  0.29342  1.0000
  Zn  Zn3       1.0  0.58677  0.4999999999999999  0.70658  1.0000
  Zn  Zn4       1.0  0.58677  0.4999999999999999  0.29342  1.0000
  Zn  Zn5       1.0  0.0  0.08678  0.29333  1.0000
  Zn  Zn6       1.0  1.2236175035145474e-18  0.08678  0.70667  1.0000
  Zn  Zn7       1.0  0.5  0.58678  0.79333  1.0000
  Zn  Zn8       1.0  0.5  0.58678  0.20667  1.0000
  Zn  Zn9       1.0  7.52995386778183e-19  0.9132599999999998  0.70665  1.0000
  Zn  Zn10      1.0  0.5  0.4132599999999999  0.7933500000000001  1.0000
  Zn  Zn11      1.0  0.5  0.41326  0.20665000000000003  1.0000
  Zn  Zn12      1.0  0.9132300000000001  0.9999999999999998  0.20658  1.0000
  Zn  Zn13      1.0  0.9132300000000001  0.9999999999999998  0.79342  1.0000
  Zn  Zn14      1.0  0.08677  0.9999999999999998  0.20658  1.0000
  Zn  Zn15      1.0  0.08677  0.9999999999999998  0.79342  1.0000
  Zn  Zn16      1.0  0.41323  0.4999999999999999  0.70658  1.0000
