data_image0
_chemical_formula_structural       C384H48O192Zn48Cl48
_chemical_formula_sum              "C384 H48 O192 Zn48 Cl48"
_cell_length_a       32.72564
_cell_length_b       32.71609
_cell_length_c       32.659029999999994
_cell_angle_alpha    90.08631000000001
_cell_angle_beta     89.94658999999999
_cell_angle_gamma    89.85812

_symmetry_space_group_name_H-M    'P 1'
_symmetry_Int_Tables_number       1

loop_
  _symmetry_equiv_pos_as_xyz
  'x,y,z'

loop_
  _atom_site_type_symbol
  _atom_site_label
  _atom_site_symmetry_multiplicity
  _atom_site_fract_x
  _atom_site_fract_y
  _atom_site_fract_z
  _atom_site_occupancy
  C   C1        1.0  0.36697  0.41931  0.86685  1.0000
  C   C2        1.0  0.1332  0.5805599999999997  0.36678  1.0000
  C   C3        1.0  0.63308  0.41932  0.13294  1.0000
  C   C4        1.0  0.8671799999999997  0.58048  0.63277  1.0000
  C   C5        1.0  0.36716  0.58051  0.1328  1.0000
  C   C6        1.0  0.13308999999999999  0.4193  0.63295  1.0000
  C   C7        1.0  0.63317  0.58052  0.86681  1.0000
  C   C8        1.0  0.8669599999999997  0.41931  0.36684  1.0000
  C   C9        1.0  0.58071  0.8669799999999998  0.6329  1.0000
  C   C10       1.0  0.4194999999999999  0.36688  0.8668400000000003  1.0000
  C   C11       1.0  0.58072  0.13305  0.36685  1.0000
  C   C12       1.0  0.4195199999999999  0.63286  0.1328  1.0000
  C   C13       1.0  0.41955  0.13284  0.63278  1.0000
  C   C14       1.0  0.58074  0.63306  0.8668400000000003  1.0000
  C   C15       1.0  0.41948999999999986  0.86686  0.36682000000000003  1.0000
  C   C16       1.0  0.58074  0.3669499999999999  0.13293  1.0000
  C   C17       1.0  0.1332  0.63312  0.41925  1.0000
  C   C18       1.0  0.63307  0.86695  0.58027  1.0000
  C   C19       1.0  0.8669699999999998  0.3669  0.41929  1.0000
  C   C20       1.0  0.36717  0.13284  0.58025  1.0000
  C   C21       1.0  0.8671799999999997  0.63284  0.58025  1.0000
  C   C22       1.0  0.36694  0.86686  0.41926  1.0000
  C   C23       1.0  0.13310999999999995  0.36691  0.58031  1.0000
  C   C24       1.0  0.63313  0.13305  0.41932  1.0000
  C   C25       1.0  0.8669999999999998  0.9193399999999998  0.86688  1.0000
  C   C26       1.0  0.1332  0.08056  0.86678  1.0000
  C   C27       1.0  0.13308999999999999  0.9193099999999997  0.13295  1.0000
  C   C28       1.0  0.86721  0.08045  0.13274  1.0000
  C   C29       1.0  0.08075  0.8669399999999998  0.13294  1.0000
  C   C30       1.0  0.9195199999999998  0.8668899999999998  0.86685  1.0000
  C   C31       1.0  0.08078  0.13310999999999995  0.86679  1.0000
  C   C32       1.0  0.9195699999999998  0.13281  0.13275000000000006  1.0000
  C   C33       1.0  0.1332  0.13311999999999993  0.91925  1.0000
  C   C34       1.0  0.13308999999999999  0.8669199999999998  0.08029  1.0000
  C   C35       1.0  0.8669799999999998  0.8668899999999998  0.91929  1.0000
  C   C36       1.0  0.8671799999999997  0.13284  0.08024  1.0000
  C   C37       1.0  0.36694  0.9192899999999998  0.36682000000000003  1.0000
  C   C38       1.0  0.63313  0.08049  0.36685  1.0000
  C   C39       1.0  0.63304  0.91935  0.6329  1.0000
  C   C40       1.0  0.36718  0.08049  0.63278  1.0000
  C   C41       1.0  0.08077  0.3669199999999999  0.63296  1.0000
  C   C42       1.0  0.9195099999999998  0.36689  0.36684  1.0000
  C   C43       1.0  0.08078  0.63311  0.36679  1.0000
  C   C44       1.0  0.9195499999999998  0.63283  0.63277  1.0000
  C   C45       1.0  0.63316  0.63308  0.91928  1.0000
  C   C46       1.0  0.6331  0.36692999999999987  0.08029  1.0000
  C   C47       1.0  0.36695  0.36688  0.91927  1.0000
  C   C48       1.0  0.36714  0.6328699999999998  0.08028  1.0000
  C   C49       1.0  0.45782  0.14648  0.95779  1.0000
  C   C50       1.0  0.04214  0.85358  0.4578300000000001  1.0000
  C   C51       1.0  0.53978  0.14326  0.04014  1.0000
  C   C52       1.0  0.9602199999999997  0.85672  0.54016  1.0000
  C   C53       1.0  0.45707  0.85195  0.04296  1.0000
  C   C54       1.0  0.0429  0.14801  0.54293  1.0000
  C   C55       1.0  0.53216  0.86319  0.96778  1.0000
  C   C56       1.0  0.96809  0.13669  0.468  1.0000
  C   C57       1.0  0.85689  0.9602699999999997  0.5401  1.0000
  C   C58       1.0  0.14259  0.4607099999999999  0.96017  1.0000
  C   C59       1.0  0.8632699999999999  0.0321  0.46787  1.0000
  C   C60       1.0  0.1478  0.54282  0.04285  1.0000
  C   C61       1.0  0.14313  0.04026  0.53968  1.0000
  C   C62       1.0  0.8535  0.5421999999999998  0.95778  1.0000
  C   C63       1.0  0.14642999999999995  0.9578499999999998  0.45782  1.0000
  C   C64       1.0  0.85344  0.45777  0.04226  1.0000
  C   C65       1.0  0.03984  0.5393099999999997  0.14262  1.0000
  C   C66       1.0  0.5314  0.9685999999999998  0.8636  1.0000
  C   C67       1.0  0.9577799999999997  0.45777  0.14658  1.0000
  C   C68       1.0  0.45773  0.04227  0.85333  1.0000
  C   C69       1.0  0.9577499999999998  0.54225  0.85337  1.0000
  C   C70       1.0  0.46046  0.9599  0.14289  1.0000
  C   C71       1.0  0.04276  0.45722999999999997  0.85228  1.0000
  C   C72       1.0  0.53298  0.03305  0.1372  1.0000
  C   C73       1.0  0.9577999999999998  0.64651  0.95778  1.0000
  C   C74       1.0  0.03929  0.3573999999999999  0.96017  1.0000
  C   C75       1.0  0.03986  0.6426299999999998  0.03933  1.0000
  C   C76       1.0  0.9577499999999998  0.3534  0.04228  1.0000
  C   C77       1.0  0.3568999999999999  0.95974  0.03967  1.0000
  C   C78       1.0  0.63686  0.96769  0.9676700000000003  1.0000
  C   C79       1.0  0.35353  0.04217999999999999  0.9578  1.0000
  C   C80       1.0  0.64314  0.03974  0.04011  1.0000
  C   C81       1.0  0.03957  0.040109999999999986  0.64292  1.0000
  C   C82       1.0  0.04222  0.9577799999999997  0.35342  1.0000
  C   C83       1.0  0.9671199999999998  0.9670299999999997  0.63715  1.0000
  C   C84       1.0  0.96881  0.031189999999999996  0.36367  1.0000
  C   C85       1.0  0.46031  0.64313  0.4596900000000001  1.0000
  C   C86       1.0  0.53288  0.36287  0.46715  1.0000
  C   C87       1.0  0.53995  0.6435  0.54026  1.0000
  C   C88       1.0  0.4600299999999999  0.35654999999999987  0.54026  1.0000
  C   C89       1.0  0.35651  0.4600499999999999  0.54026  1.0000
  C   C90       1.0  0.64345  0.4596999999999999  0.46009  1.0000
  C   C91       1.0  0.35687999999999986  0.53969  0.4596900000000001  1.0000
  C   C92       1.0  0.64344  0.53995  0.54023  1.0000
  C   C93       1.0  0.53436  0.53436  0.63808  1.0000
  C   C94       1.0  0.53934  0.4603399999999999  0.35738  1.0000
  C   C95       1.0  0.4658  0.46581  0.63796  1.0000
  C   C96       1.0  0.45707  0.54293  0.3519  1.0000
  C   C97       1.0  0.4597  0.25534  0.9597  1.0000
  C   C98       1.0  0.04029999999999999  0.74467  0.45968  1.0000
  C   C99       1.0  0.54026  0.25535  0.04032  1.0000
  C   C100      1.0  0.95975  0.74464  0.54029  1.0000
  C   C101      1.0  0.4597599999999999  0.74462  0.04028000000000002  1.0000
  C   C102      1.0  0.04025  0.2553599999999999  0.54031  1.0000
  C   C103      1.0  0.5403  0.74468  0.95968  1.0000
  C   C104      1.0  0.9597  0.25533  0.4597  1.0000
  C   C105      1.0  0.7446499999999999  0.9597299999999997  0.54031  1.0000
  C   C106      1.0  0.2553299999999999  0.4596999999999999  0.95968  1.0000
  C   C107      1.0  0.7446699999999998  0.040309999999999985  0.4597  1.0000
  C   C108      1.0  0.2553799999999999  0.54025  0.04028000000000002  1.0000
  C   C109      1.0  0.25535999999999986  0.04026  0.54029  1.0000
  C   C110      1.0  0.7446599999999999  0.5402999999999998  0.9597  1.0000
  C   C111      1.0  0.2553399999999999  0.9597  0.4596900000000001  1.0000
  C   C112      1.0  0.7446499999999999  0.45974  0.04031  1.0000
  C   C113      1.0  0.04029  0.54031  0.25532  1.0000
  C   C114      1.0  0.54029  0.9597  0.7446700000000003  1.0000
  C   C115      1.0  0.95971  0.45972  0.25534  1.0000
  C   C116      1.0  0.45972999999999997  0.04027  0.74464  1.0000
  C   C117      1.0  0.95973  0.54027  0.74464  1.0000
  C   C118      1.0  0.4597  0.9597099999999997  0.25532  1.0000
  C   C119      1.0  0.04028  0.45971  0.74465  1.0000
  C   C120      1.0  0.54029  0.040309999999999985  0.25532  1.0000
  C   C121      1.0  0.9597  0.75534  0.9597  1.0000
  C   C122      1.0  0.04029999999999999  0.24467999999999998  0.9596700000000002  1.0000
  C   C123      1.0  0.04027  0.75534  0.04032  1.0000
  C   C124      1.0  0.95975  0.24462999999999996  0.04029  1.0000
  C   C125      1.0  0.24465  0.9597299999999997  0.04032  1.0000
  C   C126      1.0  0.75533  0.9597  0.95969  1.0000
  C   C127      1.0  0.24466000000000002  0.0403  0.9597  1.0000
  C   C128      1.0  0.75536  0.04026  0.04029  1.0000
  C   C129      1.0  0.04029  0.040309999999999985  0.75532  1.0000
  C   C130      1.0  0.04029  0.9597  0.24467  1.0000
  C   C131      1.0  0.9597  0.9597099999999997  0.75532  1.0000
  C   C132      1.0  0.95973  0.04027  0.24465  1.0000
  C   C133      1.0  0.4597  0.7553299999999997  0.4597  1.0000
  C   C134      1.0  0.5403  0.24467999999999998  0.45968  1.0000
  C   C135      1.0  0.54026  0.75535  0.54032  1.0000
  C   C136      1.0  0.45974999999999994  0.24463999999999997  0.54029  1.0000
  C   C137      1.0  0.24465  0.45973  0.54031  1.0000
  C   C138      1.0  0.75533  0.4596999999999999  0.4596900000000001  1.0000
  C   C139      1.0  0.24467000000000003  0.54031  0.4596900000000001  1.0000
  C   C140      1.0  0.75536  0.54026  0.54029  1.0000
  C   C141      1.0  0.54029  0.54031  0.75532  1.0000
  C   C142      1.0  0.54029  0.4596999999999999  0.24468  1.0000
  C   C143      1.0  0.4597  0.45971  0.75532  1.0000
  C   C144      1.0  0.4597399999999999  0.54026  0.24463  1.0000
  C   C145      1.0  0.4020299999999999  0.40188  0.84939  1.0000
  C   C146      1.0  0.15065  0.59804  0.4018  1.0000
  C   C147      1.0  0.5981399999999998  0.40191  0.15043  1.0000
  C   C148      1.0  0.84972  0.59788  0.59772  1.0000
  C   C149      1.0  0.40211999999999987  0.59791  0.15029000000000003  1.0000
  C   C150      1.0  0.15054  0.40189  0.59783  1.0000
  C   C151      1.0  0.5981699999999998  0.598  0.84936  1.0000
  C   C152      1.0  0.84949  0.40188  0.40184  1.0000
  C   C153      1.0  0.5981099999999998  0.84951  0.59779  1.0000
  C   C154      1.0  0.5981499999999997  0.15053  0.40186  1.0000
  C   C155      1.0  0.4021399999999999  0.1503  0.59772  1.0000
  C   C156      1.0  0.4020099999999999  0.8494  0.40183  1.0000
  C   C157      1.0  0.90205  0.9019  0.84941  1.0000
  C   C158      1.0  0.15065  0.09804999999999997  0.9018  1.0000
  C   C159      1.0  0.09815  0.9019  0.15044  1.0000
  C   C160      1.0  0.84974  0.09787  0.0977  1.0000
  C   C161      1.0  0.90217  0.09785  0.15022  1.0000
  C   C162      1.0  0.15054  0.9019  0.09782  1.0000
  C   C163      1.0  0.09820999999999998  0.09804  0.84932  1.0000
  C   C164      1.0  0.84951  0.9019  0.90187  1.0000
  C   C165      1.0  0.09814  0.84948  0.09782  1.0000
  C   C166      1.0  0.09820999999999998  0.15059  0.9018  1.0000
  C   C167      1.0  0.90215  0.15028999999999995  0.09771  1.0000
  C   C168      1.0  0.90203  0.8494299999999998  0.90185  1.0000
  C   C169      1.0  0.90202  0.40188  0.34937  1.0000
  C   C170      1.0  0.65063  0.59802  0.90183  1.0000
  C   C171      1.0  0.09815999999999998  0.40189  0.65045  1.0000
  C   C172      1.0  0.34969  0.59791  0.09775  1.0000
  C   C173      1.0  0.90214  0.59788  0.65026  1.0000
  C   C174      1.0  0.65054  0.40191  0.09782  1.0000
  C   C175      1.0  0.09820999999999998  0.59804  0.3493200000000001  1.0000
  C   C176      1.0  0.34948  0.40187  0.9018400000000002  1.0000
  C   C177      1.0  0.5981399999999998  0.34949  0.09781  1.0000
  C   C178      1.0  0.4020099999999999  0.90186  0.34936000000000006  1.0000
  C   C179      1.0  0.5981699999999998  0.65055  0.9018400000000002  1.0000
  C   C180      1.0  0.4021399999999999  0.09788999999999998  0.65026  1.0000
  C   C181      1.0  0.40211999999999987  0.65032  0.09775  1.0000
  C   C182      1.0  0.5981399999999998  0.09797999999999997  0.34939  1.0000
  C   C183      1.0  0.4020099999999999  0.34941  0.9018400000000002  1.0000
  C   C184      1.0  0.5980999999999997  0.9019399999999997  0.65039  1.0000
  C   C185      1.0  0.65058  0.09797999999999997  0.40187  1.0000
  C   C186      1.0  0.09815999999999998  0.34946  0.59784  1.0000
  C   C187      1.0  0.34946  0.90186  0.40182  1.0000
  C   C188      1.0  0.90215  0.6502899999999998  0.59772  1.0000
  C   C189      1.0  0.34972  0.09788  0.59772  1.0000
  C   C190      1.0  0.90204  0.34943999999999986  0.40186  1.0000
  C   C191      1.0  0.65051  0.90193  0.59779  1.0000
  C   C192      1.0  0.09820999999999998  0.65059  0.4018  1.0000
  C   C193      1.0  0.28751  0.4386299999999999  0.93859  1.0000
  C   C194      1.0  0.06136  0.5613699999999998  0.28745  1.0000
  C   C195      1.0  0.71247  0.4387199999999999  0.06132  1.0000
  C   C196      1.0  0.9387299999999997  0.56127  0.71239  1.0000
  C   C197      1.0  0.28763  0.56123  0.061270000000000005  1.0000
  C   C198      1.0  0.06137  0.4386199999999999  0.71248  1.0000
  C   C199      1.0  0.71252  0.5613499999999999  0.93863  1.0000
  C   C200      1.0  0.9386599999999998  0.43867  0.28747  1.0000
  C   C201      1.0  0.56136  0.9386399999999998  0.7124600000000002  1.0000
  C   C202      1.0  0.43866  0.2875  0.93864  1.0000
  C   C203      1.0  0.56133  0.06135  0.28747  1.0000
  C   C204      1.0  0.43878  0.71237  0.06126000000000001  1.0000
  C   C205      1.0  0.43873  0.06128  0.71239  1.0000
  C   C206      1.0  0.56137  0.7124999999999998  0.93859  1.0000
  C   C207      1.0  0.43866  0.9386599999999998  0.28747  1.0000
  C   C208      1.0  0.56128  0.28754  0.06133000000000001  1.0000
  C   C209      1.0  0.06138999999999999  0.7125199999999998  0.43857  1.0000
  C   C210      1.0  0.71246  0.9387299999999997  0.56131  1.0000
  C   C211      1.0  0.9386799999999997  0.28752  0.43865  1.0000
  C   C212      1.0  0.28763  0.06122999999999999  0.56126  1.0000
  C   C213      1.0  0.9387899999999998  0.71237  0.56125  1.0000
  C   C214      1.0  0.2875  0.9386199999999998  0.43859  1.0000
  C   C215      1.0  0.06129  0.28753  0.56134  1.0000
  C   C216      1.0  0.7125  0.06133  0.43865  1.0000
  C   C217      1.0  0.78753  0.9386399999999998  0.93861  1.0000
  C   C218      1.0  0.06136  0.061369999999999994  0.78745  1.0000
  C   C219      1.0  0.21247  0.93872  0.06132  1.0000
  C   C220      1.0  0.9387499999999998  0.06126  0.21237  1.0000
  C   C221      1.0  0.78764  0.06121999999999999  0.06125  1.0000
  C   C222      1.0  0.06138  0.93861  0.21248  1.0000
  C   C223      1.0  0.21253  0.06135999999999999  0.9386200000000001  1.0000
  C   C224      1.0  0.9386799999999997  0.9386799999999997  0.78749  1.0000
  C   C225      1.0  0.9386699999999998  0.7875  0.93864  1.0000
  C   C226      1.0  0.9387899999999998  0.21237  0.06125  1.0000
  C   C227      1.0  0.06138999999999999  0.21251999999999993  0.93857  1.0000
  C   C228      1.0  0.06129  0.7875299999999997  0.06133000000000001  1.0000
  C   C229      1.0  0.78751  0.4386299999999999  0.4386  1.0000
  C   C230      1.0  0.56134  0.5613499999999999  0.78747  1.0000
  C   C231      1.0  0.21247  0.4387199999999999  0.56132  1.0000
  C   C232      1.0  0.43873  0.5612799999999998  0.21239  1.0000
  C   C233      1.0  0.78763  0.56122  0.56126  1.0000
  C   C234      1.0  0.56137  0.4386199999999999  0.21248  1.0000
  C   C235      1.0  0.21253  0.56136  0.43862  1.0000
  C   C236      1.0  0.43867  0.43867  0.78748  1.0000
  C   C237      1.0  0.43866  0.7874899999999998  0.43863  1.0000
  C   C238      1.0  0.43879  0.21237  0.56125  1.0000
  C   C239      1.0  0.56137  0.2125  0.4386  1.0000
  C   C240      1.0  0.56128  0.78754  0.56132  1.0000
  C   C241      1.0  0.60821  0.05695  0.05933  1.0000
  C   C242      1.0  0.9514399999999997  0.95115  0.59984  1.0000
  C   C243      1.0  0.38122  0.06678999999999997  0.93323  1.0000
  C   C244      1.0  0.0668  0.9331799999999998  0.38111  1.0000
  C   C245      1.0  0.59709  0.9545199999999998  0.95464  1.0000
  C   C246      1.0  0.95586  0.04416999999999999  0.4039  1.0000
  C   C247      1.0  0.38936  0.9381199999999997  0.05930000000000001  1.0000
  C   C248      1.0  0.05917  0.06169  0.61042  1.0000
  C   C249      1.0  0.06112  0.6098499999999998  0.05867  1.0000
  C   C250      1.0  0.05863  0.39018  0.93893  1.0000
  C   C251      1.0  0.93307  0.38101  0.06699  1.0000
  C   C252      1.0  0.93315  0.61886  0.93318  1.0000
  C   C253      1.0  0.12005999999999997  0.5675  0.06757  1.0000
  C   C254      1.0  0.93311  0.43315  0.119  1.0000
  C   C255      1.0  0.88116  0.56684  0.93319  1.0000
  C   C256      1.0  0.06741  0.43257  0.88001  1.0000
  C   C257      1.0  0.10981  0.44135999999999986  0.93893  1.0000
  C   C258      1.0  0.93304  0.56696  0.88094  1.0000
  C   C259      1.0  0.88108  0.43315  0.06694  1.0000
  C   C260      1.0  0.06111  0.55863  0.10986000000000003  1.0000
  C   C261      1.0  0.43306  0.06692999999999998  0.88097  1.0000
  C   C262      1.0  0.55692  0.10847  0.05943  1.0000
  C   C263      1.0  0.44081  0.9382999999999998  0.11042  1.0000
  C   C264      1.0  0.54536  0.90289  0.9546  1.0000
  C   C265      1.0  0.54444  0.9555399999999997  0.90371  1.0000
  C   C266      1.0  0.43223  0.87944  0.06781000000000001  1.0000
  C   C267      1.0  0.54865  0.04897  0.09993  1.0000
  C   C268      1.0  0.43318999999999996  0.11880999999999997  0.93322  1.0000
  C   C269      1.0  0.94309  0.8915699999999998  0.55942  1.0000
  C   C270      1.0  0.90311  0.04525999999999999  0.45484000000000013  1.0000
  C   C271      1.0  0.06763  0.12046999999999997  0.56775  1.0000
  C   C272      1.0  0.11871  0.9332599999999998  0.4332600000000001  1.0000
  C   C273      1.0  0.06671  0.8812899999999998  0.4332600000000001  1.0000
  C   C274      1.0  0.11063  0.06187  0.55931  1.0000
  C   C275      1.0  0.9549  0.09691  0.45486  1.0000
  C   C276      1.0  0.8918299999999998  0.9431199999999997  0.5593  1.0000
  C   C277      1.0  0.609  0.55767  0.55972  1.0000
  C   C278      1.0  0.44988  0.45008  0.60096  1.0000
  C   C279      1.0  0.38912  0.55957  0.43787  1.0000
  C   C280      1.0  0.55642  0.44149  0.39258  1.0000
  C   C281      1.0  0.60879  0.4401099999999999  0.44294  1.0000
  C   C282      1.0  0.43207  0.5679099999999998  0.37916  1.0000
  C   C283      1.0  0.3909  0.44246999999999986  0.5598  1.0000
  C   C284      1.0  0.55014  0.55028  0.60115  1.0000
  C   C285      1.0  0.5575999999999998  0.60915  0.55982  1.0000
  C   C286      1.0  0.54885  0.40028  0.45178  1.0000
  C   C287      1.0  0.44241  0.39111  0.55963  1.0000
  C   C288      1.0  0.44041  0.6108799999999998  0.43786  1.0000
  C   C289      1.0  0.5826299999999998  0.03161  0.08243  1.0000
  C   C290      1.0  0.9174  0.9684899999999997  0.58244  1.0000
  C   C291      1.0  0.39641  0.05133999999999998  0.89633  1.0000
  C   C292      1.0  0.10348  0.9487399999999998  0.39643  1.0000
  C   C293      1.0  0.57718  0.97484  0.92282  1.0000
  C   C294      1.0  0.9230599999999998  0.02489999999999999  0.42299  1.0000
  C   C295      1.0  0.41578  0.96001  0.08401  1.0000
  C   C296      1.0  0.08422  0.03998  0.58398  1.0000
  C   C297      1.0  0.9752  0.07694  0.423  1.0000
  C   C298      1.0  0.03911  0.58313  0.08311  1.0000
  C   C299      1.0  0.96866  0.91693  0.58251  1.0000
  C   C300      1.0  0.05112  0.3973399999999999  0.89716  1.0000
  C   C301      1.0  0.051229999999999984  0.89651  0.3964400000000001  1.0000
  C   C302      1.0  0.94863  0.3963199999999999  0.10375  1.0000
  C   C303      1.0  0.05122  0.1033  0.60307  1.0000
  C   C304      1.0  0.94857  0.6036699999999998  0.89627  1.0000
  C   C305      1.0  0.89634  0.3963299999999999  0.05141  1.0000
  C   C306      1.0  0.39654  0.10347  0.94895  1.0000
  C   C307      1.0  0.10286999999999998  0.6027499999999998  0.05124  1.0000
  C   C308      1.0  0.57884  0.92103  0.97354  1.0000
  C   C309      1.0  0.08317  0.41682999999999987  0.96099  1.0000
  C   C310      1.0  0.59747  0.09755  0.05217  1.0000
  C   C311      1.0  0.89649  0.60352  0.9489  1.0000
  C   C312      1.0  0.39682  0.8964999999999997  0.05153  1.0000
  C   C313      1.0  0.10285999999999997  0.5511599999999998  0.10281  1.0000
  C   C314      1.0  0.89639  0.44879  0.1037  1.0000
  C   C315      1.0  0.89636  0.55139  0.89628  1.0000
  C   C316      1.0  0.10265  0.44885  0.89716  1.0000
  C   C317      1.0  0.44862  0.10361999999999998  0.89631  1.0000
  C   C318      1.0  0.5314  0.08318  0.08265  1.0000
  C   C319      1.0  0.44859  0.8966499999999997  0.10313  1.0000
  C   C320      1.0  0.52509  0.9227899999999999  0.92277  1.0000
  C   C321      1.0  0.90256  0.9024999999999997  0.55217  1.0000
  C   C322      1.0  0.92135  0.07881  0.47377  1.0000
  C   C323      1.0  0.10312  0.10345  0.55151  1.0000
  C   C324      1.0  0.10339  0.8965899999999998  0.4489000000000001  1.0000
  C   C325      1.0  0.58391  0.53269  0.58352  1.0000
  C   C326      1.0  0.41584  0.46757  0.58376  1.0000
  C   C327      1.0  0.39668  0.55162  0.39626  1.0000
  C   C328      1.0  0.59732  0.4478899999999999  0.40266  1.0000
  C   C329      1.0  0.44831  0.6033299999999998  0.39625  1.0000
  C   C330      1.0  0.5325699999999998  0.5842299999999998  0.58383  1.0000
  C   C331      1.0  0.46746  0.41633  0.58326  1.0000
  C   C332      1.0  0.53089  0.4192599999999999  0.4188300000000001  1.0000
  C   C333      1.0  0.40191  0.40199  0.55205  1.0000
  C   C334      1.0  0.41525  0.5847499999999998  0.45959  1.0000
  C   C335      1.0  0.5980699999999998  0.5981599999999998  0.55206  1.0000
  C   C336      1.0  0.58399  0.41622  0.46837  1.0000
  C   C337      1.0  0.31534  0.42152  0.9214800000000002  1.0000
  C   C338      1.0  0.07853  0.57842  0.31523  1.0000
  C   C339      1.0  0.68465  0.42156  0.07827  1.0000
  C   C340      1.0  0.9217  0.57831  0.68449  1.0000
  C   C341      1.0  0.31551  0.57831  0.07822  1.0000
  C   C342      1.0  0.07851  0.42152  0.68463  1.0000
  C   C343      1.0  0.68472  0.5784  0.92149  1.0000
  C   C344      1.0  0.92162  0.42153  0.31527  1.0000
  C   C345      1.0  0.57847  0.92156  0.68458  1.0000
  C   C346      1.0  0.42162  0.3153  0.9215  1.0000
  C   C347      1.0  0.57848  0.07838  0.31528  1.0000
  C   C348      1.0  0.42171  0.6845  0.07822  1.0000
  C   C349      1.0  0.4217  0.07832  0.68449  1.0000
  C   C350      1.0  0.57851  0.68468  0.92149  1.0000
  C   C351      1.0  0.42162  0.92152  0.31527  1.0000
  C   C352      1.0  0.57847  0.3153699999999999  0.07826  1.0000
  C   C353      1.0  0.07854  0.68472  0.42145  1.0000
  C   C354      1.0  0.68463  0.9215799999999997  0.57825  1.0000
  C   C355      1.0  0.92164  0.31533  0.42152  1.0000
  C   C356      1.0  0.31552  0.07829999999999997  0.5782  1.0000
  C   C357      1.0  0.92173  0.6844799999999998  0.5782  1.0000
  C   C358      1.0  0.31532  0.9215  0.42147  1.0000
  C   C359      1.0  0.07848000000000001  0.3153499999999999  0.57828  1.0000
  C   C360      1.0  0.68468  0.07836999999999997  0.42152  1.0000
  C   C361      1.0  0.81537  0.92154  0.92151  1.0000
  C   C362      1.0  0.07852  0.07841999999999998  0.8152300000000002  1.0000
  C   C363      1.0  0.18464999999999995  0.92156  0.07827  1.0000
  C   C364      1.0  0.92173  0.07829  0.18445  1.0000
  C   C365      1.0  0.81554  0.07829  0.07819  1.0000
  C   C366      1.0  0.07850999999999998  0.92152  0.18463  1.0000
  C   C367      1.0  0.18473999999999993  0.07841999999999998  0.92147  1.0000
  C   C368      1.0  0.92165  0.9215499999999998  0.8153  1.0000
  C   C369      1.0  0.92163  0.81531  0.92151  1.0000
  C   C370      1.0  0.92173  0.18448  0.07819  1.0000
  C   C371      1.0  0.07854  0.18471  0.92146  1.0000
  C   C372      1.0  0.07847  0.81536  0.07827  1.0000
  C   C373      1.0  0.81534  0.42152  0.42148  1.0000
  C   C374      1.0  0.5785  0.5783899999999997  0.81526  1.0000
  C   C375      1.0  0.18464999999999995  0.42156  0.57827  1.0000
  C   C376      1.0  0.42169  0.57833  0.18450000000000005  1.0000
  C   C377      1.0  0.81553  0.57829  0.5782  1.0000
  C   C378      1.0  0.5785  0.42153  0.18462  1.0000
  C   C379      1.0  0.18473999999999993  0.57842  0.42147  1.0000
  C   C380      1.0  0.42164  0.42154  0.81529  1.0000
  C   C381      1.0  0.42162  0.8152999999999998  0.42149  1.0000
  C   C382      1.0  0.42173  0.18448  0.5782  1.0000
  C   C383      1.0  0.5785  0.18467  0.42150000000000004  1.0000
  C   C384      1.0  0.57845  0.81538  0.57825  1.0000
  H   H1        1.0  0.35394  0.44692  0.8538700000000001  1.0000
  H   H2        1.0  0.14618  0.55289  0.35378  1.0000
  H   H3        1.0  0.64604  0.4468799999999999  0.14601  1.0000
  H   H4        1.0  0.8541899999999998  0.5529499999999998  0.64582  1.0000
  H   H5        1.0  0.35417  0.5529699999999997  0.14585  1.0000
  H   H6        1.0  0.14604  0.4468699999999999  0.6460200000000001  1.0000
  H   H7        1.0  0.64616  0.55287  0.8538  1.0000
  H   H8        1.0  0.8539199999999999  0.4469  0.35384  1.0000
  H   H9        1.0  0.55317  0.85401  0.64596  1.0000
  H   H10       1.0  0.44715  0.35388  0.85385  1.0000
  H   H11       1.0  0.55313  0.14607999999999993  0.35386  1.0000
  H   H12       1.0  0.44707  0.64584  0.14585  1.0000
  H   H13       1.0  0.44709  0.14582  0.64583  1.0000
  H   H14       1.0  0.55314  0.6460799999999998  0.85385  1.0000
  H   H15       1.0  0.44714  0.85387  0.35383  1.0000
  H   H16       1.0  0.55319  0.35399  0.14599  1.0000
  H   H17       1.0  0.14618  0.6461499999999998  0.44687  1.0000
  H   H18       1.0  0.64606  0.85394  0.5525800000000002  1.0000
  H   H19       1.0  0.8539499999999999  0.3539199999999999  0.4469  1.0000
  H   H20       1.0  0.35417  0.14583999999999994  0.55264  1.0000
  H   H21       1.0  0.8541699999999998  0.64584  0.55263  1.0000
  H   H22       1.0  0.35391  0.8538799999999998  0.44686  1.0000
  H   H23       1.0  0.14608  0.3539199999999999  0.55261  1.0000
  H   H24       1.0  0.64611  0.14607999999999993  0.44694  1.0000
  H   H25       1.0  0.8539699999999998  0.94694  0.85389  1.0000
  H   H26       1.0  0.14618  0.05289999999999999  0.85378  1.0000
  H   H27       1.0  0.14604  0.9468799999999998  0.14602  1.0000
  H   H28       1.0  0.8542299999999998  0.05291999999999999  0.14578  1.0000
  H   H29       1.0  0.053209999999999986  0.8539699999999998  0.14601  1.0000
  H   H30       1.0  0.94716  0.85389  0.85385  1.0000
  H   H31       1.0  0.053179999999999984  0.14613  0.8538  1.0000
  H   H32       1.0  0.94711  0.14579999999999996  0.1458  1.0000
  H   H33       1.0  0.14617  0.14615  0.94687  1.0000
  H   H34       1.0  0.14607  0.8539299999999997  0.0526  1.0000
  H   H35       1.0  0.8539399999999998  0.8539  0.9469  1.0000
  H   H36       1.0  0.8541599999999998  0.14585  0.05264  1.0000
  H   H37       1.0  0.35392  0.94689  0.35384  1.0000
  H   H38       1.0  0.64612  0.05282999999999999  0.35384  1.0000
  H   H39       1.0  0.646  0.9469199999999998  0.64597  1.0000
  H   H40       1.0  0.35419  0.05295  0.64582  1.0000
  H   H41       1.0  0.05321999999999999  0.35396  0.6460200000000001  1.0000
  H   H42       1.0  0.94716  0.3539  0.35385  1.0000
  H   H43       1.0  0.05318999999999999  0.64614  0.3538  1.0000
  H   H44       1.0  0.94709  0.64582  0.64582  1.0000
  H   H45       1.0  0.64615  0.64611  0.9469  1.0000
  H   H46       1.0  0.64608  0.3539299999999999  0.0526  1.0000
  H   H47       1.0  0.35392  0.35388  0.94687  1.0000
  H   H48       1.0  0.35414  0.64587  0.05266  1.0000
  O   O1        1.0  0.49356  0.15622  0.94613  1.0000
  O   O2        1.0  0.05387  0.8437799999999998  0.49355999999999994  1.0000
  O   O3        1.0  0.50644  0.15622  0.05387  1.0000
  O   O4        1.0  0.94613  0.8437799999999998  0.50644  1.0000
  O   O5        1.0  0.49356  0.8437799999999998  0.05387  1.0000
  O   O6        1.0  0.05387  0.15622  0.50644  1.0000
  O   O7        1.0  0.50644  0.8437799999999998  0.94613  1.0000
  O   O8        1.0  0.94613  0.15622  0.49355999999999994  1.0000
  O   O9        1.0  0.84378  0.94613  0.50644  1.0000
  O   O10       1.0  0.15622  0.49356  0.94613  1.0000
  O   O11       1.0  0.84378  0.05386999999999999  0.49355999999999994  1.0000
  O   O12       1.0  0.15622  0.5064399999999998  0.05387  1.0000
  O   O13       1.0  0.15622  0.05386999999999999  0.50644  1.0000
  O   O14       1.0  0.84378  0.5064399999999998  0.94613  1.0000
  O   O15       1.0  0.15622  0.94613  0.49355999999999994  1.0000
  O   O16       1.0  0.84378  0.49356  0.05387  1.0000
  O   O17       1.0  0.05387  0.5064399999999998  0.15622  1.0000
  O   O18       1.0  0.50644  0.94613  0.84378  1.0000
  O   O19       1.0  0.94613  0.49356  0.15622  1.0000
  O   O20       1.0  0.49356  0.05386999999999999  0.84378  1.0000
  O   O21       1.0  0.94613  0.5064399999999998  0.84378  1.0000
  O   O22       1.0  0.49356  0.94613  0.15622  1.0000
  O   O23       1.0  0.05387  0.49356  0.84378  1.0000
  O   O24       1.0  0.50644  0.05386999999999999  0.15622  1.0000
  O   O25       1.0  0.99356  0.65622  0.94613  1.0000
  O   O26       1.0  0.05387  0.34378  0.99356  1.0000
  O   O27       1.0  0.0064399999999999995  0.65622  0.05387  1.0000
  O   O28       1.0  0.94613  0.34378  0.00644  1.0000
  O   O29       1.0  0.99356  0.34378  0.05387  1.0000
  O   O30       1.0  0.05387  0.65622  0.00644  1.0000
  O   O31       1.0  0.00644  0.34378  0.94613  1.0000
  O   O32       1.0  0.94613  0.65622  0.99356  1.0000
  O   O33       1.0  0.34378  0.94613  0.00644  1.0000
  O   O34       1.0  0.65622  0.99356  0.94613  1.0000
  O   O35       1.0  0.34378  0.05386999999999999  0.99356  1.0000
  O   O36       1.0  0.65622  0.00644  0.05387  1.0000
  O   O37       1.0  0.65622  0.05386999999999999  0.00644  1.0000
  O   O38       1.0  0.34378  0.00644  0.94613  1.0000
  O   O39       1.0  0.65622  0.94613  0.99356  1.0000
  O   O40       1.0  0.34378  0.99356  0.05387  1.0000
  O   O41       1.0  0.05387  0.00644  0.65622  1.0000
  O   O42       1.0  0.00644  0.94613  0.34378  1.0000
  O   O43       1.0  0.94613  0.99356  0.65622  1.0000
  O   O44       1.0  0.99356  0.05386999999999999  0.34378  1.0000
  O   O45       1.0  0.94613  0.00644  0.34378  1.0000
  O   O46       1.0  0.99356  0.94613  0.65622  1.0000
  O   O47       1.0  0.05387  0.99356  0.34378  1.0000
  O   O48       1.0  0.00644  0.05386999999999999  0.65622  1.0000
  O   O49       1.0  0.99356  0.15622  0.44613  1.0000
  O   O50       1.0  0.55387  0.8437799999999998  0.99356  1.0000
  O   O51       1.0  0.00644  0.15622  0.55387  1.0000
  O   O52       1.0  0.44613  0.8437799999999998  0.00644  1.0000
  O   O53       1.0  0.99356  0.8437799999999998  0.55387  1.0000
  O   O54       1.0  0.55387  0.15622  0.00644  1.0000
  O   O55       1.0  0.006440000000000001  0.8437799999999998  0.44613  1.0000
  O   O56       1.0  0.44613  0.15622  0.99356  1.0000
  O   O57       1.0  0.84378  0.4461299999999999  0.00644  1.0000
  O   O58       1.0  0.15622  0.99356  0.44613  1.0000
  O   O59       1.0  0.84378  0.5538699999999998  0.99356  1.0000
  O   O60       1.0  0.15622  0.00644  0.55387  1.0000
  O   O61       1.0  0.15622  0.5538699999999998  0.00644  1.0000
  O   O62       1.0  0.84378  0.00644  0.44613  1.0000
  O   O63       1.0  0.15622  0.4461299999999999  0.99356  1.0000
  O   O64       1.0  0.84378  0.99356  0.55387  1.0000
  O   O65       1.0  0.55387  0.00644  0.15622  1.0000
  O   O66       1.0  0.006440000000000001  0.4461299999999999  0.84378  1.0000
  O   O67       1.0  0.44613  0.99356  0.15622  1.0000
  O   O68       1.0  0.99356  0.5538699999999998  0.84378  1.0000
  O   O69       1.0  0.44613  0.0064399999999999995  0.84378  1.0000
  O   O70       1.0  0.99356  0.4461299999999999  0.15622  1.0000
  O   O71       1.0  0.55387  0.99356  0.84378  1.0000
  O   O72       1.0  0.006440000000000001  0.5538699999999998  0.15622  1.0000
  O   O73       1.0  0.49356  0.65622  0.44613  1.0000
  O   O74       1.0  0.55387  0.34378  0.49355999999999994  1.0000
  O   O75       1.0  0.50644  0.65622  0.55387  1.0000
  O   O76       1.0  0.44613  0.34378  0.50644  1.0000
  O   O77       1.0  0.49356  0.34378  0.55387  1.0000
  O   O78       1.0  0.55387  0.65622  0.50644  1.0000
  O   O79       1.0  0.50644  0.34378  0.44613  1.0000
  O   O80       1.0  0.44613  0.65622  0.49355999999999994  1.0000
  O   O81       1.0  0.34378  0.4461299999999999  0.50644  1.0000
  O   O82       1.0  0.65622  0.49356  0.44613  1.0000
  O   O83       1.0  0.34378  0.5538699999999998  0.49355999999999994  1.0000
  O   O84       1.0  0.65622  0.5064399999999998  0.55387  1.0000
  O   O85       1.0  0.65622  0.5538699999999998  0.50644  1.0000
  O   O86       1.0  0.34378  0.5064399999999998  0.44613  1.0000
  O   O87       1.0  0.65622  0.4461299999999999  0.49355999999999994  1.0000
  O   O88       1.0  0.34378  0.49356  0.55387  1.0000
  O   O89       1.0  0.55387  0.5064399999999998  0.65622  1.0000
  O   O90       1.0  0.50644  0.4461299999999999  0.34378  1.0000
  O   O91       1.0  0.44613  0.49356  0.65622  1.0000
  O   O92       1.0  0.49356  0.5538699999999998  0.34378  1.0000
  O   O93       1.0  0.44613  0.5064399999999998  0.34378  1.0000
  O   O94       1.0  0.49356  0.4461299999999999  0.65622  1.0000
  O   O95       1.0  0.55387  0.49356  0.34378  1.0000
  O   O96       1.0  0.50644  0.5538699999999998  0.65622  1.0000
  O   O97       1.0  0.44566999999999996  0.24186999999999995  0.9937000000000001  1.0000
  O   O98       1.0  0.006300000000000001  0.7581299999999997  0.44567  1.0000
  O   O99       1.0  0.5543299999999998  0.24186999999999995  0.0063  1.0000
  O   O100      1.0  0.9937  0.7581299999999997  0.55433  1.0000
  O   O101      1.0  0.44566999999999996  0.7581299999999997  0.0063  1.0000
  O   O102      1.0  0.0063  0.24186999999999995  0.55433  1.0000
  O   O103      1.0  0.5543299999999998  0.7581299999999997  0.9937000000000001  1.0000
  O   O104      1.0  0.9937  0.24186999999999995  0.44567  1.0000
  O   O105      1.0  0.75813  0.9937  0.55433  1.0000
  O   O106      1.0  0.24187  0.44567  0.9937000000000001  1.0000
  O   O107      1.0  0.75813  0.0063  0.44567  1.0000
  O   O108      1.0  0.24187  0.55433  0.0063  1.0000
  O   O109      1.0  0.24187  0.0063  0.55433  1.0000
  O   O110      1.0  0.75813  0.55433  0.9937000000000001  1.0000
  O   O111      1.0  0.24187  0.9937  0.44567  1.0000
  O   O112      1.0  0.75813  0.44567  0.0063  1.0000
  O   O113      1.0  0.0063  0.55433  0.24187  1.0000
  O   O114      1.0  0.5543299999999998  0.9937  0.75813  1.0000
  O   O115      1.0  0.9937  0.44567  0.24187  1.0000
  O   O116      1.0  0.44566999999999996  0.0063  0.75813  1.0000
  O   O117      1.0  0.9937  0.55433  0.75813  1.0000
  O   O118      1.0  0.44566999999999996  0.9937  0.24187  1.0000
  O   O119      1.0  0.0063  0.44567  0.75813  1.0000
  O   O120      1.0  0.5543299999999998  0.0063  0.24187  1.0000
  O   O121      1.0  0.94567  0.74187  0.9937000000000001  1.0000
  O   O122      1.0  0.0063  0.25813  0.94567  1.0000
  O   O123      1.0  0.05433  0.74187  0.0063  1.0000
  O   O124      1.0  0.9937  0.25813  0.05433  1.0000
  O   O125      1.0  0.94567  0.25813  0.0063  1.0000
  O   O126      1.0  0.0063  0.74187  0.05433  1.0000
  O   O127      1.0  0.05433  0.25813  0.9937000000000001  1.0000
  O   O128      1.0  0.9937  0.74187  0.94567  1.0000
  O   O129      1.0  0.25813  0.9937  0.05433  1.0000
  O   O130      1.0  0.7418699999999998  0.9456699999999998  0.9937000000000001  1.0000
  O   O131      1.0  0.25813  0.0063  0.94567  1.0000
  O   O132      1.0  0.7418699999999998  0.05433  0.0063  1.0000
  O   O133      1.0  0.7418699999999998  0.0063  0.05433  1.0000
  O   O134      1.0  0.25813  0.05433  0.9937000000000001  1.0000
  O   O135      1.0  0.7418699999999998  0.9937  0.94567  1.0000
  O   O136      1.0  0.25813  0.9456699999999998  0.0063  1.0000
  O   O137      1.0  0.0063  0.05433  0.74187  1.0000
  O   O138      1.0  0.05433  0.9937  0.25813  1.0000
  O   O139      1.0  0.9937  0.9456699999999998  0.74187  1.0000
  O   O140      1.0  0.94567  0.0063  0.25813  1.0000
  O   O141      1.0  0.9937  0.05433  0.25813  1.0000
  O   O142      1.0  0.94567  0.9937  0.74187  1.0000
  O   O143      1.0  0.0063  0.9456699999999998  0.25813  1.0000
  O   O144      1.0  0.05433  0.0063  0.74187  1.0000
  O   O145      1.0  0.94567  0.24186999999999995  0.4937  1.0000
  O   O146      1.0  0.5063  0.7581299999999997  0.94567  1.0000
  O   O147      1.0  0.05433  0.24186999999999995  0.5063  1.0000
  O   O148      1.0  0.4937  0.7581299999999997  0.05433  1.0000
  O   O149      1.0  0.94567  0.7581299999999997  0.5063  1.0000
  O   O150      1.0  0.5063  0.24186999999999995  0.05433  1.0000
  O   O151      1.0  0.05433  0.7581299999999997  0.4937  1.0000
  O   O152      1.0  0.4937  0.24186999999999995  0.94567  1.0000
  O   O153      1.0  0.75813  0.49369999999999997  0.05433  1.0000
  O   O154      1.0  0.24187  0.9456699999999998  0.4937  1.0000
  O   O155      1.0  0.75813  0.5063  0.94567  1.0000
  O   O156      1.0  0.24187  0.05433  0.5063  1.0000
  O   O157      1.0  0.24187  0.5063  0.05433  1.0000
  O   O158      1.0  0.75813  0.05433  0.4937  1.0000
  O   O159      1.0  0.24187  0.49369999999999997  0.94567  1.0000
  O   O160      1.0  0.75813  0.9456699999999998  0.5063  1.0000
  O   O161      1.0  0.5063  0.05433  0.24187  1.0000
  O   O162      1.0  0.05433  0.49369999999999997  0.75813  1.0000
  O   O163      1.0  0.4937  0.9456699999999998  0.24187  1.0000
  O   O164      1.0  0.94567  0.5063  0.75813  1.0000
  O   O165      1.0  0.4937  0.05433  0.75813  1.0000
  O   O166      1.0  0.94567  0.49369999999999997  0.24187  1.0000
  O   O167      1.0  0.5063  0.9456699999999998  0.75813  1.0000
  O   O168      1.0  0.05433  0.5063  0.24187  1.0000
  O   O169      1.0  0.44566999999999996  0.74187  0.4937  1.0000
  O   O170      1.0  0.5063  0.25813  0.44567  1.0000
  O   O171      1.0  0.5543299999999998  0.74187  0.5063  1.0000
  O   O172      1.0  0.4937  0.25813  0.55433  1.0000
  O   O173      1.0  0.44566999999999996  0.25813  0.5063  1.0000
  O   O174      1.0  0.5063  0.74187  0.55433  1.0000
  O   O175      1.0  0.5543299999999998  0.25813  0.4937  1.0000
  O   O176      1.0  0.4937  0.74187  0.44567  1.0000
  O   O177      1.0  0.25813  0.49369999999999997  0.55433  1.0000
  O   O178      1.0  0.7418699999999998  0.44567  0.4937  1.0000
  O   O179      1.0  0.25813  0.5063  0.44567  1.0000
  O   O180      1.0  0.7418699999999998  0.55433  0.5063  1.0000
  O   O181      1.0  0.7418699999999998  0.5063  0.55433  1.0000
  O   O182      1.0  0.25813  0.55433  0.4937  1.0000
  O   O183      1.0  0.7418699999999998  0.49369999999999997  0.44567  1.0000
  O   O184      1.0  0.25813  0.44567  0.5063  1.0000
  O   O185      1.0  0.5063  0.55433  0.74187  1.0000
  O   O186      1.0  0.5543299999999998  0.49369999999999997  0.25813  1.0000
  O   O187      1.0  0.4937  0.44567  0.74187  1.0000
  O   O188      1.0  0.44566999999999996  0.5063  0.25813  1.0000
  O   O189      1.0  0.4937  0.55433  0.25813  1.0000
  O   O190      1.0  0.44566999999999996  0.49369999999999997  0.74187  1.0000
  O   O191      1.0  0.5063  0.44567  0.25813  1.0000
  O   O192      1.0  0.5543299999999998  0.5063  0.74187  1.0000
  Zn  Zn1       1.0  0.53199  0.19993999999999995  0.96801  1.0000
  Zn  Zn2       1.0  0.03199  0.80006  0.53199  1.0000
  Zn  Zn3       1.0  0.46801  0.19993999999999995  0.03199  1.0000
  Zn  Zn4       1.0  0.96801  0.80006  0.46801  1.0000
  Zn  Zn5       1.0  0.53199  0.80006  0.03199  1.0000
  Zn  Zn6       1.0  0.03199  0.19993999999999995  0.46801  1.0000
  Zn  Zn7       1.0  0.46801  0.80006  0.96801  1.0000
  Zn  Zn8       1.0  0.96801  0.19993999999999995  0.53199  1.0000
  Zn  Zn9       1.0  0.80006  0.96801  0.46801  1.0000
  Zn  Zn10      1.0  0.19994  0.5319899999999997  0.96801  1.0000
  Zn  Zn11      1.0  0.80006  0.03199  0.53199  1.0000
  Zn  Zn12      1.0  0.19994  0.46800999999999987  0.03199  1.0000
  Zn  Zn13      1.0  0.19994  0.03199  0.46801  1.0000
  Zn  Zn14      1.0  0.80006  0.46800999999999987  0.96801  1.0000
  Zn  Zn15      1.0  0.19994  0.96801  0.53199  1.0000
  Zn  Zn16      1.0  0.80006  0.5319899999999997  0.03199  1.0000
  Zn  Zn17      1.0  0.03199  0.46800999999999987  0.19994  1.0000
  Zn  Zn18      1.0  0.46801  0.96801  0.80006  1.0000
  Zn  Zn19      1.0  0.96801  0.5319899999999997  0.19994  1.0000
  Zn  Zn20      1.0  0.53199  0.03199  0.80006  1.0000
  Zn  Zn21      1.0  0.96801  0.46800999999999987  0.80006  1.0000
  Zn  Zn22      1.0  0.53199  0.96801  0.19994  1.0000
  Zn  Zn23      1.0  0.03199  0.5319899999999997  0.80006  1.0000
  Zn  Zn24      1.0  0.46801  0.03199  0.19994  1.0000
  Zn  Zn25      1.0  0.03199  0.69994  0.96801  1.0000
  Zn  Zn26      1.0  0.03199  0.30006  0.03199  1.0000
  Zn  Zn27      1.0  0.96801  0.69994  0.03199  1.0000
  Zn  Zn28      1.0  0.96801  0.30006  0.96801  1.0000
  Zn  Zn29      1.0  0.30006  0.96801  0.96801  1.0000
  Zn  Zn30      1.0  0.69994  0.03199  0.96801  1.0000
  Zn  Zn31      1.0  0.30006  0.03199  0.03199  1.0000
  Zn  Zn32      1.0  0.69994  0.96801  0.03199  1.0000
  Zn  Zn33      1.0  0.03199  0.96801  0.69994  1.0000
  Zn  Zn34      1.0  0.96801  0.96801  0.30006  1.0000
  Zn  Zn35      1.0  0.96801  0.03199  0.69994  1.0000
  Zn  Zn36      1.0  0.03199  0.03199  0.30006  1.0000
  Zn  Zn37      1.0  0.53199  0.69994  0.46801  1.0000
  Zn  Zn38      1.0  0.53199  0.30006  0.53199  1.0000
  Zn  Zn39      1.0  0.46801  0.69994  0.53199  1.0000
  Zn  Zn40      1.0  0.46801  0.30006  0.46801  1.0000
  Zn  Zn41      1.0  0.30006  0.46800999999999987  0.46801  1.0000
  Zn  Zn42      1.0  0.69994  0.5319899999999997  0.46801  1.0000
  Zn  Zn43      1.0  0.30006  0.5319899999999997  0.53199  1.0000
  Zn  Zn44      1.0  0.69994  0.46800999999999987  0.53199  1.0000
  Zn  Zn45      1.0  0.53199  0.46800999999999987  0.69994  1.0000
  Zn  Zn46      1.0  0.46801  0.46800999999999987  0.30006  1.0000
  Zn  Zn47      1.0  0.46801  0.5319899999999997  0.69994  1.0000
  Zn  Zn48      1.0  0.53199  0.5319899999999997  0.30006  1.0000
  Cl  Cl1       1.0  0.58848  0.9776899999999997  0.08683  1.0000
  Cl  Cl2       1.0  0.91143  0.022389999999999993  0.58705  1.0000
  Cl  Cl3       1.0  0.36605  0.01797  0.86589  1.0000
  Cl  Cl4       1.0  0.13386999999999996  0.9820399999999999  0.36599  1.0000
  Cl  Cl5       1.0  0.58712  0.027519999999999992  0.91312  1.0000
  Cl  Cl6       1.0  0.913  0.9722699999999997  0.4130900000000001  1.0000
  Cl  Cl7       1.0  0.42104999999999987  0.0136  0.0779  1.0000
  Cl  Cl8       1.0  0.07898  0.9863899999999999  0.57779  1.0000
  Cl  Cl9       1.0  0.02781  0.08697999999999997  0.41307  1.0000
  Cl  Cl10      1.0  0.98527  0.5770899999999998  0.07696  1.0000
  Cl  Cl11      1.0  0.02264  0.9099799999999998  0.58698  1.0000
  Cl  Cl12      1.0  0.023579999999999993  0.3629999999999999  0.86543  1.0000
  Cl  Cl13      1.0  0.01789  0.8661299999999997  0.366  1.0000
  Cl  Cl14      1.0  0.98208  0.36596  0.13416  1.0000
  Cl  Cl15      1.0  0.02275  0.13468  0.63715  1.0000
  Cl  Cl16      1.0  0.98185  0.63406  0.86581  1.0000
  Cl  Cl17      1.0  0.86599  0.36596  0.01796  1.0000
  Cl  Cl18      1.0  0.36625999999999986  0.13376  0.98273  1.0000
  Cl  Cl19      1.0  0.13448  0.63711  0.02369  1.0000
  Cl  Cl20      1.0  0.5932  0.9061699999999998  0.02422  1.0000
  Cl  Cl21      1.0  0.07725  0.42278999999999994  0.015  1.0000
  Cl  Cl22      1.0  0.6336  0.13357999999999995  0.03377  1.0000
  Cl  Cl23      1.0  0.86621  0.63382  0.98268  1.0000
  Cl  Cl24      1.0  0.36285  0.8650999999999998  0.02324  1.0000
  Cl  Cl25      1.0  0.13447  0.52352  0.13723  1.0000
  Cl  Cl26      1.0  0.86608  0.48246  0.13407  1.0000
  Cl  Cl27      1.0  0.86599  0.51805  0.8658300000000002  1.0000
  Cl  Cl28      1.0  0.13698  0.4763599999999999  0.86543  1.0000
  Cl  Cl29      1.0  0.4819199999999999  0.13399999999999995  0.86586  1.0000
  Cl  Cl30      1.0  0.47742  0.09016  0.08725  1.0000
  Cl  Cl31      1.0  0.47687999999999997  0.86529  0.13723  1.0000
  Cl  Cl32      1.0  0.47244999999999987  0.9128199999999997  0.91297  1.0000
  Cl  Cl33      1.0  0.8664099999999999  0.86644  0.53381  1.0000
  Cl  Cl34      1.0  0.90683  0.09385  0.5244100000000003  1.0000
  Cl  Cl35      1.0  0.13711  0.13487  0.5233  1.0000
  Cl  Cl36      1.0  0.13372  0.86626  0.48246  1.0000
  Cl  Cl37      1.0  0.59054  0.47884999999999994  0.5887  1.0000
  Cl  Cl38      1.0  0.40844999999999987  0.52139  0.58999  1.0000
  Cl  Cl39      1.0  0.3629  0.52304  0.36492  1.0000
  Cl  Cl40      1.0  0.63322  0.46602  0.36615  1.0000
  Cl  Cl41      1.0  0.47678  0.6371699999999998  0.3649  1.0000
  Cl  Cl42      1.0  0.4787399999999999  0.59147  0.58991  1.0000
  Cl  Cl43      1.0  0.52133  0.40996  0.58804  1.0000
  Cl  Cl44      1.0  0.47647  0.41932  0.4159200000000001  1.0000
  Cl  Cl45      1.0  0.3661099999999999  0.36611  0.53268  1.0000
  Cl  Cl46      1.0  0.42041  0.5795999999999999  0.51318  1.0000
  Cl  Cl47      1.0  0.63389  0.6339399999999997  0.5326  1.0000
  Cl  Cl48      1.0  0.59315  0.40836  0.52172  1.0000
