data_image0
_chemical_formula_structural       C384Cu48H288O288
_chemical_formula_sum              "C384 Cu48 H288 O288"
_cell_length_a       26.90522
_cell_length_b       26.8546
_cell_length_c       26.97929
_cell_angle_alpha    90.04207
_cell_angle_beta     89.89893
_cell_angle_gamma    89.96851999999998

_space_group_name_H-M_alt    "P 1"
_space_group_IT_number       1

loop_
  _space_group_symop_operation_xyz
  'x, y, z'

loop_
  _atom_site_type_symbol
  _atom_site_label
  _atom_site_symmetry_multiplicity
  _atom_site_fract_x
  _atom_site_fract_y
  _atom_site_fract_z
  _atom_site_occupancy
  C   C1        1.0  0.92983  0.7016600000000001  0.29836  1.0000
  C   C2        1.0  0.06884  0.70043  0.29957  1.0000
  C   C3        1.0  0.82478  0.11083000000000003  0.8248799999999998  1.0000
  C   C4        1.0  0.17521  0.88915  0.8248299999999997  1.0000
  C   C5        1.0  0.82385  0.11163000000000001  0.17611  1.0000
  C   C6        1.0  0.82498  0.88948  0.8250099999999998  1.0000
  C   C7        1.0  0.17693  0.11240000000000001  0.17676  1.0000
  C   C8        1.0  0.1119  0.17615  0.17608  1.0000
  C   C9        1.0  0.8891500000000002  0.8245900000000003  0.8250299999999998  1.0000
  C   C10       1.0  0.11025  0.17514  0.82537  1.0000
  C   C11       1.0  0.88838  0.8241300000000003  0.17567  1.0000
  C   C12       1.0  0.11115000000000001  0.82439  0.8245299999999998  1.0000
  C   C13       1.0  0.29897  0.29916  0.93072  1.0000
  C   C14       1.0  0.8882  0.17605  0.176  1.0000
  C   C15       1.0  0.11091000000000002  0.8246800000000002  0.17524  1.0000
  C   C16       1.0  0.88884  0.17562000000000003  0.8245699999999998  1.0000
  C   C17       1.0  0.8247300000000002  0.17564  0.8889399999999997  1.0000
  C   C18       1.0  0.17559  0.82471  0.11117999999999999  1.0000
  C   C19       1.0  0.82478  0.82522  0.8894399999999999  1.0000
  C   C20       1.0  0.17701000000000003  0.17682  0.11267  1.0000
  C   C21       1.0  0.17517000000000002  0.82441  0.8889299999999998  1.0000
  C   C22       1.0  0.8244500000000001  0.17513  0.11098  1.0000
  C   C23       1.0  0.17422  0.17509  0.8898899999999998  1.0000
  C   C24       1.0  0.70163  0.7016100000000001  0.07017  1.0000
  C   C25       1.0  0.82439  0.82434  0.11117999999999999  1.0000
  C   C26       1.0  0.32404  0.3885  0.17575999999999997  1.0000
  C   C27       1.0  0.67595  0.61114  0.8247399999999999  1.0000
  C   C28       1.0  0.17661  0.3877400000000001  0.67658  1.0000
  C   C29       1.0  0.8237700000000002  0.61202  0.3237899999999999  1.0000
  C   C30       1.0  0.677  0.3875100000000001  0.82313  1.0000
  C   C31       1.0  0.3253800000000001  0.61013  0.1746  1.0000
  C   C32       1.0  0.82493  0.38956  0.32551999999999987  1.0000
  C   C33       1.0  0.17506  0.61079  0.67508  1.0000
  C   C34       1.0  0.32389000000000007  0.6118300000000002  0.82406  1.0000
  C   C35       1.0  0.07017  0.29834  0.29834  1.0000
  C   C36       1.0  0.67529  0.38902  0.17535  1.0000
  C   C37       1.0  0.17626  0.61144  0.32448  1.0000
  C   C38       1.0  0.8229900000000001  0.38737  0.67687  1.0000
  C   C39       1.0  0.6769000000000001  0.61237  0.17673999999999995  1.0000
  C   C40       1.0  0.32395  0.38878  0.82444  1.0000
  C   C41       1.0  0.82451  0.6105000000000002  0.6747099999999999  1.0000
  C   C42       1.0  0.17614  0.38801  0.3237799999999999  1.0000
  C   C43       1.0  0.61064  0.17551  0.6748599999999999  1.0000
  C   C44       1.0  0.38805000000000006  0.8238200000000002  0.32368  1.0000
  C   C45       1.0  0.61201  0.67624  0.8239799999999999  1.0000
  C   C46       1.0  0.93053  0.7009000000000001  0.70095  1.0000
  C   C47       1.0  0.38857000000000014  0.3243800000000001  0.17559  1.0000
  C   C48       1.0  0.6121700000000001  0.82297  0.32375  1.0000
  C   C49       1.0  0.38916000000000006  0.17574  0.67556  1.0000
  C   C50       1.0  0.6116900000000002  0.32363  0.17594  1.0000
  C   C51       1.0  0.38898  0.67584  0.8248599999999998  1.0000
  C   C52       1.0  0.38911  0.82419  0.67512  1.0000
  C   C53       1.0  0.6124100000000001  0.17659  0.3234099999999999  1.0000
  C   C54       1.0  0.38872  0.32464  0.82463  1.0000
  C   C55       1.0  0.61188  0.67614  0.17608  1.0000
  C   C56       1.0  0.38896  0.17520000000000002  0.32500999999999997  1.0000
  C   C57       1.0  0.70134  0.29872  0.06984  1.0000
  C   C58       1.0  0.6099500000000001  0.8254500000000002  0.6744199999999999  1.0000
  C   C59       1.0  0.3898  0.67432  0.17469999999999997  1.0000
  C   C60       1.0  0.6120600000000002  0.32371  0.82376  1.0000
  C   C61       1.0  0.82313  0.6770000000000003  0.38752  1.0000
  C   C62       1.0  0.17651  0.3234400000000001  0.61231  1.0000
  C   C63       1.0  0.32486000000000004  0.82482  0.3891699999999999  1.0000
  C   C64       1.0  0.6753300000000001  0.17545  0.6108899999999998  1.0000
  C   C65       1.0  0.17673  0.32308000000000003  0.38754  1.0000
  C   C66       1.0  0.8245  0.67533  0.6109199999999999  1.0000
  C   C67       1.0  0.67663  0.17668  0.38761  1.0000
  C   C68       1.0  0.29864  0.70139  0.9301599999999998  1.0000
  C   C69       1.0  0.32395  0.82384  0.61175  1.0000
  C   C70       1.0  0.17566000000000004  0.67624  0.6115199999999998  1.0000
  C   C71       1.0  0.8253200000000002  0.32487  0.38974  1.0000
  C   C72       1.0  0.6745200000000002  0.8253400000000002  0.61004  1.0000
  C   C73       1.0  0.32444  0.17501000000000005  0.38935  1.0000
  C   C74       1.0  0.82239  0.32233  0.61327  1.0000
  C   C75       1.0  0.17593  0.67555  0.38884999999999986  1.0000
  C   C76       1.0  0.32247  0.17922000000000005  0.6143799999999998  1.0000
  C   C77       1.0  0.67619  0.8234700000000003  0.3881799999999999  1.0000
  C   C78       1.0  0.32434  0.8884300000000003  0.67567  1.0000
  C   C79       1.0  0.2973  0.07152  0.7025799999999999  1.0000
  C   C80       1.0  0.6767200000000002  0.11233000000000001  0.32344  1.0000
  C   C81       1.0  0.67443  0.88987  0.67446  1.0000
  C   C82       1.0  0.3244000000000001  0.11105  0.3246099999999999  1.0000
  C   C83       1.0  0.67552  0.8884300000000003  0.32445  1.0000
  C   C84       1.0  0.3212200000000001  0.11535000000000001  0.6789399999999998  1.0000
  C   C85       1.0  0.32408  0.88846  0.32383  1.0000
  C   C86       1.0  0.67515  0.11104000000000003  0.6751599999999999  1.0000
  C   C87       1.0  0.11153  0.6760700000000001  0.67588  1.0000
  C   C88       1.0  0.88955  0.3252  0.32535  1.0000
  C   C89       1.0  0.11063  0.67474  0.32526  1.0000
  C   C90       1.0  0.70108  0.93042  0.29895  1.0000
  C   C91       1.0  0.8873700000000001  0.32301000000000013  0.6767  1.0000
  C   C92       1.0  0.11271  0.3228800000000001  0.32315  1.0000
  C   C93       1.0  0.88901  0.675  0.67492  1.0000
  C   C94       1.0  0.11232000000000003  0.32345  0.6766399999999998  1.0000
  C   C95       1.0  0.8872600000000002  0.67712  0.3231799999999999  1.0000
  C   C96       1.0  0.32373  0.6763  0.8881799999999997  1.0000
  C   C97       1.0  0.67605  0.3238200000000001  0.11177999999999998  1.0000
  C   C98       1.0  0.3236  0.32446000000000014  0.88855  1.0000
  C   C99       1.0  0.67702  0.67683  0.11268999999999997  1.0000
  C   C100      1.0  0.6771  0.32307  0.88718  1.0000
  C   C101      1.0  0.29901  0.93062  0.29897  1.0000
  C   C102      1.0  0.32479  0.6752700000000003  0.11143  1.0000
  C   C103      1.0  0.6763700000000002  0.6763800000000001  0.8880399999999998  1.0000
  C   C104      1.0  0.3240200000000001  0.32398  0.11175999999999997  1.0000
  C   C105      1.0  0.80371  0.8679700000000001  0.13152  1.0000
  C   C106      1.0  0.19605000000000006  0.1318  0.8680599999999998  1.0000
  C   C107      1.0  0.13155  0.8681800000000002  0.19593  1.0000
  C   C108      1.0  0.8681100000000003  0.13187  0.80417  1.0000
  C   C109      1.0  0.19605000000000006  0.8676100000000001  0.86815  1.0000
  C   C110      1.0  0.80368  0.13186  0.13212  1.0000
  C   C111      1.0  0.86796  0.8675700000000002  0.80385  1.0000
  C   C112      1.0  0.07033  0.29828000000000005  0.70177  1.0000
  C   C113      1.0  0.70095  0.06949000000000001  0.701  1.0000
  C   C114      1.0  0.13295  0.13280000000000003  0.19689999999999996  1.0000
  C   C115      1.0  0.80384  0.13246  0.86812  1.0000
  C   C116      1.0  0.19618  0.8681800000000002  0.13204  1.0000
  C   C117      1.0  0.13289  0.13281  0.80314  1.0000
  C   C118      1.0  0.8675900000000002  0.86784  0.19601999999999994  1.0000
  C   C119      1.0  0.19938  0.13492  0.13489  1.0000
  C   C120      1.0  0.80434  0.8688400000000002  0.8686199999999997  1.0000
  C   C121      1.0  0.86586  0.13418  0.19828  1.0000
  C   C122      1.0  0.13209  0.8679700000000001  0.804  1.0000
  C   C123      1.0  0.12987  0.19535  0.8695799999999998  1.0000
  C   C124      1.0  0.70067  0.9308100000000002  0.7007499999999998  1.0000
  C   C125      1.0  0.86723  0.80307  0.13265999999999997  1.0000
  C   C126      1.0  0.13277  0.80335  0.13241  1.0000
  C   C127      1.0  0.86777  0.19661  0.86769  1.0000
  C   C128      1.0  0.8675700000000002  0.8037800000000003  0.86814  1.0000
  C   C129      1.0  0.13311  0.19713  0.13309  1.0000
  C   C130      1.0  0.86728  0.19640000000000002  0.1322  1.0000
  C   C131      1.0  0.13211  0.8035  0.86779  1.0000
  C   C132      1.0  0.30315  0.36718  0.13288  1.0000
  C   C133      1.0  0.69671  0.6323300000000002  0.8677399999999997  1.0000
  C   C134      1.0  0.13344  0.36657  0.69752  1.0000
  C   C135      1.0  0.29861  0.0699  0.2986299999999999  1.0000
  C   C136      1.0  0.8668900000000003  0.63317  0.30295999999999995  1.0000
  C   C137      1.0  0.69939  0.36500000000000005  0.86499  1.0000
  C   C138      1.0  0.30393000000000003  0.6319200000000001  0.13182  1.0000
  C   C139      1.0  0.8679  0.36839  0.3045  1.0000
  C   C140      1.0  0.13182  0.6318700000000002  0.69587  1.0000
  C   C141      1.0  0.30157  0.63424  0.866  1.0000
  C   C142      1.0  0.69609  0.36800000000000005  0.1321  1.0000
  C   C143      1.0  0.13271  0.63194  0.30411  1.0000
  C   C144      1.0  0.8668  0.36687  0.69705  1.0000
  C   C145      1.0  0.69936  0.63491  0.13489  1.0000
  C   C146      1.0  0.7017900000000001  0.0703  0.29823  1.0000
  C   C147      1.0  0.30198  0.36725  0.8669599999999997  1.0000
  C   C148      1.0  0.8675500000000002  0.63163  0.6955799999999998  1.0000
  C   C149      1.0  0.13326  0.36669  0.30282  1.0000
  C   C150      1.0  0.6318800000000001  0.13256  0.69597  1.0000
  C   C151      1.0  0.36576000000000003  0.8657  0.30142  1.0000
  C   C152      1.0  0.63427  0.69864  0.86596  1.0000
  C   C153      1.0  0.36755  0.30326  0.13256  1.0000
  C   C154      1.0  0.63309  0.8662500000000002  0.30306  1.0000
  C   C155      1.0  0.36728  0.13269  0.69648  1.0000
  C   C156      1.0  0.63413  0.30145  0.13402  1.0000
  C   C157      1.0  0.2988100000000001  0.9302900000000002  0.70126  1.0000
  C   C158      1.0  0.36777  0.69666  0.8679099999999998  1.0000
  C   C159      1.0  0.3679800000000001  0.86738  0.6960499999999997  1.0000
  C   C160      1.0  0.63342  0.13334  0.30268  1.0000
  C   C161      1.0  0.3667500000000001  0.30328  0.8674499999999998  1.0000
  C   C162      1.0  0.6331400000000003  0.69717  0.13312  1.0000
  C   C163      1.0  0.3678  0.13206  0.30403  1.0000
  C   C164      1.0  0.63082  0.8690000000000002  0.69507  1.0000
  C   C165      1.0  0.36832  0.6962300000000002  0.13171  1.0000
  C   C166      1.0  0.63326  0.3027  0.86675  1.0000
  C   C167      1.0  0.8651300000000002  0.69944  0.36504  1.0000
  C   C168      1.0  0.4305300000000001  0.20097000000000007  0.29907  1.0000
  C   C169      1.0  0.13333  0.30257  0.6334  1.0000
  C   C170      1.0  0.30411  0.8684  0.36799  1.0000
  C   C171      1.0  0.69609  0.13209  0.63202  1.0000
  C   C172      1.0  0.13479  0.30059  0.3650799999999999  1.0000
  C   C173      1.0  0.86791  0.69605  0.63192  1.0000
  C   C174      1.0  0.6976100000000001  0.13349  0.36638  1.0000
  C   C175      1.0  0.30267  0.86672  0.6333399999999999  1.0000
  C   C176      1.0  0.13373  0.69845  0.63398  1.0000
  C   C177      1.0  0.86883  0.3043100000000001  0.36880999999999997  1.0000
  C   C178      1.0  0.69542  0.8681800000000002  0.6313799999999999  1.0000
  C   C179      1.0  0.56915  0.79928  0.7007399999999998  1.0000
  C   C180      1.0  0.30364  0.13184  0.36807  1.0000
  C   C181      1.0  0.86518  0.3006  0.63491  1.0000
  C   C182      1.0  0.13165  0.6955200000000002  0.36870999999999987  1.0000
  C   C183      1.0  0.29619  0.14303  0.6420999999999998  1.0000
  C   C184      1.0  0.69609  0.8677200000000003  0.3679399999999999  1.0000
  C   C185      1.0  0.80052  0.36482000000000003  0.63509  1.0000
  C   C186      1.0  0.19839  0.63358  0.3663699999999999  1.0000
  C   C187      1.0  0.63224  0.36726000000000003  0.19651999999999994  1.0000
  C   C188      1.0  0.36771000000000004  0.63291  0.80375  1.0000
  C   C189      1.0  0.19684000000000001  0.36713  0.36715  1.0000
  C   C190      1.0  0.29865  0.20164  0.56997  1.0000
  C   C191      1.0  0.8038000000000002  0.63168  0.6317  1.0000
  C   C192      1.0  0.36782  0.36806  0.8040699999999997  1.0000
  C   C193      1.0  0.6329000000000002  0.63275  0.19685999999999995  1.0000
  C   C194      1.0  0.80285  0.63306  0.36699  1.0000
  C   C195      1.0  0.19742  0.36667  0.63342  1.0000
  C   C196      1.0  0.63311  0.63245  0.8036199999999998  1.0000
  C   C197      1.0  0.36712000000000006  0.36764  0.19666999999999996  1.0000
  C   C198      1.0  0.19613  0.6325300000000001  0.6319899999999999  1.0000
  C   C199      1.0  0.80408  0.3678800000000001  0.36859  1.0000
  C   C200      1.0  0.3695700000000001  0.6302  0.19423999999999994  1.0000
  C   C201      1.0  0.70136  0.79862  0.43013  1.0000
  C   C202      1.0  0.63315  0.36703  0.80295  1.0000
  C   C203      1.0  0.6333800000000002  0.19753  0.36656  1.0000
  C   C204      1.0  0.36781  0.8033  0.63217  1.0000
  C   C205      1.0  0.63148  0.8043900000000003  0.63116  1.0000
  C   C206      1.0  0.36768  0.19596  0.3684099999999999  1.0000
  C   C207      1.0  0.36787  0.8037300000000003  0.36778  1.0000
  C   C208      1.0  0.63168  0.19619  0.6316699999999998  1.0000
  C   C209      1.0  0.36773000000000006  0.19790000000000002  0.6329999999999998  1.0000
  C   C210      1.0  0.63416  0.80091  0.36583999999999994  1.0000
  C   C211      1.0  0.7181900000000001  0.8769800000000002  0.12528  1.0000
  C   C212      1.0  0.56936  0.20106  0.7008999999999997  1.0000
  C   C213      1.0  0.23271000000000003  0.07762  0.9233  1.0000
  C   C214      1.0  0.12524  0.8788000000000001  0.28053  1.0000
  C   C215      1.0  0.9237600000000001  0.0776  0.7690999999999998  1.0000
  C   C216      1.0  0.28108  0.86994  0.8710999999999999  1.0000
  C   C217      1.0  0.76712  0.07723  0.07701  1.0000
  C   C218      1.0  0.8738200000000002  0.8708300000000002  0.71891  1.0000
  C   C219      1.0  0.07681  0.07831000000000003  0.23151  1.0000
  C   C220      1.0  0.71876  0.13021  0.87104  1.0000
  C   C221      1.0  0.23184  0.9230800000000002  0.07688999999999997  1.0000
  C   C222      1.0  0.12787  0.13121  0.71798  1.0000
  C   C223      1.0  0.29867000000000005  0.70144  0.06985  1.0000
  C   C224      1.0  0.43014  0.79861  0.29865  1.0000
  C   C225      1.0  0.9231300000000001  0.92183  0.23147999999999994  1.0000
  C   C226      1.0  0.28515  0.13251  0.13248999999999997  1.0000
  C   C227      1.0  0.76722  0.9240700000000001  0.9230999999999999  1.0000
  C   C228      1.0  0.8677200000000003  0.13177  0.28383  1.0000
  C   C229      1.0  0.07668  0.9219100000000002  0.7673999999999997  1.0000
  C   C230      1.0  0.11779  0.28032  0.88481  1.0000
  C   C231      1.0  0.92072  0.76604  0.07734  1.0000
  C   C232      1.0  0.12894  0.71819  0.12682  1.0000
  C   C233      1.0  0.92148  0.23357  0.9227699999999999  1.0000
  C   C234      1.0  0.87069  0.71863  0.8742499999999997  1.0000
  C   C235      1.0  0.70174  0.20176  0.4296299999999999  1.0000
  C   C236      1.0  0.07853000000000003  0.23192  0.07741  1.0000
  C   C237      1.0  0.8708600000000001  0.28144  0.12732  1.0000
  C   C238      1.0  0.07828000000000002  0.76727  0.9230999999999999  1.0000
  C   C239      1.0  0.26843  0.4231300000000001  0.07946999999999999  1.0000
  C   C240      1.0  0.73255  0.5777  0.9230399999999997  1.0000
  C   C241      1.0  0.08003000000000003  0.42303  0.7326899999999997  1.0000
  C   C242      1.0  0.92331  0.57887  0.26961  1.0000
  C   C243      1.0  0.7851400000000001  0.36753  0.86735  1.0000
  C   C244      1.0  0.26667  0.57844  0.07718  1.0000
  C   C245      1.0  0.86843  0.36766  0.21999  1.0000
  C   C246      1.0  0.29833  0.7983200000000001  0.57029  1.0000
  C   C247      1.0  0.07649  0.57731  0.73221  1.0000
  C   C248      1.0  0.2158  0.63104  0.8689299999999998  1.0000
  C   C249      1.0  0.73203  0.42275  0.07681  1.0000
  C   C250      1.0  0.13155  0.63241  0.21981999999999996  1.0000
  C   C251      1.0  0.92333  0.42138  0.73085  1.0000
  C   C252      1.0  0.78513  0.63249  0.13247  1.0000
  C   C253      1.0  0.21649000000000002  0.37670000000000003  0.87718  1.0000
  C   C254      1.0  0.8666  0.6341100000000002  0.7798699999999998  1.0000
  C   C255      1.0  0.07704  0.42072  0.26795  1.0000
  C   C256      1.0  0.6315100000000001  0.13215  0.7804299999999997  1.0000
  C   C257      1.0  0.4305500000000001  0.79887  0.70098  1.0000
  C   C258      1.0  0.36864  0.86872  0.21591999999999997  1.0000
  C   C259      1.0  0.63063  0.7845400000000002  0.86916  1.0000
  C   C260      1.0  0.42165  0.26765  0.07692  1.0000
  C   C261      1.0  0.6357800000000001  0.86778  0.21851999999999994  1.0000
  C   C262      1.0  0.37248  0.13118  0.7812499999999999  1.0000
  C   C263      1.0  0.63152  0.21559  0.13176999999999997  1.0000
  C   C264      1.0  0.42216  0.73299  0.9230699999999998  1.0000
  C   C265      1.0  0.36873  0.8683700000000001  0.78052  1.0000
  C   C266      1.0  0.57995  0.07681000000000003  0.26905  1.0000
  C   C267      1.0  0.37035  0.21817  0.8719599999999997  1.0000
  C   C268      1.0  0.57036  0.20173000000000005  0.29818999999999996  1.0000
  C   C269      1.0  0.57855  0.7319900000000003  0.07749  1.0000
  C   C270      1.0  0.42352  0.07838000000000003  0.26848  1.0000
  C   C271      1.0  0.57716  0.9239400000000002  0.73357  1.0000
  C   C272      1.0  0.42374  0.7329000000000001  0.07895999999999999  1.0000
  C   C273      1.0  0.57911  0.26836  0.9228899999999998  1.0000
  C   C274      1.0  0.8682000000000002  0.78542  0.3685599999999999  1.0000
  C   C275      1.0  0.07689  0.26837  0.57985  1.0000
  C   C276      1.0  0.21966  0.87491  0.3777  1.0000
  C   C277      1.0  0.73295  0.07654  0.57834  1.0000
  C   C278      1.0  0.13199  0.21464000000000005  0.36844  1.0000
  C   C279      1.0  0.2991800000000001  0.7992000000000002  0.43071  1.0000
  C   C280      1.0  0.92355  0.73253  0.57859  1.0000
  C   C281      1.0  0.73275  0.07977  0.4223599999999999  1.0000
  C   C282      1.0  0.26002  0.91918  0.58156  1.0000
  C   C283      1.0  0.13142  0.78436  0.63114  1.0000
  C   C284      1.0  0.9235600000000003  0.26704  0.42306  1.0000
  C   C285      1.0  0.7801  0.8677600000000001  0.63236  1.0000
  C   C286      1.0  0.26732  0.07625000000000003  0.4219699999999999  1.0000
  C   C287      1.0  0.8698800000000001  0.21488000000000002  0.62989  1.0000
  C   C288      1.0  0.12197  0.7800200000000003  0.3747799999999999  1.0000
  C   C289      1.0  0.21925000000000006  0.17939  0.64872  1.0000
  C   C290      1.0  0.70128  0.20131000000000004  0.56985  1.0000
  C   C291      1.0  0.72931  0.92411  0.42256  1.0000
  C   C292      1.0  0.71487  0.36878  0.63144  1.0000
  C   C293      1.0  0.28404  0.63006  0.3702199999999999  1.0000
  C   C294      1.0  0.62695  0.3710600000000001  0.28124  1.0000
  C   C295      1.0  0.36829  0.63196  0.7193999999999998  1.0000
  C   C296      1.0  0.23006  0.4237400000000001  0.42141  1.0000
  C   C297      1.0  0.767  0.5774  0.57682  1.0000
  C   C298      1.0  0.42272  0.4237  0.7686  1.0000
  C   C299      1.0  0.5768  0.57821  0.23143999999999995  1.0000
  C   C300      1.0  0.76825  0.57664  0.42108999999999996  1.0000
  C   C301      1.0  0.56976  0.7985900000000002  0.29872  1.0000
  C   C302      1.0  0.23196  0.4206100000000001  0.5773  1.0000
  C   C303      1.0  0.6317500000000001  0.6321200000000001  0.7192  1.0000
  C   C304      1.0  0.36931  0.3698  0.2815  1.0000
  C   C305      1.0  0.28096  0.6303000000000002  0.62844  1.0000
  C   C306      1.0  0.71936  0.36800000000000005  0.36761  1.0000
  C   C307      1.0  0.42855  0.57819  0.22742999999999994  1.0000
  C   C308      1.0  0.57704  0.42119000000000006  0.7678899999999999  1.0000
  C   C309      1.0  0.57678  0.23107000000000003  0.42021  1.0000
  C   C310      1.0  0.42147000000000007  0.76651  0.5768  1.0000
  C   C311      1.0  0.62899  0.71914  0.6271099999999998  1.0000
  C   C312      1.0  0.4311700000000001  0.20068  0.70068  1.0000
  C   C313      1.0  0.3712  0.28121  0.3689  1.0000
  C   C314      1.0  0.42322  0.7683100000000002  0.42268  1.0000
  C   C315      1.0  0.57716  0.23286  0.5769399999999999  1.0000
  C   C316      1.0  0.37318  0.28349  0.6213399999999998  1.0000
  C   C317      1.0  0.63026  0.71497  0.36993999999999994  1.0000
  C   C318      1.0  0.70051  0.79947  0.56881  1.0000
  C   C319      1.0  0.70169  0.29835  0.92978  1.0000
  C   C320      1.0  0.29888  0.20096  0.4305299999999999  1.0000
  C   C321      1.0  0.79843  0.29845  0.57008  1.0000
  C   C322      1.0  0.20092  0.70087  0.43074  1.0000
  C   C323      1.0  0.79892  0.56934  0.7009099999999998  1.0000
  C   C324      1.0  0.20156000000000004  0.4299  0.29844  1.0000
  C   C325      1.0  0.79843  0.70155  0.42988  1.0000
  C   C326      1.0  0.20168000000000003  0.2983  0.5703  1.0000
  C   C327      1.0  0.79931  0.43102  0.2994499999999999  1.0000
  C   C328      1.0  0.20087  0.56934  0.70086  1.0000
  C   C329      1.0  0.20092  0.7010300000000002  0.56939  1.0000
  C   C330      1.0  0.06974  0.70124  0.70131  1.0000
  C   C331      1.0  0.79917  0.29901  0.4306999999999999  1.0000
  C   C332      1.0  0.20173000000000002  0.4297100000000001  0.70173  1.0000
  C   C333      1.0  0.79843  0.57012  0.29844  1.0000
  C   C334      1.0  0.20156000000000004  0.29847  0.42989  1.0000
  C   C335      1.0  0.79863  0.70133  0.5699  1.0000
  C   C336      1.0  0.20108000000000006  0.5693300000000001  0.29901999999999995  1.0000
  C   C337      1.0  0.7984400000000003  0.42995  0.7015399999999999  1.0000
  C   C338      1.0  0.7015300000000001  0.57006  0.20157  1.0000
  C   C339      1.0  0.29886  0.43046  0.79884  1.0000
  C   C340      1.0  0.43047  0.70097  0.20117999999999997  1.0000
  C   C341      1.0  0.93076  0.29918  0.2992  1.0000
  C   C342      1.0  0.57015  0.29845  0.7984  1.0000
  C   C343      1.0  0.29874  0.43033  0.20128999999999994  1.0000
  C   C344      1.0  0.7011600000000001  0.56947  0.7989499999999998  1.0000
  C   C345      1.0  0.56942  0.29893  0.201  1.0000
  C   C346      1.0  0.4305400000000001  0.7011100000000002  0.79902  1.0000
  C   C347      1.0  0.29902  0.56949  0.79899  1.0000
  C   C348      1.0  0.70091  0.43060000000000004  0.20097999999999994  1.0000
  C   C349      1.0  0.56955  0.7010100000000002  0.7989399999999998  1.0000
  C   C350      1.0  0.43039  0.29896  0.20109999999999995  1.0000
  C   C351      1.0  0.7015900000000003  0.4299  0.79838  1.0000
  C   C352      1.0  0.70145  0.7014100000000001  0.93009  1.0000
  C   C353      1.0  0.29901  0.56945  0.20109  1.0000
  C   C354      1.0  0.43044  0.299  0.79899  1.0000
  C   C355      1.0  0.57006  0.70148  0.20151999999999995  1.0000
  C   C356      1.0  0.9300500000000003  0.20137  0.7986  1.0000
  C   C357      1.0  0.06913  0.79928  0.20078  1.0000
  C   C358      1.0  0.79892  0.20089000000000004  0.06941  1.0000
  C   C359      1.0  0.20105  0.7988800000000001  0.9304899999999998  1.0000
  C   C360      1.0  0.07007  0.20148  0.20153  1.0000
  C   C361      1.0  0.93096  0.79928  0.7993899999999998  1.0000
  C   C362      1.0  0.20065  0.20082  0.9307499999999997  1.0000
  C   C363      1.0  0.29846  0.2984  0.07019  1.0000
  C   C364      1.0  0.79881  0.7988300000000002  0.0696  1.0000
  C   C365      1.0  0.92985  0.7985300000000002  0.20151999999999995  1.0000
  C   C366      1.0  0.06876  0.20057  0.79946  1.0000
  C   C367      1.0  0.79906  0.7992400000000002  0.93073  1.0000
  C   C368      1.0  0.20161  0.20159000000000005  0.07015  1.0000
  C   C369      1.0  0.06995  0.7986300000000002  0.79858  1.0000
  C   C370      1.0  0.93053  0.201  0.201  1.0000
  C   C371      1.0  0.20116  0.79901  0.06952  1.0000
  C   C372      1.0  0.79894  0.20114  0.9304899999999998  1.0000
  C   C373      1.0  0.79871  0.06977000000000001  0.20129999999999998  1.0000
  C   C374      1.0  0.92996  0.2985  0.70156  1.0000
  C   C375      1.0  0.20097  0.93058  0.79904  1.0000
  C   C376      1.0  0.79917  0.9306900000000001  0.7991099999999999  1.0000
  C   C377      1.0  0.20154  0.07007  0.20158  1.0000
  C   C378      1.0  0.20084  0.9306900000000001  0.20094  1.0000
  C   C379      1.0  0.7990500000000003  0.06943  0.79906  1.0000
  C   C380      1.0  0.20121  0.06959  0.7989  1.0000
  C   C381      1.0  0.7990100000000002  0.9306400000000001  0.20092  1.0000
  C   C382      1.0  0.82451  0.88917  0.17506999999999995  1.0000
  C   C383      1.0  0.17538  0.11123000000000001  0.82478  1.0000
  C   C384      1.0  0.17515  0.88931  0.17522999999999997  1.0000
  Cu  Cu1       1.0  0.0  0.7848000000000003  0.2848  1.0000
  Cu  Cu2       1.0  0.7848  0.7152000000000002  0.0  1.0000
  Cu  Cu3       1.0  0.2152  0.0  0.7152  1.0000
  Cu  Cu4       1.0  0.7848  0.0  0.2848  1.0000
  Cu  Cu5       1.0  0.2152  0.7152000000000002  0.0  1.0000
  Cu  Cu6       1.0  0.7848  0.2848  0.0  1.0000
  Cu  Cu7       1.0  0.2152  0.0  0.2848  1.0000
  Cu  Cu8       1.0  0.7848  0.0  0.7152  1.0000
  Cu  Cu9       1.0  0.7152  0.0  0.7848  1.0000
  Cu  Cu10      1.0  0.2848  0.0  0.21519999999999997  1.0000
  Cu  Cu11      1.0  6.44753499869842e-20  0.7152000000000002  0.7848  1.0000
  Cu  Cu12      1.0  0.0  0.21520000000000006  0.7152  1.0000
  Cu  Cu13      1.0  6.44753499869842e-20  0.2848  0.21519999999999997  1.0000
  Cu  Cu14      1.0  0.2848  0.0  0.7848  1.0000
  Cu  Cu15      1.0  0.7152  0.0  0.21519999999999997  1.0000
  Cu  Cu16      1.0  1.289506999739684e-19  0.2848  0.7848  1.0000
  Cu  Cu17      1.0  0.0  0.7152000000000002  0.21519999999999997  1.0000
  Cu  Cu18      1.0  0.5  0.2848  0.2848  1.0000
  Cu  Cu19      1.0  0.5  0.7152000000000002  0.7152  1.0000
  Cu  Cu20      1.0  0.2848  0.2848  0.4999999999999999  1.0000
  Cu  Cu21      1.0  0.7152  0.7152000000000002  0.4999999999999999  1.0000
  Cu  Cu22      1.0  0.5  0.2848  0.7152  1.0000
  Cu  Cu23      1.0  0.2848  0.7848000000000003  0.0  1.0000
  Cu  Cu24      1.0  0.5  0.7152000000000002  0.2848  1.0000
  Cu  Cu25      1.0  0.7152  0.2848  0.4999999999999999  1.0000
  Cu  Cu26      1.0  0.2848  0.7152000000000002  0.4999999999999999  1.0000
  Cu  Cu27      1.0  0.7152  0.5  0.7152  1.0000
  Cu  Cu28      1.0  0.2848  0.5  0.2848  1.0000
  Cu  Cu29      1.0  0.7152  0.5  0.2848  1.0000
  Cu  Cu30      1.0  0.2848  0.5  0.7152  1.0000
  Cu  Cu31      1.0  0.5  0.7848000000000003  0.7848  1.0000
  Cu  Cu32      1.0  0.5  0.21520000000000006  0.21519999999999997  1.0000
  Cu  Cu33      1.0  0.7848  0.7848000000000003  0.4999999999999999  1.0000
  Cu  Cu34      1.0  0.7152  0.21520000000000006  0.0  1.0000
  Cu  Cu35      1.0  0.2152  0.21520000000000006  0.4999999999999999  1.0000
  Cu  Cu36      1.0  0.5  0.7848000000000003  0.21519999999999997  1.0000
  Cu  Cu37      1.0  0.5  0.21520000000000006  0.7848  1.0000
  Cu  Cu38      1.0  0.2152  0.7848000000000003  0.4999999999999999  1.0000
  Cu  Cu39      1.0  0.7848  0.21520000000000006  0.4999999999999999  1.0000
  Cu  Cu40      1.0  0.2152  0.5  0.21519999999999997  1.0000
  Cu  Cu41      1.0  0.7848  0.5  0.7848  1.0000
  Cu  Cu42      1.0  0.2152  0.5  0.7848  1.0000
  Cu  Cu43      1.0  0.7848  0.5  0.21519999999999997  1.0000
  Cu  Cu44      1.0  0.0  0.7848000000000003  0.7152  1.0000
  Cu  Cu45      1.0  0.0  0.21520000000000006  0.2848  1.0000
  Cu  Cu46      1.0  0.7152  0.7848000000000003  0.0  1.0000
  Cu  Cu47      1.0  0.2848  0.21520000000000006  0.0  1.0000
  Cu  Cu48      1.0  0.2152  0.2848  0.0  1.0000
  H   H1        1.0  0.72032  0.8701600000000003  0.16536  1.0000
  H   H2        1.0  0.90698  0.04054  0.77602  1.0000
  H   H3        1.0  0.7335200000000002  0.4606200000000001  0.09308999999999998  1.0000
  H   H4        1.0  0.69651  0.41777  0.05638  1.0000
  H   H5        1.0  0.76267  0.42050000000000004  0.04924  1.0000
  H   H6        1.0  0.17017  0.6213  0.21135  1.0000
  H   H7        1.0  0.13355  0.67279  0.22485999999999998  1.0000
  H   H8        1.0  0.10814  0.62237  0.18749  1.0000
  H   H9        1.0  0.90715  0.45917000000000013  0.72763  1.0000
  H   H10       1.0  0.94576  0.41263  0.6972899999999999  1.0000
  H   H11       1.0  0.94914  0.42204  0.7628999999999999  1.0000
  H   H12       1.0  0.7859200000000002  0.63209  0.17358  1.0000
  H   H13       1.0  0.9486300000000002  0.08799  0.8003199999999998  1.0000
  H   H14       1.0  0.79244  0.6711400000000001  0.12039999999999997  1.0000
  H   H15       1.0  0.81642  0.60942  0.11855999999999997  1.0000
  H   H16       1.0  0.21122000000000002  0.3362  0.8804699999999998  1.0000
  H   H17       1.0  0.2072  0.3852000000000001  0.8383499999999998  1.0000
  H   H18       1.0  0.18872  0.3959  0.90098  1.0000
  H   H19       1.0  0.8276300000000001  0.62273  0.78753  1.0000
  H   H20       1.0  0.86419  0.6747100000000003  0.77331  1.0000
  H   H21       1.0  0.88943  0.62483  0.8133299999999998  1.0000
  H   H22       1.0  0.09258  0.45886000000000005  0.26685  1.0000
  H   H23       1.0  0.05696  0.4149100000000001  0.30358  1.0000
  H   H24       1.0  0.94735  0.07425000000000001  0.7354  1.0000
  H   H25       1.0  0.0492  0.41813  0.23775  1.0000
  H   H26       1.0  0.62379  0.17225000000000004  0.78601  1.0000
  H   H27       1.0  0.67168  0.13011000000000003  0.77741  1.0000
  H   H28       1.0  0.6181600000000002  0.11146000000000003  0.8135399999999999  1.0000
  H   H29       1.0  0.32754  0.87099  0.21411  1.0000
  H   H30       1.0  0.37871  0.8293600000000002  0.20939999999999995  1.0000
  H   H31       1.0  0.38441  0.8907  0.18484  1.0000
  H   H32       1.0  0.62878  0.7864200000000001  0.82816  1.0000
  H   H33       1.0  0.6696900000000001  0.79153  0.8795999999999999  1.0000
  H   H34       1.0  0.6081600000000003  0.8155100000000001  0.8847399999999999  1.0000
  H   H35       1.0  0.27864  0.8697900000000001  0.8310999999999998  1.0000
  H   H36       1.0  0.4595600000000001  0.26794000000000007  0.09296999999999997  1.0000
  H   H37       1.0  0.4152500000000001  0.3026600000000001  0.055779999999999996  1.0000
  H   H38       1.0  0.42036  0.23637  0.04992  1.0000
  H   H39       1.0  0.61979  0.83065  0.20592  1.0000
  H   H40       1.0  0.6764400000000002  0.86138  0.22627  1.0000
  H   H41       1.0  0.63075  0.8955500000000002  0.18702  1.0000
  H   H42       1.0  0.33879  0.11347000000000003  0.79649  1.0000
  H   H43       1.0  0.36299  0.17062000000000002  0.77553  1.0000
  H   H44       1.0  0.4020100000000001  0.12751000000000004  0.80967  1.0000
  H   H45       1.0  0.62989  0.21442  0.17283999999999994  1.0000
  H   H46       1.0  0.28868  0.83072  0.8805099999999999  1.0000
  H   H47       1.0  0.67063  0.20884000000000005  0.12107999999999997  1.0000
  H   H48       1.0  0.6093200000000001  0.18414000000000003  0.11693  1.0000
  H   H49       1.0  0.46001  0.7358000000000001  0.90704  1.0000
  H   H50       1.0  0.4181  0.69681  0.9427899999999999  1.0000
  H   H51       1.0  0.41899  0.7630600000000001  0.9512  1.0000
  H   H52       1.0  0.37652  0.8283400000000002  0.7863699999999998  1.0000
  H   H53       1.0  0.32859  0.8702100000000003  0.7776999999999997  1.0000
  H   H54       1.0  0.38205000000000006  0.8893800000000001  0.81341  1.0000
  H   H55       1.0  0.54377  0.09315  0.28006  1.0000
  H   H56       1.0  0.59302  0.05061  0.29813  1.0000
  H   H57       1.0  0.31308  0.89262  0.8841299999999999  1.0000
  H   H58       1.0  0.57407  0.0548  0.23472  1.0000
  H   H59       1.0  0.374  0.21777000000000005  0.8319499999999997  1.0000
  H   H60       1.0  0.33026000000000005  0.21216000000000004  0.87884  1.0000
  H   H61       1.0  0.39128  0.18644  0.88826  1.0000
  H   H62       1.0  0.5407  0.73675  0.09291999999999999  1.0000
  H   H63       1.0  0.58166  0.69458  0.05992  1.0000
  H   H64       1.0  0.58293  0.7602300000000002  0.04778  1.0000
  H   H65       1.0  0.40699  0.04152000000000001  0.27666  1.0000
  H   H66       1.0  0.44907  0.08951  0.29884  1.0000
  H   H67       1.0  0.44621000000000005  0.07446000000000001  0.23427999999999993  1.0000
  H   H68       1.0  0.7634900000000001  0.03941  0.09296999999999997  1.0000
  H   H69       1.0  0.53934  0.9077100000000002  0.7357699999999998  1.0000
  H   H70       1.0  0.58131  0.9453000000000003  0.69851  1.0000
  H   H71       1.0  0.58027  0.95087  0.7646899999999998  1.0000
  H   H72       1.0  0.4077700000000001  0.7314300000000002  0.04120999999999998  1.0000
  H   H73       1.0  0.4459800000000001  0.6986600000000001  0.08592999999999999  1.0000
  H   H74       1.0  0.4496500000000001  0.7649600000000002  0.08014  1.0000
  H   H75       1.0  0.5413  0.27047000000000004  0.90687  1.0000
  H   H76       1.0  0.58698  0.3027600000000001  0.94449  1.0000
  H   H77       1.0  0.57933  0.23673000000000002  0.94934  1.0000
  H   H78       1.0  0.8270200000000001  0.7868200000000001  0.36957  1.0000
  H   H79       1.0  0.8034100000000002  0.08066  0.05751999999999999  1.0000
  H   H80       1.0  0.87991  0.7929300000000001  0.3299899999999999  1.0000
  H   H81       1.0  0.8828400000000001  0.8163300000000001  0.39164  1.0000
  H   H82       1.0  0.09269  0.26973  0.54194  1.0000
  H   H83       1.0  0.05588  0.30328  0.5875  1.0000
  H   H84       1.0  0.0498  0.23722  0.58082  1.0000
  H   H85       1.0  0.22089  0.8334300000000002  0.3738599999999999  1.0000
  H   H86       1.0  0.20966  0.88709  0.34003  1.0000
  H   H87       1.0  0.18948  0.8887300000000002  0.4037  1.0000
  H   H88       1.0  0.73757  0.0921  0.54065  1.0000
  H   H89       1.0  0.6961500000000002  0.05787000000000001  0.58124  1.0000
  H   H90       1.0  0.73736  0.08093000000000003  0.04877999999999999  1.0000
  H   H91       1.0  0.76195  0.0475  0.58294  1.0000
  H   H92       1.0  0.17321000000000003  0.21366000000000004  0.36885  1.0000
  H   H93       1.0  0.11986  0.20677000000000006  0.33011  1.0000
  H   H94       1.0  0.11793  0.18373  0.3918999999999999  1.0000
  H   H95       1.0  0.90746  0.7315300000000002  0.54086  1.0000
  H   H96       1.0  0.94546  0.6980600000000002  0.58532  1.0000
  H   H97       1.0  0.94981  0.76436  0.5798199999999999  1.0000
  H   H98       1.0  0.7337400000000002  0.04163  0.40685  1.0000
  H   H99       1.0  0.69703  0.08570000000000003  0.44241  1.0000
  H   H100      1.0  0.76309  0.08235  0.45004  1.0000
  H   H101      1.0  0.83448  0.87781  0.7159099999999998  1.0000
  H   H102      1.0  0.28295  0.9067900000000002  0.54962  1.0000
  H   H103      1.0  0.27563  0.95418  0.59668  1.0000
  H   H104      1.0  0.22214  0.92763  0.56766  1.0000
  H   H105      1.0  0.17256  0.7857600000000002  0.6290799999999998  1.0000
  H   H106      1.0  0.12113000000000002  0.79108  0.67026  1.0000
  H   H107      1.0  0.11612  0.8157200000000001  0.60914  1.0000
  H   H108      1.0  0.90748  0.2616  0.46052  1.0000
  H   H109      1.0  0.9420500000000003  0.30407  0.4211399999999999  1.0000
  H   H110      1.0  0.95278  0.23815  0.4183999999999999  1.0000
  H   H111      1.0  0.7870300000000002  0.82848  0.6222399999999998  1.0000
  H   H112      1.0  0.7031800000000002  0.8419200000000001  0.10907  1.0000
  H   H113      1.0  0.87707  0.82991  0.7149999999999997  1.0000
  H   H114      1.0  0.77544  0.8668000000000002  0.6725799999999998  1.0000
  H   H115      1.0  0.8133400000000002  0.88976  0.62139  1.0000
  H   H116      1.0  0.26505  0.09225000000000003  0.45979999999999993  1.0000
  H   H117      1.0  0.30328  0.056190000000000004  0.4173599999999999  1.0000
  H   H118      1.0  0.23717  0.04815000000000001  0.4190099999999999  1.0000
  H   H119      1.0  0.8288500000000001  0.21221000000000004  0.62763  1.0000
  H   H120      1.0  0.88011  0.20769  0.66886  1.0000
  H   H121      1.0  0.88633  0.18449  0.60729  1.0000
  H   H122      1.0  0.12622  0.77902  0.33339  1.0000
  H   H123      1.0  0.15975000000000003  0.7893300000000002  0.38685  1.0000
  H   H124      1.0  0.89343  0.8892400000000003  0.6873899999999997  1.0000
  H   H125      1.0  0.09635  0.8104300000000001  0.38882  1.0000
  H   H126      1.0  0.23883000000000001  0.21534000000000006  0.64192  1.0000
  H   H127      1.0  0.21119  0.1792  0.68874  1.0000
  H   H128      1.0  0.18431  0.18078  0.62691  1.0000
  H   H129      1.0  0.7221100000000001  0.9071000000000002  0.45928  1.0000
  H   H130      1.0  0.6978  0.94859  0.41184  1.0000
  H   H131      1.0  0.7627  0.9481100000000002  0.4263599999999999  1.0000
  H   H132      1.0  0.7131800000000001  0.36983000000000005  0.67251  1.0000
  H   H133      1.0  0.70738  0.33001  0.61991  1.0000
  H   H134      1.0  0.68422  0.39203  0.61659  1.0000
  H   H135      1.0  0.0926  0.04024  0.23344999999999994  1.0000
  H   H136      1.0  0.28667  0.67112  0.3734099999999999  1.0000
  H   H137      1.0  0.29036  0.62106  0.3307499999999999  1.0000
  H   H138      1.0  0.31484000000000006  0.6131100000000003  0.39169  1.0000
  H   H139      1.0  0.6667900000000002  0.37522  0.28212  1.0000
  H   H140      1.0  0.62113  0.3307400000000001  0.28694  1.0000
  H   H141      1.0  0.60983  0.39162  0.31275  1.0000
  H   H142      1.0  0.37693  0.67174  0.71314  1.0000
  H   H143      1.0  0.32804  0.6310500000000001  0.7228899999999998  1.0000
  H   H144      1.0  0.38087  0.6104500000000002  0.68649  1.0000
  H   H145      1.0  0.22392  0.40710000000000013  0.4584899999999999  1.0000
  H   H146      1.0  0.05738  0.08345  0.19547  1.0000
  H   H147      1.0  0.19779  0.44746  0.4111  1.0000
  H   H148      1.0  0.26298  0.44853000000000004  0.42422  1.0000
  H   H149      1.0  0.76391  0.53955  0.5929  1.0000
  H   H150      1.0  0.80318  0.58115  0.5570699999999998  1.0000
  H   H151      1.0  0.7370700000000002  0.58079  0.54873  1.0000
  H   H152      1.0  0.46045  0.40749  0.76573  1.0000
  H   H153      1.0  0.41856  0.44326  0.8047199999999999  1.0000
  H   H154      1.0  0.41975  0.45214  0.73888  1.0000
  H   H155      1.0  0.59265  0.54016  0.23325999999999994  1.0000
  H   H156      1.0  0.55731  0.58338  0.19544  1.0000
  H   H157      1.0  0.04836  0.0811  0.26126999999999995  1.0000
  H   H158      1.0  0.54839  0.58087  0.26126  1.0000
  H   H159      1.0  0.7665  0.5923200000000001  0.45903999999999995  1.0000
  H   H160      1.0  0.80435  0.55705  0.4156699999999999  1.0000
  H   H161      1.0  0.73836  0.54824  0.4184099999999999  1.0000
  H   H162      1.0  0.23196  0.45872  0.59303  1.0000
  H   H163      1.0  0.19654000000000005  0.4140200000000001  0.55706  1.0000
  H   H164      1.0  0.26253  0.41877000000000003  0.54968  1.0000
  H   H165      1.0  0.6709300000000001  0.6222100000000003  0.71173  1.0000
  H   H166      1.0  0.63215  0.67249  0.72325  1.0000
  H   H167      1.0  0.6092  0.6205700000000001  0.68672  1.0000
  H   H168      1.0  0.7214100000000002  0.13066  0.83101  1.0000
  H   H169      1.0  0.36867  0.32948  0.27845  1.0000
  H   H170      1.0  0.33056  0.38041  0.28967999999999994  1.0000
  H   H171      1.0  0.39264  0.38196  0.3133199999999999  1.0000
  H   H172      1.0  0.27958  0.6282600000000002  0.66839  1.0000
  H   H173      1.0  0.28706  0.67027  0.62096  1.0000
  H   H174      1.0  0.31329  0.60912  0.6136199999999998  1.0000
  H   H175      1.0  0.7117200000000001  0.32897  0.3781899999999999  1.0000
  H   H176      1.0  0.72428  0.36666  0.32738  1.0000
  H   H177      1.0  0.6864  0.39071  0.3779599999999999  1.0000
  H   H178      1.0  0.4592000000000001  0.5971300000000003  0.20787  1.0000
  H   H179      1.0  0.71093  0.16933  0.88086  1.0000
  H   H180      1.0  0.41548000000000007  0.5454700000000001  0.20576999999999998  1.0000
  H   H181      1.0  0.44340000000000007  0.56438  0.26319999999999993  1.0000
  H   H182      1.0  0.59271  0.45933  0.76671  1.0000
  H   H183      1.0  0.55678  0.41555  0.8034799999999997  1.0000
  H   H184      1.0  0.54935  0.41871  0.73752  1.0000
  H   H185      1.0  0.59308  0.22384  0.45718  1.0000
  H   H186      1.0  0.5528  0.19925000000000004  0.40908  1.0000
  H   H187      1.0  0.55248  0.26432  0.42345  1.0000
  H   H188      1.0  0.45931000000000005  0.7673900000000001  0.59291  1.0000
  H   H189      1.0  0.41485000000000005  0.80094  0.55483  1.0000
  H   H190      1.0  0.6867200000000001  0.10736  0.88376  1.0000
  H   H191      1.0  0.42032  0.73456  0.55068  1.0000
  H   H192      1.0  0.62527  0.71904  0.66691  1.0000
  H   H193      1.0  0.66929  0.7137700000000001  0.62126  1.0000
  H   H194      1.0  0.60881  0.68689  0.61072  1.0000
  H   H195      1.0  0.33363  0.29313  0.3828699999999999  1.0000
  H   H196      1.0  0.3664000000000001  0.27532  0.32858  1.0000
  H   H197      1.0  0.39816  0.31255000000000005  0.37654  1.0000
  H   H198      1.0  0.40737  0.7629700000000001  0.46022  1.0000
  H   H199      1.0  0.44094000000000005  0.8057000000000002  0.42035  1.0000
  H   H200      1.0  0.45304  0.74  0.41831  1.0000
  H   H201      1.0  0.23344  0.9608700000000002  0.09329  1.0000
  H   H202      1.0  0.53951  0.23824  0.59289  1.0000
  H   H203      1.0  0.57929  0.19565000000000002  0.55877  1.0000
  H   H204      1.0  0.58168  0.26149  0.54756  1.0000
  H   H205      1.0  0.3935700000000001  0.30096  0.65231  1.0000
  H   H206      1.0  0.33305  0.2829  0.63114  1.0000
  H   H207      1.0  0.37818  0.3085100000000001  0.58896  1.0000
  H   H208      1.0  0.67131  0.71244  0.3723599999999999  1.0000
  H   H209      1.0  0.6202  0.70806  0.33083999999999997  1.0000
  H   H210      1.0  0.61388  0.6842700000000002  0.3921999999999999  1.0000
  H   H211      1.0  0.19614  0.91822  0.05672  1.0000
  H   H212      1.0  0.6901600000000001  0.9068000000000003  0.11685999999999998  1.0000
  H   H213      1.0  0.26226  0.9208700000000001  0.04910999999999999  1.0000
  H   H214      1.0  0.16451  0.11647999999999999  0.7075899999999998  1.0000
  H   H215      1.0  0.13054  0.17234000000000005  0.7192499999999998  1.0000
  H   H216      1.0  0.10217  0.12065  0.68764  1.0000
  H   H217      1.0  0.90639  0.95886  0.22298999999999994  1.0000
  H   H218      1.0  0.94916  0.91047  0.20116  1.0000
  H   H219      1.0  0.94561  0.9260700000000002  0.26602  1.0000
  H   H220      1.0  0.28591  0.13216  0.17359999999999995  1.0000
  H   H221      1.0  0.2925  0.17113000000000003  0.12037  1.0000
  H   H222      1.0  0.3164400000000001  0.10940000000000003  0.11863999999999997  1.0000
  H   H223      1.0  0.23493000000000006  0.03974000000000001  0.90725  1.0000
  H   H224      1.0  0.76159  0.9615700000000001  0.9068799999999999  1.0000
  H   H225      1.0  0.8041700000000002  0.92242  0.94143  1.0000
  H   H226      1.0  0.7384200000000002  0.9196600000000003  0.9523099999999998  1.0000
  H   H227      1.0  0.82655  0.13023  0.2849  1.0000
  H   H228      1.0  0.8784400000000001  0.17092  0.29064  1.0000
  H   H229      1.0  0.88243  0.10940000000000003  0.31515999999999994  1.0000
  H   H230      1.0  0.09255  0.9599600000000003  0.76553  1.0000
  H   H231      1.0  0.056160000000000015  0.9171200000000003  0.80295  1.0000
  H   H232      1.0  0.0491  0.91896  0.73693  1.0000
  H   H233      1.0  0.08599  0.30133000000000004  0.86919  1.0000
  H   H234      1.0  0.19705  0.08211  0.9437099999999999  1.0000
  H   H235      1.0  0.14986  0.28214  0.8586399999999997  1.0000
  H   H236      1.0  0.12632  0.30055  0.9189399999999998  1.0000
  H   H237      1.0  0.95859  0.76707  0.09327  1.0000
  H   H238      1.0  0.91404  0.8003600000000002  0.05527  1.0000
  H   H239      1.0  0.9194500000000001  0.7340200000000001  0.05135  1.0000
  H   H240      1.0  0.12409  0.71676  0.16642  1.0000
  H   H241      1.0  0.16926  0.71273  0.12128999999999997  1.0000
  H   H242      1.0  0.10873000000000001  0.68669  0.10925999999999997  1.0000
  H   H243      1.0  0.9594100000000002  0.23627  0.9069999999999998  1.0000
  H   H244      1.0  0.91732  0.19747000000000003  0.9425999999999998  1.0000
  H   H245      1.0  0.26323  0.08066  0.9507799999999997  1.0000
  H   H246      1.0  0.91795  0.2637  0.9507499999999998  1.0000
  H   H247      1.0  0.8788500000000002  0.71563  0.83475  1.0000
  H   H248      1.0  0.82914  0.7159100000000002  0.87643  1.0000
  H   H249      1.0  0.88829  0.68639  0.8945699999999998  1.0000
  H   H250      1.0  0.04063  0.23681000000000005  0.09274999999999999  1.0000
  H   H251      1.0  0.08162000000000003  0.19447000000000006  0.05992  1.0000
  H   H252      1.0  0.08304  0.26008  0.04764  1.0000
  H   H253      1.0  0.87425  0.28175  0.16711999999999996  1.0000
  H   H254      1.0  0.83079  0.28738  0.12085999999999998  1.0000
  H   H255      1.0  0.89173  0.31318  0.11098999999999998  1.0000
  H   H256      1.0  0.16603  0.8713900000000002  0.27891999999999995  1.0000
  H   H257      1.0  0.04056  0.7691900000000003  0.9068499999999998  1.0000
  H   H258      1.0  0.08553  0.8013400000000003  0.94543  1.0000
  H   H259      1.0  0.07871000000000002  0.73511  0.9489  1.0000
  H   H260      1.0  0.28052  0.40674000000000005  0.04377999999999999  1.0000
  H   H261      1.0  0.29651  0.45031000000000004  0.09264999999999997  1.0000
  H   H262      1.0  0.23339000000000004  0.44391000000000014  0.07277999999999998  1.0000
  H   H263      1.0  0.73517  0.53979  0.9070099999999999  1.0000
  H   H264      1.0  0.6964300000000002  0.58204  0.9427299999999997  1.0000
  H   H265      1.0  0.76248  0.58073  0.95116  1.0000
  H   H266      1.0  0.0419  0.40758000000000005  0.73292  1.0000
  H   H267      1.0  0.10855000000000001  0.8437600000000002  0.29415  1.0000
  H   H268      1.0  0.08652  0.44357  0.6974099999999998  1.0000
  H   H269      1.0  0.08222  0.45053  0.7633299999999997  1.0000
  H   H270      1.0  0.9067500000000002  0.5421100000000001  0.27815  1.0000
  H   H271      1.0  0.94823  0.59066  0.30027  1.0000
  H   H272      1.0  0.94672  0.5744  0.23598  1.0000
  H   H273      1.0  0.78594  0.36775000000000013  0.8262399999999999  1.0000
  H   H274      1.0  0.79261  0.32899  0.8795899999999999  1.0000
  H   H275      1.0  0.8163000000000002  0.3908  0.8810599999999997  1.0000
  H   H276      1.0  0.26355  0.54052  0.09285999999999997  1.0000
  H   H277      1.0  0.30281  0.58218  0.057329999999999985  1.0000
  H   H278      1.0  0.11468000000000003  0.9076600000000002  0.3092  1.0000
  H   H279      1.0  0.23673  0.58235  0.04918  1.0000
  H   H280      1.0  0.8293  0.37763  0.21255  1.0000
  H   H281      1.0  0.8676600000000001  0.32731  0.22457  1.0000
  H   H282      1.0  0.89091  0.3786100000000001  0.18721  1.0000
  H   H283      1.0  0.09276000000000002  0.53949  0.7342799999999999  1.0000
  H   H284      1.0  0.056160000000000015  0.58178  0.69663  1.0000
  H   H285      1.0  0.04875  0.58003  0.76265  1.0000
  H   H286      1.0  0.21402  0.62911  0.82794  1.0000
  H   H287      1.0  0.20903000000000005  0.6702900000000003  0.8792799999999998  1.0000
  H   H288      1.0  0.18469  0.60884  0.88446  1.0000
  O   O1        1.0  0.94735  0.81637  0.24242999999999995  1.0000
  O   O2        1.0  0.05265  0.81637  0.24242999999999995  1.0000
  O   O3        1.0  0.25757  0.18363000000000002  0.4473499999999999  1.0000
  O   O4        1.0  0.55265  0.81637  0.25757  1.0000
  O   O5        1.0  0.44735  0.18363000000000002  0.7424299999999998  1.0000
  O   O6        1.0  0.25757  0.81637  0.4473499999999999  1.0000
  O   O7        1.0  0.7424300000000001  0.18363000000000002  0.55265  1.0000
  O   O8        1.0  0.44735  0.18363000000000002  0.25757  1.0000
  O   O9        1.0  0.55265  0.81637  0.7424299999999998  1.0000
  O   O10       1.0  0.7424300000000001  0.18363000000000002  0.4473499999999999  1.0000
  O   O11       1.0  0.25757  0.81637  0.55265  1.0000
  O   O12       1.0  0.55265  0.18363000000000002  0.7424299999999998  1.0000
  O   O13       1.0  0.24243  0.18363000000000002  0.94735  1.0000
  O   O14       1.0  0.44735  0.81637  0.25757  1.0000
  O   O15       1.0  0.25757  0.18363000000000002  0.55265  1.0000
  O   O16       1.0  0.7424300000000001  0.81637  0.4473499999999999  1.0000
  O   O17       1.0  0.18363  0.7424300000000003  0.55265  1.0000
  O   O18       1.0  0.81637  0.25757  0.4473499999999999  1.0000
  O   O19       1.0  0.18363  0.55265  0.25757  1.0000
  O   O20       1.0  0.81637  0.44735  0.7424299999999998  1.0000
  O   O21       1.0  0.18363  0.25757  0.4473499999999999  1.0000
  O   O22       1.0  0.81637  0.7424300000000003  0.55265  1.0000
  O   O23       1.0  0.18363  0.44735  0.7424299999999998  1.0000
  O   O24       1.0  0.75757  0.81637  0.05265  1.0000
  O   O25       1.0  0.81637  0.55265  0.25757  1.0000
  O   O26       1.0  0.81637  0.25757  0.55265  1.0000
  O   O27       1.0  0.18363  0.7424300000000003  0.4473499999999999  1.0000
  O   O28       1.0  0.81637  0.44735  0.25757  1.0000
  O   O29       1.0  0.18363  0.55265  0.7424299999999998  1.0000
  O   O30       1.0  0.81637  0.7424300000000003  0.4473499999999999  1.0000
  O   O31       1.0  0.18363  0.25757  0.55265  1.0000
  O   O32       1.0  0.81637  0.55265  0.7424299999999998  1.0000
  O   O33       1.0  0.18363  0.44735  0.25757  1.0000
  O   O34       1.0  0.25757  0.55265  0.8163699999999998  1.0000
  O   O35       1.0  0.05265  0.18363000000000002  0.24242999999999995  1.0000
  O   O36       1.0  0.7424300000000001  0.44735  0.18362999999999993  1.0000
  O   O37       1.0  0.44735  0.25757  0.8163699999999998  1.0000
  O   O38       1.0  0.55265  0.7424300000000003  0.18362999999999993  1.0000
  O   O39       1.0  0.7424300000000001  0.44735  0.8163699999999998  1.0000
  O   O40       1.0  0.25757  0.55265  0.18362999999999993  1.0000
  O   O41       1.0  0.55265  0.7424300000000003  0.8163699999999998  1.0000
  O   O42       1.0  0.44735  0.25757  0.18362999999999993  1.0000
  O   O43       1.0  0.7424300000000001  0.55265  0.18362999999999993  1.0000
  O   O44       1.0  0.25757  0.44735  0.8163699999999998  1.0000
  O   O45       1.0  0.55265  0.25757  0.18362999999999993  1.0000
  O   O46       1.0  0.94735  0.81637  0.7575699999999997  1.0000
  O   O47       1.0  0.44735  0.7424300000000003  0.8163699999999998  1.0000
  O   O48       1.0  0.25757  0.44735  0.18362999999999993  1.0000
  O   O49       1.0  0.7424300000000001  0.55265  0.8163699999999998  1.0000
  O   O50       1.0  0.44735  0.7424300000000003  0.18362999999999993  1.0000
  O   O51       1.0  0.55265  0.25757  0.8163699999999998  1.0000
  O   O52       1.0  0.94735  0.3163700000000001  0.7424299999999998  1.0000
  O   O53       1.0  0.05265  0.68363  0.25757  1.0000
  O   O54       1.0  0.7424300000000001  0.3163700000000001  0.05265  1.0000
  O   O55       1.0  0.25757  0.68363  0.94735  1.0000
  O   O56       1.0  0.05265  0.3163700000000001  0.25757  1.0000
  O   O57       1.0  0.75757  0.18363000000000002  0.05265  1.0000
  O   O58       1.0  0.94735  0.68363  0.7424299999999998  1.0000
  O   O59       1.0  0.25757  0.3163700000000001  0.94735  1.0000
  O   O60       1.0  0.7424300000000001  0.68363  0.05265  1.0000
  O   O61       1.0  0.94735  0.68363  0.25757  1.0000
  O   O62       1.0  0.05265  0.3163700000000001  0.7424299999999998  1.0000
  O   O63       1.0  0.7424300000000001  0.68363  0.94735  1.0000
  O   O64       1.0  0.25757  0.3163700000000001  0.05265  1.0000
  O   O65       1.0  0.05265  0.68363  0.7424299999999998  1.0000
  O   O66       1.0  0.94735  0.3163700000000001  0.25757  1.0000
  O   O67       1.0  0.25757  0.68363  0.05265  1.0000
  O   O68       1.0  0.24243  0.81637  0.94735  1.0000
  O   O69       1.0  0.7424300000000001  0.3163700000000001  0.94735  1.0000
  O   O70       1.0  0.6836300000000001  0.7424300000000003  0.05265  1.0000
  O   O71       1.0  0.31637  0.25757  0.94735  1.0000
  O   O72       1.0  0.6836300000000001  0.05265  0.25757  1.0000
  O   O73       1.0  0.31637  0.94735  0.7424299999999998  1.0000
  O   O74       1.0  0.6836300000000001  0.25757  0.94735  1.0000
  O   O75       1.0  0.31637  0.7424300000000003  0.05265  1.0000
  O   O76       1.0  0.6836300000000001  0.94735  0.7424299999999998  1.0000
  O   O77       1.0  0.31637  0.05265  0.25757  1.0000
  O   O78       1.0  0.31637  0.25757  0.05265  1.0000
  O   O79       1.0  0.18363  0.24243000000000006  0.05265  1.0000
  O   O80       1.0  0.6836300000000001  0.7424300000000003  0.94735  1.0000
  O   O81       1.0  0.31637  0.94735  0.25757  1.0000
  O   O82       1.0  0.6836300000000001  0.05265  0.7424299999999998  1.0000
  O   O83       1.0  0.31637  0.7424300000000003  0.94735  1.0000
  O   O84       1.0  0.6836300000000001  0.25757  0.05265  1.0000
  O   O85       1.0  0.31637  0.05265  0.7424299999999998  1.0000
  O   O86       1.0  0.6836300000000001  0.94735  0.25757  1.0000
  O   O87       1.0  0.25757  0.05265  0.31636999999999993  1.0000
  O   O88       1.0  0.7424300000000001  0.94735  0.6836299999999997  1.0000
  O   O89       1.0  0.94735  0.25757  0.31636999999999993  1.0000
  O   O90       1.0  0.81637  0.7575700000000001  0.94735  1.0000
  O   O91       1.0  0.05265  0.7424300000000003  0.6836299999999997  1.0000
  O   O92       1.0  0.7424300000000001  0.94735  0.31636999999999993  1.0000
  O   O93       1.0  0.25757  0.05265  0.6836299999999997  1.0000
  O   O94       1.0  0.05265  0.7424300000000003  0.31636999999999993  1.0000
  O   O95       1.0  0.94735  0.25757  0.6836299999999997  1.0000
  O   O96       1.0  0.7424300000000001  0.05265  0.6836299999999997  1.0000
  O   O97       1.0  0.25757  0.94735  0.31636999999999993  1.0000
  O   O98       1.0  0.05265  0.25757  0.6836299999999997  1.0000
  O   O99       1.0  0.94735  0.7424300000000003  0.31636999999999993  1.0000
  O   O100      1.0  0.25757  0.94735  0.6836299999999997  1.0000
  O   O101      1.0  0.18363  0.05265  0.7575699999999997  1.0000
  O   O102      1.0  0.7424300000000001  0.05265  0.31636999999999993  1.0000
  O   O103      1.0  0.94735  0.7424300000000003  0.6836299999999997  1.0000
  O   O104      1.0  0.05265  0.25757  0.31636999999999993  1.0000
  O   O105      1.0  0.76519  0.8920400000000003  0.10626999999999998  1.0000
  O   O106      1.0  0.24080000000000004  0.11378000000000002  0.88603  1.0000
  O   O107      1.0  0.10611  0.8929500000000002  0.23378999999999994  1.0000
  O   O108      1.0  0.88657  0.11340000000000003  0.75966  1.0000
  O   O109      1.0  0.23665  0.88967  0.8913599999999998  1.0000
  O   O110      1.0  0.7588500000000001  0.11363  0.11406  1.0000
  O   O111      1.0  0.89198  0.8905100000000002  0.7641099999999998  1.0000
  O   O112      1.0  0.05265  0.18363000000000002  0.7575699999999997  1.0000
  O   O113      1.0  0.81637  0.94735  0.24242999999999995  1.0000
  O   O114      1.0  0.11414  0.11407  0.24108  1.0000
  O   O115      1.0  0.76306  0.11047  0.89132  1.0000
  O   O116      1.0  0.24075  0.8866400000000002  0.11365  1.0000
  O   O117      1.0  0.1102  0.11004  0.7629099999999999  1.0000
  O   O118      1.0  0.88579  0.8860900000000003  0.24064999999999995  1.0000
  O   O119      1.0  0.24049000000000004  0.11284000000000002  0.11262999999999997  1.0000
  O   O120      1.0  0.7593500000000002  0.8869900000000001  0.8866999999999998  1.0000
  O   O121      1.0  0.8881100000000001  0.11221000000000002  0.23928999999999995  1.0000
  O   O122      1.0  0.11416  0.8859800000000002  0.75914  1.0000
  O   O123      1.0  0.10302  0.23022000000000006  0.8962099999999997  1.0000
  O   O124      1.0  0.18363  0.7575700000000001  0.94735  1.0000
  O   O125      1.0  0.88502  0.75782  0.11499999999999998  1.0000
  O   O126      1.0  0.10986  0.76366  0.10836  1.0000
  O   O127      1.0  0.8856000000000003  0.24181  0.8854599999999998  1.0000
  O   O128      1.0  0.89051  0.7640400000000002  0.8922799999999997  1.0000
  O   O129      1.0  0.11441  0.24157  0.11444  1.0000
  O   O130      1.0  0.89013  0.23623  0.10825  1.0000
  O   O131      1.0  0.1141  0.7585000000000002  0.8857  1.0000
  O   O132      1.0  0.25867  0.38547  0.11461999999999997  1.0000
  O   O133      1.0  0.74135  0.61394  0.8860499999999998  1.0000
  O   O134      1.0  0.11508  0.3850000000000001  0.74202  1.0000
  O   O135      1.0  0.81637  0.24243000000000006  0.05265  1.0000
  O   O136      1.0  0.8858900000000001  0.61415  0.25897  1.0000
  O   O137      1.0  0.74035  0.38714  0.88726  1.0000
  O   O138      1.0  0.25886  0.61441  0.11473999999999998  1.0000
  O   O139      1.0  0.8887400000000001  0.39027  0.26265  1.0000
  O   O140      1.0  0.11356  0.61359  0.74056  1.0000
  O   O141      1.0  0.26076  0.6117700000000001  0.8885299999999999  1.0000
  O   O142      1.0  0.74076  0.3864500000000001  0.11369  1.0000
  O   O143      1.0  0.11152000000000001  0.6098400000000002  0.26268  1.0000
  O   O144      1.0  0.88577  0.386  0.74095  1.0000
  O   O145      1.0  0.74046  0.61282  0.11261999999999998  1.0000
  O   O146      1.0  0.18363  0.94735  0.24242999999999995  1.0000
  O   O147      1.0  0.26452  0.39299  0.89203  1.0000
  O   O148      1.0  0.88775  0.6104500000000002  0.738  1.0000
  O   O149      1.0  0.11477000000000002  0.3852800000000001  0.2585  1.0000
  O   O150      1.0  0.60977  0.11141000000000002  0.7375  1.0000
  O   O151      1.0  0.38838  0.88803  0.26069  1.0000
  O   O152      1.0  0.61167  0.73924  0.8886499999999998  1.0000
  O   O153      1.0  0.38589  0.2586  0.11428  1.0000
  O   O154      1.0  0.6117  0.88711  0.26106  1.0000
  O   O155      1.0  0.3896500000000001  0.10901000000000001  0.73656  1.0000
  O   O156      1.0  0.61208  0.26035  0.11168  1.0000
  O   O157      1.0  0.81637  0.05265  0.7575699999999997  1.0000
  O   O158      1.0  0.38596  0.7415500000000002  0.88616  1.0000
  O   O159      1.0  0.39032  0.8888  0.7373  1.0000
  O   O160      1.0  0.61486  0.11461  0.25851  1.0000
  O   O161      1.0  0.38947  0.26334  0.89118  1.0000
  O   O162      1.0  0.61447  0.74162  0.11448999999999997  1.0000
  O   O163      1.0  0.38603  0.11398  0.25928  1.0000
  O   O164      1.0  0.61344  0.88657  0.7404399999999998  1.0000
  O   O165      1.0  0.38581  0.74111  0.11448999999999997  1.0000
  O   O166      1.0  0.61455  0.25833  0.88543  1.0000
  O   O167      1.0  0.8878000000000003  0.74015  0.3874199999999999  1.0000
  O   O168      1.0  0.81637  0.7575700000000001  0.05265  1.0000
  O   O169      1.0  0.11461  0.25819  0.61478  1.0000
  O   O170      1.0  0.26636  0.8939100000000001  0.39266999999999996  1.0000
  O   O171      1.0  0.74117  0.11405  0.6142199999999998  1.0000
  O   O172      1.0  0.11215  0.25985  0.38737  1.0000
  O   O173      1.0  0.8859  0.7411500000000002  0.6141999999999997  1.0000
  O   O174      1.0  0.7422100000000001  0.11514  0.38468999999999987  1.0000
  O   O175      1.0  0.2556  0.8819700000000003  0.61828  1.0000
  O   O176      1.0  0.11127  0.7394700000000002  0.6119499999999998  1.0000
  O   O177      1.0  0.88684  0.25916  0.38647  1.0000
  O   O178      1.0  0.73769  0.8889  0.60992  1.0000
  O   O179      1.0  0.18363  0.24243000000000006  0.94735  1.0000
  O   O180      1.0  0.25875  0.1136  0.3861  1.0000
  O   O181      1.0  0.8887  0.26078000000000007  0.61172  1.0000
  O   O182      1.0  0.10674  0.73334  0.39379999999999993  1.0000
  O   O183      1.0  0.24598  0.13557  0.63477  1.0000
  O   O184      1.0  0.7399900000000001  0.88701  0.38691  1.0000
  O   O185      1.0  0.76028  0.3875900000000001  0.61216  1.0000
  O   O186      1.0  0.23868  0.61059  0.38897  1.0000
  O   O187      1.0  0.6081400000000001  0.3902100000000001  0.23614999999999997  1.0000
  O   O188      1.0  0.38998  0.6114700000000002  0.7623999999999997  1.0000
  O   O189      1.0  0.24076  0.38631  0.38612999999999986  1.0000
  O   O190      1.0  0.81637  0.94735  0.7575699999999997  1.0000
  O   O191      1.0  0.75876  0.61384  0.6137799999999999  1.0000
  O   O192      1.0  0.38649  0.3866500000000001  0.75966  1.0000
  O   O193      1.0  0.61407  0.6140200000000002  0.24102  1.0000
  O   O194      1.0  0.7585900000000001  0.61424  0.38574  1.0000
  O   O195      1.0  0.24184000000000005  0.38523000000000013  0.61479  1.0000
  O   O196      1.0  0.61177  0.61014  0.76236  1.0000
  O   O197      1.0  0.38884  0.3907200000000001  0.23732999999999999  1.0000
  O   O198      1.0  0.23661  0.61032  0.60856  1.0000
  O   O199      1.0  0.76197  0.38864  0.3901599999999999  1.0000
  O   O200      1.0  0.38865000000000005  0.61098  0.23855999999999994  1.0000
  O   O201      1.0  0.18363  0.05265  0.24242999999999995  1.0000
  O   O202      1.0  0.6146300000000001  0.38559  0.7586299999999998  1.0000
  O   O203      1.0  0.61451  0.2418  0.38531999999999994  1.0000
  O   O204      1.0  0.38563  0.75812  0.6142199999999998  1.0000
  O   O205      1.0  0.60915  0.7639300000000001  0.6077099999999998  1.0000
  O   O206      1.0  0.38943  0.23708  0.39112999999999987  1.0000
  O   O207      1.0  0.38655  0.75919  0.38633  1.0000
  O   O208      1.0  0.61372  0.24122000000000005  0.61356  1.0000
  O   O209      1.0  0.39304  0.23576  0.6083399999999999  1.0000
  O   O210      1.0  0.6111  0.7606300000000003  0.38858  1.0000
  O   O211      1.0  0.81637  0.24243000000000006  0.94735  1.0000
  O   O212      1.0  0.24243  0.81637  0.05265  1.0000
  O   O213      1.0  0.18363  0.7575700000000001  0.05265  1.0000
  O   O214      1.0  0.81637  0.05265  0.24242999999999995  1.0000
  O   O215      1.0  0.18363  0.94735  0.7575699999999997  1.0000
  O   O216      1.0  0.75757  0.05265  0.8163699999999998  1.0000
  O   O217      1.0  0.24243  0.94735  0.18362999999999993  1.0000
  O   O218      1.0  0.94735  0.7575700000000001  0.8163699999999998  1.0000
  O   O219      1.0  0.05265  0.24243000000000006  0.18362999999999993  1.0000
  O   O220      1.0  0.24243  0.94735  0.8163699999999998  1.0000
  O   O221      1.0  0.75757  0.05265  0.18362999999999993  1.0000
  O   O222      1.0  0.05265  0.24243000000000006  0.8163699999999998  1.0000
  O   O223      1.0  0.75757  0.18363000000000002  0.94735  1.0000
  O   O224      1.0  0.94735  0.7575700000000001  0.18362999999999993  1.0000
  O   O225      1.0  0.24243  0.05265  0.18362999999999993  1.0000
  O   O226      1.0  0.75757  0.94735  0.8163699999999998  1.0000
  O   O227      1.0  0.05265  0.7575700000000001  0.18362999999999993  1.0000
  O   O228      1.0  0.94735  0.24243000000000006  0.8163699999999998  1.0000
  O   O229      1.0  0.75757  0.94735  0.18362999999999993  1.0000
  O   O230      1.0  0.24243  0.05265  0.8163699999999998  1.0000
  O   O231      1.0  0.94735  0.24243000000000006  0.18362999999999993  1.0000
  O   O232      1.0  0.05265  0.7575700000000001  0.8163699999999998  1.0000
  O   O233      1.0  0.44735  0.3163700000000001  0.24242999999999995  1.0000
  O   O234      1.0  0.05265  0.81637  0.7575699999999997  1.0000
  O   O235      1.0  0.55265  0.68363  0.7575699999999997  1.0000
  O   O236      1.0  0.24243  0.3163700000000001  0.55265  1.0000
  O   O237      1.0  0.75757  0.68363  0.4473499999999999  1.0000
  O   O238      1.0  0.55265  0.3163700000000001  0.7575699999999997  1.0000
  O   O239      1.0  0.44735  0.68363  0.24242999999999995  1.0000
  O   O240      1.0  0.75757  0.3163700000000001  0.4473499999999999  1.0000
  O   O241      1.0  0.24243  0.68363  0.55265  1.0000
  O   O242      1.0  0.44735  0.68363  0.7575699999999997  1.0000
  O   O243      1.0  0.55265  0.3163700000000001  0.24242999999999995  1.0000
  O   O244      1.0  0.24243  0.68363  0.4473499999999999  1.0000
  O   O245      1.0  0.94735  0.18363000000000002  0.24242999999999995  1.0000
  O   O246      1.0  0.75757  0.3163700000000001  0.55265  1.0000
  O   O247      1.0  0.55265  0.68363  0.24242999999999995  1.0000
  O   O248      1.0  0.44735  0.3163700000000001  0.7575699999999997  1.0000
  O   O249      1.0  0.75757  0.68363  0.55265  1.0000
  O   O250      1.0  0.24243  0.3163700000000001  0.4473499999999999  1.0000
  O   O251      1.0  0.6836300000000001  0.24243000000000006  0.55265  1.0000
  O   O252      1.0  0.31637  0.7575700000000001  0.4473499999999999  1.0000
  O   O253      1.0  0.6836300000000001  0.55265  0.7575699999999997  1.0000
  O   O254      1.0  0.31637  0.44735  0.24242999999999995  1.0000
  O   O255      1.0  0.6836300000000001  0.7575700000000001  0.4473499999999999  1.0000
  O   O256      1.0  0.75757  0.81637  0.94735  1.0000
  O   O257      1.0  0.31637  0.24243000000000006  0.55265  1.0000
  O   O258      1.0  0.6836300000000001  0.44735  0.24242999999999995  1.0000
  O   O259      1.0  0.31637  0.55265  0.7575699999999997  1.0000
  O   O260      1.0  0.31637  0.7575700000000001  0.55265  1.0000
  O   O261      1.0  0.6836300000000001  0.24243000000000006  0.4473499999999999  1.0000
  O   O262      1.0  0.31637  0.44735  0.7575699999999997  1.0000
  O   O263      1.0  0.6836300000000001  0.55265  0.24242999999999995  1.0000
  O   O264      1.0  0.31637  0.24243000000000006  0.4473499999999999  1.0000
  O   O265      1.0  0.6836300000000001  0.7575700000000001  0.55265  1.0000
  O   O266      1.0  0.31637  0.55265  0.24242999999999995  1.0000
  O   O267      1.0  0.24243  0.18363000000000002  0.05265  1.0000
  O   O268      1.0  0.6836300000000001  0.44735  0.7575699999999997  1.0000
  O   O269      1.0  0.75757  0.55265  0.31636999999999993  1.0000
  O   O270      1.0  0.24243  0.44735  0.6836299999999997  1.0000
  O   O271      1.0  0.44735  0.7575700000000001  0.31636999999999993  1.0000
  O   O272      1.0  0.55265  0.24243000000000006  0.6836299999999997  1.0000
  O   O273      1.0  0.24243  0.44735  0.31636999999999993  1.0000
  O   O274      1.0  0.75757  0.55265  0.6836299999999997  1.0000
  O   O275      1.0  0.55265  0.24243000000000006  0.31636999999999993  1.0000
  O   O276      1.0  0.44735  0.7575700000000001  0.6836299999999997  1.0000
  O   O277      1.0  0.24243  0.55265  0.6836299999999997  1.0000
  O   O278      1.0  0.94735  0.18363000000000002  0.7575699999999997  1.0000
  O   O279      1.0  0.75757  0.44735  0.31636999999999993  1.0000
  O   O280      1.0  0.55265  0.7575700000000001  0.6836299999999997  1.0000
  O   O281      1.0  0.44735  0.24243000000000006  0.31636999999999993  1.0000
  O   O282      1.0  0.75757  0.44735  0.6836299999999997  1.0000
  O   O283      1.0  0.24243  0.55265  0.31636999999999993  1.0000
  O   O284      1.0  0.44735  0.24243000000000006  0.6836299999999997  1.0000
  O   O285      1.0  0.55265  0.7575700000000001  0.31636999999999993  1.0000
  O   O286      1.0  0.44735  0.81637  0.7424299999999998  1.0000
  O   O287      1.0  0.55265  0.18363000000000002  0.25757  1.0000
  O   O288      1.0  0.7424300000000001  0.81637  0.55265  1.0000
