data_image0
_chemical_formula_structural       Zn16O52C44H4C12H4C64H4C16NO2NO2NO2NO2Cl8NO2NO2NO2NO2NO2NO2NO2NO2Cl4NO2NO2NO2NO2NO2NO2NO2NO2NO2NO2NO2NO2NO2NO2NO2NO2Cl12NO2NO2NO2NO2Cl4NO2NO2NO2NO2Cl4NO2NO2NO2NO2NO2NO2NO2NO2NO2NO2NO2NO2Cl16NO2NO2NO2NO2NO2NO2NO2NO2Cl4NO2NO2NO2NO2Cl8NO2NO2NO2NO2NO2NO2NO2NO2Cl4
_chemical_formula_sum              "Zn16 O188 C136 H12 N68 Cl64"
_cell_length_a       26.01382
_cell_length_b       26.10249
_cell_length_c       22.19032
_cell_angle_alpha    89.96057999999998
_cell_angle_beta     54.133590000000005
_cell_angle_gamma    89.8792

_space_group_name_H-M_alt    "P 1"
_space_group_IT_number       1

loop_
  _space_group_symop_operation_xyz
  'x, y, z'

loop_
  _atom_site_type_symbol
  _atom_site_label
  _atom_site_symmetry_multiplicity
  _atom_site_fract_x
  _atom_site_fract_y
  _atom_site_fract_z
  _atom_site_occupancy
  Zn  Zn1       1.0  0.6755300000000004  0.70624  0.56143  1.0000
  Zn  Zn2       1.0  0.6755300000000004  0.29376  0.56143  1.0000
  Zn  Zn3       1.0  0.17553000000000002  0.20624000000000003  0.56143  1.0000
  Zn  Zn4       1.0  0.17553000000000005  0.7937600000000001  0.56143  1.0000
  Zn  Zn5       1.0  0.8244899999999998  0.70625  0.43857  1.0000
  Zn  Zn6       1.0  0.8244899999999998  0.29375  0.43857  1.0000
  Zn  Zn7       1.0  0.3244900000000001  0.20625000000000002  0.43857  1.0000
  Zn  Zn8       1.0  0.3244900000000001  0.79375  0.43857  1.0000
  Zn  Zn9       1.0  0.7630900000000002  0.79377  0.56141  1.0000
  Zn  Zn10      1.0  0.7630900000000002  0.20623000000000002  0.56141  1.0000
  Zn  Zn11      1.0  0.26309  0.29377  0.56141  1.0000
  Zn  Zn12      1.0  0.26309  0.7062300000000001  0.56141  1.0000
  Zn  Zn13      1.0  0.73694  0.79379  0.43859  1.0000
  Zn  Zn14      1.0  0.73694  0.20621000000000003  0.43859  1.0000
  Zn  Zn15      1.0  0.23694000000000007  0.29379  0.43859  1.0000
  Zn  Zn16      1.0  0.2369400000000001  0.70621  0.43859  1.0000
  O   O1        1.0  0.75001  0.7500100000000001  0.5  1.0000
  O   O2        1.0  0.75001  0.24999  0.5  1.0000
  O   O3        1.0  0.25001000000000007  0.25001  0.5  1.0000
  O   O4        1.0  0.2500100000000001  0.74999  0.5  1.0000
  O   O5        1.0  0.8013399999999999  0.78067  0.33604  1.0000
  O   O6        1.0  0.8013399999999999  0.21933  0.33604  1.0000
  O   O7        1.0  0.30134  0.28067  0.33604  1.0000
  O   O8        1.0  0.30134  0.7193300000000001  0.33604  1.0000
  O   O9        1.0  0.63741  0.71936  0.66397  1.0000
  O   O10       1.0  0.63741  0.28064  0.66397  1.0000
  O   O11       1.0  0.13741000000000003  0.21936  0.66397  1.0000
  O   O12       1.0  0.13741000000000003  0.78064  0.66397  1.0000
  O   O13       1.0  0.8021300000000001  0.63317  0.45701  1.0000
  O   O14       1.0  0.80213  0.36683  0.45701  1.0000
  O   O15       1.0  0.3021300000000001  0.13317  0.45701  1.0000
  O   O16       1.0  0.30213  0.8668300000000001  0.45701  1.0000
  O   O17       1.0  0.75917  0.86686  0.54298  1.0000
  O   O18       1.0  0.75917  0.13314  0.54298  1.0000
  O   O19       1.0  0.25917  0.3668600000000001  0.54298  1.0000
  O   O20       1.0  0.2591700000000001  0.63314  0.54298  1.0000
  O   O21       1.0  0.88836  0.7193800000000002  0.45699  1.0000
  O   O22       1.0  0.88836  0.28062  0.45699  1.0000
  O   O23       1.0  0.38836000000000004  0.21938  0.45699  1.0000
  O   O24       1.0  0.38836000000000004  0.7806200000000002  0.45699  1.0000
  O   O25       1.0  0.65464  0.7806600000000001  0.45703  1.0000
  O   O26       1.0  0.65464  0.21934  0.45703  1.0000
  O   O27       1.0  0.15464  0.28066  0.45703  1.0000
  O   O28       1.0  0.15464  0.71934  0.45703  1.0000
  O   O29       1.0  0.8453900000000002  0.78064  0.54297  1.0000
  O   O30       1.0  0.8453900000000002  0.21936  0.54297  1.0000
  O   O31       1.0  0.34539  0.28064  0.54297  1.0000
  O   O32       1.0  0.34539000000000003  0.71936  0.54297  1.0000
  O   O33       1.0  0.61166  0.7193800000000002  0.54301  1.0000
  O   O34       1.0  0.61166  0.28062  0.54301  1.0000
  O   O35       1.0  0.11166000000000002  0.21938  0.54301  1.0000
  O   O36       1.0  0.11166  0.7806200000000002  0.54301  1.0000
  O   O37       1.0  0.69788  0.6331600000000002  0.54299  1.0000
  O   O38       1.0  0.69788  0.3668400000000001  0.54299  1.0000
  O   O39       1.0  0.19788  0.13316  0.54299  1.0000
  O   O40       1.0  0.19788000000000003  0.8668400000000003  0.54299  1.0000
  O   O41       1.0  0.74087  0.8668700000000001  0.45702  1.0000
  O   O42       1.0  0.74087  0.13313  0.45702  1.0000
  O   O43       1.0  0.24087  0.36687  0.45702  1.0000
  O   O44       1.0  0.24086999999999997  0.63313  0.45702  1.0000
  O   O45       1.0  0.86262  0.7194  0.33603  1.0000
  O   O46       1.0  0.86262  0.2806  0.33603  1.0000
  O   O47       1.0  0.36261999999999994  0.2194  0.33603  1.0000
  O   O48       1.0  0.36262  0.7806  0.33603  1.0000
  O   O49       1.0  0.6986900000000004  0.78063  0.66396  1.0000
  O   O50       1.0  0.6986900000000004  0.21937  0.66396  1.0000
  O   O51       1.0  0.19869000000000003  0.28063  0.66396  1.0000
  O   O52       1.0  0.19869000000000006  0.7193700000000001  0.66396  1.0000
  C   C1        1.0  0.8491900000000002  0.75  0.30154  1.0000
  C   C2        1.0  0.8491900000000002  0.24995  0.30158  1.0000
  C   C3        1.0  0.3492000000000001  0.25001  0.30154  1.0000
  C   C4        1.0  0.34917  0.74997  0.30158  1.0000
  C   C5        1.0  0.65086  0.75  0.69845  1.0000
  C   C6        1.0  0.65082  0.25001  0.69849  1.0000
  C   C7        1.0  0.15083  0.25003  0.69846  1.0000
  C   C8        1.0  0.1508  0.74999  0.6985  1.0000
  C   C9        1.0  0.7503  0.60885  0.499  1.0000
  C   C10       1.0  0.74975  0.39114  0.4978600000000001  1.0000
  C   C11       1.0  0.25029  0.10885  0.4989  1.0000
  C   C12       1.0  0.24976999999999996  0.89114  0.49774000000000007  1.0000
  C   C13       1.0  0.7503099999999999  0.89123  0.49939000000000006  1.0000
  C   C14       1.0  0.7540100000000002  0.10892  0.49633  1.0000
  C   C15       1.0  0.25082  0.39126  0.49894  1.0000
  C   C16       1.0  0.2545300000000001  0.60898  0.49590000000000006  1.0000
  C   C17       1.0  0.8910800000000003  0.74928  0.50038  1.0000
  C   C18       1.0  0.8910700000000001  0.25062  0.50043  1.0000
  C   C19       1.0  0.3910699999999999  0.24928  0.5004  1.0000
  C   C20       1.0  0.39112  0.75039  0.50024  1.0000
  C   C21       1.0  0.6098500000000001  0.74931  0.49796999999999997  1.0000
  C   C22       1.0  0.6091300000000001  0.25015  0.4994199999999999  1.0000
  C   C23       1.0  0.10912999999999999  0.24996  0.49948999999999993  1.0000
  C   C24       1.0  0.10911999999999998  0.7501400000000003  0.49944000000000005  1.0000
  C   C25       1.0  0.53126  0.8085900000000003  0.49890999999999996  1.0000
  C   C26       1.0  0.55852  0.20451  0.44392  1.0000
  C   C27       1.0  0.05553000000000005  0.29824  0.44955999999999996  1.0000
  C   C28       1.0  0.05888999999999999  0.70484  0.44323  1.0000
  C   C29       1.0  0.4647500000000001  0.80662  0.51028  1.0000
  C   C30       1.0  0.49808  0.20476  0.44227  1.0000
  C   C31       1.0  0.9952600000000001  0.2979  0.44766  1.0000
  C   C32       1.0  0.9984300000000002  0.7051  0.44158  1.0000
  C   C33       1.0  0.56892  0.71936  0.42159  1.0000
  C   C34       1.0  0.5463700000000002  0.30667000000000005  0.46907000000000004  1.0000
  C   C35       1.0  0.04968000000000001  0.19492  0.46332  1.0000
  C   C36       1.0  0.04589000000000001  0.8068300000000002  0.46993  1.0000
  C   C37       1.0  0.49759000000000003  0.72  0.5647  1.0000
  C   C38       1.0  0.4910100000000001  0.24396  0.57759  1.0000
  C   C39       1.0  0.9907400000000002  0.252  0.57829  1.0000
  C   C40       1.0  0.9910600000000005  0.74333  0.57748  1.0000
  C   C41       1.0  0.55412  0.7502500000000001  0.49415  1.0000
  C   C42       1.0  0.55345  0.2512  0.49559000000000003  1.0000
  C   C43       1.0  0.053500000000000006  0.24901000000000006  0.49569  1.0000
  C   C44       1.0  0.053430000000000005  0.75118  0.49561  1.0000
  H   H1        1.0  0.51374  0.6810200000000001  0.56601  1.0000
  H   H2        1.0  0.48000000000000004  0.27866  0.61142  1.0000
  H   H3        1.0  0.98194  0.21568000000000004  0.60818  1.0000
  H   H4        1.0  0.9798199999999999  0.77773  0.6119  1.0000
  C   C45       1.0  0.4509099999999999  0.74931  0.49599  1.0000
  C   C46       1.0  0.4506899999999999  0.24965  0.49653  1.0000
  C   C47       1.0  0.9506300000000002  0.25032  0.49678000000000005  1.0000
  C   C48       1.0  0.9507200000000002  0.74965  0.49645  1.0000
  C   C49       1.0  0.50948  0.72694  0.41681  1.0000
  C   C50       1.0  0.48564000000000007  0.30494  0.46586999999999995  1.0000
  C   C51       1.0  0.9889400000000003  0.19685  0.46008000000000004  1.0000
  C   C52       1.0  0.9853  0.8051100000000002  0.46652000000000005  1.0000
  C   C53       1.0  0.4405000000000001  0.71524  0.5612  1.0000
  C   C54       1.0  0.43413999999999997  0.23431  0.57539  1.0000
  C   C55       1.0  0.9332500000000002  0.26154  0.57722  1.0000
  C   C56       1.0  0.9342400000000002  0.7338000000000002  0.57511  1.0000
  H   H5        1.0  0.39718999999999993  0.72849  0.61472  1.0000
  H   H6        1.0  0.42501000000000005  0.19269  0.58357  1.0000
  H   H7        1.0  0.9214200000000002  0.30258  0.59012  1.0000
  H   H8        1.0  0.9252800000000001  0.69214  0.58276  1.0000
  C   C57       1.0  0.46464000000000005  0.7485800000000001  0.9530499999999998  1.0000
  C   C58       1.0  0.46481000000000006  0.25594  0.9530999999999998  1.0000
  C   C59       1.0  0.9677200000000001  0.23345  0.95414  1.0000
  C   C60       1.0  0.96448  0.7537700000000002  0.9531100000000001  1.0000
  C   C61       1.0  0.54411  0.80904  0.9552899999999999  1.0000
  C   C62       1.0  0.5395200000000001  0.18919  0.9551  1.0000
  C   C63       1.0  0.027330000000000017  0.31483  0.95558  1.0000
  C   C64       1.0  0.041569999999999996  0.6898100000000001  0.9551300000000001  1.0000
  C   C65       1.0  0.50523  0.8051900000000002  0.04608  1.0000
  C   C66       1.0  0.5009400000000002  0.19247  0.04589  1.0000
  C   C67       1.0  0.9893600000000002  0.31152  0.04695  1.0000
  C   C68       1.0  0.0028499999999999992  0.69334  0.04592  1.0000
  C   C69       1.0  0.3874600000000001  0.75108  0.22272000000000003  1.0000
  C   C70       1.0  0.38742999999999994  0.24884000000000006  0.22268000000000002  1.0000
  C   C71       1.0  0.8877600000000001  0.25073  0.22269000000000003  1.0000
  C   C72       1.0  0.88738  0.7487800000000002  0.22269000000000003  1.0000
  C   C73       1.0  0.53668  0.75436  0.92602  1.0000
  C   C74       1.0  0.5362499999999999  0.24549  0.9260000000000002  1.0000
  C   C75       1.0  0.03594000000000005  0.25592  0.9259899999999999  1.0000
  C   C76       1.0  0.036259999999999966  0.7454300000000003  0.92602  1.0000
  C   C77       1.0  0.41571  0.75495  0.04311  1.0000
  C   C78       1.0  0.41545  0.24988  0.04315  1.0000
  C   C79       1.0  0.91871  0.23757  0.04358  1.0000
  C   C80       1.0  0.91534  0.74756  0.04317  1.0000
  C   C81       1.0  0.45941000000000015  0.75442  0.0742  1.0000
  C   C82       1.0  0.45906000000000013  0.24563000000000001  0.07417  1.0000
  C   C83       1.0  0.9600500000000001  0.25355  0.07419  1.0000
  C   C84       1.0  0.95906  0.74547  0.07419  1.0000
  C   C85       1.0  0.5024  0.70298  0.04573  1.0000
  C   C86       1.0  0.50585  0.2946  0.0458  1.0000
  C   C87       1.0  0.017  0.2127  0.04459  1.0000
  C   C88       1.0  0.00402  0.7956000000000002  0.04582  1.0000
  C   C89       1.0  0.55439  0.70738  0.95739  1.0000
  C   C90       1.0  0.55745  0.28962  0.9574499999999999  1.0000
  C   C91       1.0  0.06662999999999998  0.22007  0.95625  1.0000
  C   C92       1.0  0.05580000000000006  0.7908900000000002  0.9574699999999999  1.0000
  C   C93       1.0  0.41952000000000006  0.7526  0.1561  1.0000
  C   C94       1.0  0.41936  0.24736000000000005  0.15606  1.0000
  C   C95       1.0  0.92006  0.25182  0.15606  1.0000
  C   C96       1.0  0.9193100000000002  0.74725  0.15608  1.0000
  C   C97       1.0  0.57788  0.75221  0.84405  1.0000
  C   C98       1.0  0.5775900000000003  0.24765000000000004  0.84405  1.0000
  C   C99       1.0  0.07717  0.2533  0.84403  1.0000
  C   C100      1.0  0.07754000000000001  0.74761  0.84407  1.0000
  C   C101      1.0  0.6111100000000003  0.7507300000000001  0.77741  1.0000
  C   C102      1.0  0.6109400000000001  0.24921  0.77744  1.0000
  C   C103      1.0  0.11071000000000006  0.25123  0.77742  1.0000
  C   C104      1.0  0.11088999999999999  0.74917  0.77745  1.0000
  C   C105      1.0  0.7536600000000002  0.9692700000000002  0.42563  1.0000
  C   C106      1.0  0.74826  0.030880000000000005  0.42914  1.0000
  C   C107      1.0  0.25568  0.46945000000000003  0.42405  1.0000
  C   C108      1.0  0.24993000000000004  0.53105  0.4278  1.0000
  C   C109      1.0  0.69247  0.97101  0.57362  1.0000
  C   C110      1.0  0.69823  0.030940000000000006  0.57374  1.0000
  C   C111      1.0  0.19308000000000006  0.4711100000000001  0.57249  1.0000
  C   C112      1.0  0.19914  0.53095  0.57275  1.0000
  C   C113      1.0  0.8132200000000003  0.9681500000000002  0.49056  1.0000
  C   C114      1.0  0.81861  0.029020000000000008  0.48135999999999995  1.0000
  C   C115      1.0  0.31389000000000006  0.46823000000000004  0.4903  1.0000
  C   C116      1.0  0.3196000000000001  0.52912  0.48066  1.0000
  C   C117      1.0  0.7515400000000002  0.9488500000000002  0.49676999999999993  1.0000
  C   C118      1.0  0.75519  0.0513  0.49355  1.0000
  C   C119      1.0  0.25246  0.44893  0.4959100000000001  1.0000
  C   C120      1.0  0.2562100000000001  0.5514  0.49271  1.0000
  H   H9        1.0  0.6972000000000002  0.95793  0.61771  1.0000
  H   H10       1.0  0.71428  0.03792  0.60965  1.0000
  H   H11       1.0  0.19721  0.45779  0.61695  1.0000
  H   H12       1.0  0.21535000000000012  0.53766  0.60859  1.0000
  C   C121      1.0  0.81599  0.53075  0.41959  1.0000
  C   C122      1.0  0.8192600000000001  0.4695  0.4244  1.0000
  C   C123      1.0  0.31711  0.03079  0.42058  1.0000
  C   C124      1.0  0.3201200000000001  0.96957  0.42568  1.0000
  C   C125      1.0  0.75046  0.53098  0.56587  1.0000
  C   C126      1.0  0.7383900000000002  0.46992  0.57299  1.0000
  C   C127      1.0  0.24819  0.030970000000000004  0.56718  1.0000
  C   C128      1.0  0.2362000000000001  0.96993  0.57392  1.0000
  C   C129      1.0  0.68978  0.53082  0.50106  1.0000
  C   C130      1.0  0.6950000000000001  0.46936  0.48878  1.0000
  C   C131      1.0  0.1912700000000001  0.030830000000000003  0.49781  1.0000
  C   C132      1.0  0.19665000000000005  0.9693  0.48583999999999994  1.0000
  C   C133      1.0  0.7514299999999999  0.55124  0.49627  1.0000
  C   C134      1.0  0.75051  0.4487600000000001  0.49588999999999994  1.0000
  C   C135      1.0  0.25150000000000006  0.051250000000000004  0.49602000000000007  1.0000
  C   C136      1.0  0.2506  0.94876  0.49566000000000004  1.0000
  N   N1        1.0  0.57722  0.84192  0.43448  1.0000
  O   O53       1.0  0.5679900000000001  0.89133  0.44028  1.0000
  O   O54       1.0  0.63162  0.82599  0.37716  1.0000
  N   N2        1.0  0.61874  0.20538  0.36719  1.0000
  O   O55       1.0  0.6581099999999999  0.16689000000000004  0.34224  1.0000
  O   O56       1.0  0.6317399999999999  0.24161  0.3202  1.0000
  N   N3        1.0  0.11575000000000003  0.30178  0.37309  1.0000
  O   O57       1.0  0.15187000000000003  0.34208  0.35258  1.0000
  O   O58       1.0  0.13207  0.26749  0.32252  1.0000
  N   N4        1.0  0.11911000000000002  0.70628  0.36653  1.0000
  O   O59       1.0  0.15884000000000004  0.66802  0.34107  1.0000
  O   O60       1.0  0.13179000000000002  0.7428  0.32006  1.0000
  Cl  Cl1       1.0  0.42273  0.64868  0.5609  1.0000
  Cl  Cl2       1.0  0.36117000000000016  0.25629  0.65888  1.0000
  Cl  Cl3       1.0  0.8620700000000002  0.235  0.65822  1.0000
  Cl  Cl4       1.0  0.8611600000000003  0.75538  0.65882  1.0000
  Cl  Cl5       1.0  0.5794800000000002  0.65199  0.43363  1.0000
  Cl  Cl6       1.0  0.5346300000000002  0.35508  0.53564  1.0000
  Cl  Cl7       1.0  0.04114000000000001  0.14337  0.52462  1.0000
  Cl  Cl8       1.0  0.03351999999999998  0.85474  0.53738  1.0000
  N   N5        1.0  0.4950600000000001  0.6767100000000001  0.39759  1.0000
  O   O61       1.0  0.54037  0.6532200000000002  0.33759  1.0000
  O   O62       1.0  0.4374900000000002  0.6638500000000003  0.42263  1.0000
  N   N6        1.0  0.44311  0.34843  0.51036  1.0000
  O   O63       1.0  0.4568700000000001  0.39363  0.47981  1.0000
  O   O64       1.0  0.4033300000000001  0.34645  0.58221  1.0000
  N   N7        1.0  0.94905  0.15122  0.49939000000000006  1.0000
  O   O65       1.0  0.9644  0.10808  0.46314999999999995  1.0000
  O   O66       1.0  0.9099400000000002  0.14911  0.57132  1.0000
  N   N8        1.0  0.9424100000000002  0.8483400000000002  0.51145  1.0000
  O   O67       1.0  0.9556200000000001  0.89365  0.48130000000000006  1.0000
  O   O68       1.0  0.90273  0.84603  0.5833  1.0000
  N   N9        1.0  0.3766900000000001  0.80252  0.06759  1.0000
  O   O69       1.0  0.34324  0.81405  0.13789  1.0000
  O   O70       1.0  0.35134000000000004  0.8169800000000003  0.03434  1.0000
  N   N10       1.0  0.37291  0.20461  0.06755  1.0000
  O   O71       1.0  0.33856  0.19303  0.13785  1.0000
  O   O72       1.0  0.34662000000000004  0.19352  0.03426  1.0000
  N   N11       1.0  0.8668500000000001  0.27553  0.06993  1.0000
  O   O73       1.0  0.8133600000000002  0.2694  0.13524  1.0000
  O   O74       1.0  0.87155  0.31525  0.03182  1.0000
  N   N12       1.0  0.8744800000000003  0.70122  0.0676  1.0000
  O   O75       1.0  0.84049  0.68972  0.13791  1.0000
  O   O76       1.0  0.84867  0.68852  0.03426  1.0000
  Cl  Cl9       1.0  0.44872  0.7886000000000001  0.89886  1.0000
  Cl  Cl10      1.0  0.44597  0.21952  0.89884  1.0000
  Cl  Cl11      1.0  0.9362800000000003  0.2592  0.9062400000000002  1.0000
  Cl  Cl12      1.0  0.9470200000000001  0.71569  0.8988500000000001  1.0000
  N   N13       1.0  0.6110299999999999  0.8246500000000002  0.9204000000000001  1.0000
  O   O77       1.0  0.62091  0.86756  0.94203  1.0000
  O   O78       1.0  0.6574300000000002  0.80805  0.85511  1.0000
  N   N14       1.0  0.60511  0.16966  0.92012  1.0000
  O   O79       1.0  0.61171  0.12521  0.94163  1.0000
  O   O80       1.0  0.6527000000000002  0.1851  0.85485  1.0000
  N   N15       1.0  0.08784999999999998  0.34329  0.92075  1.0000
  O   O81       1.0  0.08492000000000001  0.38989000000000007  0.9436  1.0000
  O   O82       1.0  0.13716  0.33229  0.85403  1.0000
  N   N16       1.0  0.10783999999999992  0.67205  0.9201800000000001  1.0000
  O   O83       1.0  0.11604000000000003  0.62826  0.94171  1.0000
  O   O84       1.0  0.15485  0.68802  0.85491  1.0000
  N   N17       1.0  0.51995  0.84979  0.93055  1.0000
  O   O85       1.0  0.4642299999999999  0.8709  0.9733800000000001  1.0000
  O   O86       1.0  0.5558099999999999  0.8648700000000001  0.86149  1.0000
  N   N18       1.0  0.5123800000000001  0.15151  0.9302699999999999  1.0000
  O   O87       1.0  0.45518000000000014  0.1332  0.9730700000000001  1.0000
  O   O88       1.0  0.5470800000000002  0.1364  0.86117  1.0000
  N   N19       1.0  0.9938999999999999  0.34459  0.93042  1.0000
  O   O89       1.0  0.9602300000000004  0.38499  0.9658099999999998  1.0000
  O   O90       1.0  0.018919999999999975  0.34457  0.85955  1.0000
  N   N20       1.0  0.01584999999999999  0.65071  0.93029  1.0000
  O   O91       1.0  0.95935  0.63111  0.9731000000000001  1.0000
  O   O92       1.0  0.05109999999999995  0.63562  0.8612  1.0000
  N   N21       1.0  0.47026999999999997  0.85396  0.08123  1.0000
  O   O93       1.0  0.42366  0.85542  0.15161  1.0000
  O   O94       1.0  0.50164  0.8966400000000002  0.05396  1.0000
  N   N22       1.0  0.46234  0.14525  0.08092  1.0000
  O   O95       1.0  0.49044  0.10127  0.05355  1.0000
  O   O96       1.0  0.4156500000000001  0.14471  0.15129  1.0000
  N   N23       1.0  0.94083  0.35297  0.08479  1.0000
  O   O97       1.0  0.8833300000000002  0.34437  0.14282  1.0000
  O   O98       1.0  0.9611300000000003  0.39984  0.077  1.0000
  N   N24       1.0  0.966  0.6453900000000002  0.08095  1.0000
  O   O99       1.0  0.9957000000000003  0.60196  0.05362  1.0000
  O   O100      1.0  0.9193000000000001  0.64444  0.15131  1.0000
  N   N25       1.0  0.54643  0.80033  0.07246  1.0000
  O   O101      1.0  0.6075200000000001  0.79379  0.02924  1.0000
  O   O102      1.0  0.52088  0.80616  0.14305  1.0000
  N   N26       1.0  0.5423700000000001  0.19292  0.07224  1.0000
  O   O103      1.0  0.60383  0.1963  0.029009999999999998  1.0000
  O   O104      1.0  0.5163800000000001  0.18627  0.1428  1.0000
  N   N27       1.0  0.030110000000000005  0.3213  0.07299  1.0000
  O   O105      1.0  0.09123  0.32734  0.02953  1.0000
  O   O106      1.0  0.002590000000000004  0.32874  0.14378  1.0000
  N   N28       1.0  0.04422  0.69578  0.07228  1.0000
  O   O107      1.0  0.10553  0.7006300000000001  0.02906  1.0000
  O   O108      1.0  0.018469999999999997  0.68946  0.14284  1.0000
  Cl  Cl13      1.0  0.5694199999999999  0.64787  0.9077300000000001  1.0000
  Cl  Cl14      1.0  0.5769600000000003  0.34975  0.9079799999999999  1.0000
  Cl  Cl15      1.0  0.09957000000000005  0.16059  0.9055499999999999  1.0000
  Cl  Cl16      1.0  0.07312000000000002  0.85079  0.90799  1.0000
  Cl  Cl17      1.0  0.52478  0.84141  0.57553  1.0000
  Cl  Cl18      1.0  0.5608100000000001  0.14461  0.48532  1.0000
  Cl  Cl19      1.0  0.053749999999999964  0.35563000000000006  0.49785000000000007  1.0000
  Cl  Cl20      1.0  0.061680000000000006  0.64461  0.48366000000000003  1.0000
  Cl  Cl21      1.0  0.6342100000000003  0.71421  0.93048  1.0000
  Cl  Cl22      1.0  0.63657  0.27748  0.93044  1.0000
  Cl  Cl23      1.0  0.1416999999999999  0.24582  0.9288500000000001  1.0000
  Cl  Cl24      1.0  0.13532000000000005  0.78115  0.93048  1.0000
  N   N29       1.0  0.46097  0.6567300000000001  0.07079  1.0000
  O   O109      1.0  0.45077  0.63104  0.028709999999999996  1.0000
  O   O110      1.0  0.4316700000000001  0.64101  0.13924  1.0000
  N   N30       1.0  0.46801  0.3430300000000001  0.07101  1.0000
  O   O111      1.0  0.45977  0.37116  0.029040000000000003  1.0000
  O   O112      1.0  0.4399400000000001  0.3583  0.13948  1.0000
  N   N31       1.0  0.99079  0.15986  0.06879  1.0000
  O   O113      1.0  0.98918  0.12668  0.02638  1.0000
  O   O114      1.0  0.9666000000000001  0.14555  0.1368  1.0000
  N   N32       1.0  0.9644300000000002  0.84308  0.07102  1.0000
  O   O115      1.0  0.95518  0.8701100000000002  0.029049999999999996  1.0000
  O   O116      1.0  0.9358  0.85858  0.13949  1.0000
  Cl  Cl25      1.0  0.45522999999999997  0.6886900000000001  0.91969  1.0000
  Cl  Cl26      1.0  0.45998  0.3177600000000001  0.91993  1.0000
  Cl  Cl27      1.0  0.97742  0.16892  0.91909  1.0000
  Cl  Cl28      1.0  0.9574000000000004  0.81476  0.91993  1.0000
  N   N33       1.0  0.36765  0.71325  0.07446  1.0000
  O   O117      1.0  0.3345200000000001  0.7076  0.04811  1.0000
  O   O118      1.0  0.3408  0.69723  0.14219  1.0000
  N   N34       1.0  0.37065  0.29406  0.07462  1.0000
  O   O119      1.0  0.34505000000000013  0.3094700000000001  0.14237  1.0000
  O   O120      1.0  0.33803  0.3034  0.04836  1.0000
  N   N35       1.0  0.8847200000000001  0.18782  0.0734  1.0000
  O   O121      1.0  0.8536100000000001  0.17075  0.04819  1.0000
  O   O122      1.0  0.8641800000000002  0.17246  0.13975  1.0000
  N   N36       1.0  0.86894  0.7906500000000002  0.07463  1.0000
  O   O123      1.0  0.84276  0.8063400000000001  0.14238  1.0000
  O   O124      1.0  0.83601  0.7983200000000003  0.04836  1.0000
  Cl  Cl29      1.0  0.5419700000000001  0.69346  0.09097  1.0000
  Cl  Cl30      1.0  0.54601  0.29907  0.09099  1.0000
  Cl  Cl31      1.0  0.057350000000000005  0.22073  0.08909  1.0000
  Cl  Cl32      1.0  0.04397000000000001  0.8023500000000001  0.09102  1.0000
  N   N37       1.0  0.7017900000000002  0.9491000000000003  0.42209  1.0000
  O   O125      1.0  0.6541900000000002  0.9226000000000001  0.4748200000000001  1.0000
  O   O126      1.0  0.70372  0.95829  0.36308  1.0000
  N   N38       1.0  0.68567  0.047910000000000015  0.44752  1.0000
  O   O127      1.0  0.6325700000000002  0.02666  0.49948999999999993  1.0000
  O   O128      1.0  0.6832600000000002  0.08167  0.40598  1.0000
  N   N39       1.0  0.20464000000000002  0.44933  0.41913  1.0000
  O   O129      1.0  0.15596000000000002  0.42405  0.47217999999999993  1.0000
  O   O130      1.0  0.20792  0.45797  0.35913  1.0000
  N   N40       1.0  0.18743000000000004  0.54784  0.44565999999999995  1.0000
  O   O131      1.0  0.13431  0.52664  0.49764  1.0000
  O   O132      1.0  0.18512  0.58141  0.40384  1.0000
  N   N41       1.0  0.81369  0.9501  0.35574  1.0000
  O   O133      1.0  0.8133099999999999  0.9074  0.32562  1.0000
  O   O134      1.0  0.8664  0.97589  0.31905  1.0000
  N   N42       1.0  0.79621  0.05223  0.35321  1.0000
  O   O135      1.0  0.79461  0.03711  0.29834  1.0000
  O   O136      1.0  0.8307600000000003  0.09224  0.34102  1.0000
  N   N43       1.0  0.31614000000000003  0.45025  0.35474  1.0000
  O   O137      1.0  0.31664000000000003  0.40664  0.32588  1.0000
  O   O138      1.0  0.36852000000000007  0.47646000000000005  0.31762  1.0000
  N   N44       1.0  0.2981  0.55267  0.35215  1.0000
  O   O139      1.0  0.29723000000000005  0.53751  0.29678  1.0000
  O   O140      1.0  0.3318100000000001  0.59312  0.34074  1.0000
  N   N45       1.0  0.63035  0.9486100000000002  0.59993  1.0000
  O   O141      1.0  0.58125  0.97613  0.61911  1.0000
  O   O142      1.0  0.62049  0.9004300000000002  0.61863  1.0000
  N   N46       1.0  0.63732  0.05921  0.61469  1.0000
  O   O143      1.0  0.62657  0.09753  0.58592  1.0000
  O   O144      1.0  0.5984  0.05264  0.68633  1.0000
  N   N47       1.0  0.13095999999999997  0.44904  0.59805  1.0000
  O   O145      1.0  0.08184999999999996  0.47690000000000005  0.61817  1.0000
  O   O146      1.0  0.12095000000000003  0.40067  0.61566  1.0000
  N   N48       1.0  0.13834  0.55939  0.61388  1.0000
  O   O147      1.0  0.12714  0.59723  0.58487  1.0000
  O   O148      1.0  0.09971000000000002  0.55312  0.68561  1.0000
  Cl  Cl33      1.0  0.81078  0.9482100000000001  0.57105  1.0000
  Cl  Cl34      1.0  0.8321500000000002  0.057900000000000014  0.54546  1.0000
  Cl  Cl35      1.0  0.31065  0.4486000000000001  0.57138  1.0000
  Cl  Cl36      1.0  0.33367  0.55827  0.54409  1.0000
  Cl  Cl37      1.0  0.88435  0.9344  0.41967  1.0000
  Cl  Cl38      1.0  0.8907  0.04889  0.39581  1.0000
  Cl  Cl39      1.0  0.38505000000000006  0.43433  0.41989  1.0000
  Cl  Cl40      1.0  0.39177999999999996  0.54872  0.39501  1.0000
  Cl  Cl41      1.0  0.39931  0.82697  0.60263  1.0000
  Cl  Cl42      1.0  0.4577  0.14291  0.46932000000000007  1.0000
  Cl  Cl43      1.0  0.9506300000000002  0.35784  0.48165  1.0000
  Cl  Cl44      1.0  0.9585800000000001  0.64304  0.46769999999999995  1.0000
  Cl  Cl45      1.0  0.8897400000000002  0.55725  0.39982  1.0000
  Cl  Cl46      1.0  0.8798900000000004  0.44918000000000013  0.43608  1.0000
  Cl  Cl47      1.0  0.3897300000000001  0.05738  0.40388  1.0000
  Cl  Cl48      1.0  0.3787700000000001  0.9494100000000002  0.44058  1.0000
  N   N49       1.0  0.8180800000000003  0.54921  0.35441  1.0000
  O   O149      1.0  0.80327  0.5209  0.31871  1.0000
  O   O150      1.0  0.8395500000000004  0.59486  0.32758  1.0000
  N   N50       1.0  0.84498  0.4466800000000001  0.3503  1.0000
  O   O151      1.0  0.8227100000000002  0.40542  0.34089  1.0000
  O   O152      1.0  0.90011  0.46241  0.29336  1.0000
  N   N51       1.0  0.3214  0.04915  0.35393  1.0000
  O   O153      1.0  0.30795999999999996  0.020810000000000006  0.31696  1.0000
  O   O154      1.0  0.34381  0.0946  0.32693  1.0000
  N   N52       1.0  0.34792  0.9467700000000001  0.35103  1.0000
  O   O155      1.0  0.32593  0.9061000000000001  0.3399  1.0000
  O   O156      1.0  0.40382  0.96234  0.29551  1.0000
  N   N53       1.0  0.8096700000000001  0.54794  0.55642  1.0000
  O   O157      1.0  0.8529000000000001  0.51706  0.54745  1.0000
  O   O158      1.0  0.8170100000000001  0.59641  0.56353  1.0000
  N   N54       1.0  0.77487  0.44404000000000005  0.59663  1.0000
  O   O159      1.0  0.7675800000000002  0.46077  0.65658  1.0000
  O   O160      1.0  0.7960500000000003  0.39745  0.57659  1.0000
  N   N55       1.0  0.30631  0.047980000000000016  0.56028  1.0000
  O   O161      1.0  0.34869000000000006  0.01713  0.55347  1.0000
  O   O162      1.0  0.31338999999999995  0.09651  0.56743  1.0000
  N   N56       1.0  0.27108999999999994  0.944  0.59969  1.0000
  O   O163      1.0  0.26181  0.9605200000000003  0.66082  1.0000
  O   O164      1.0  0.2931000000000001  0.8976300000000001  0.57948  1.0000
  Cl  Cl49      1.0  0.6176  0.54765  0.59172  1.0000
  Cl  Cl50      1.0  0.61677  0.44131  0.55474  1.0000
  Cl  Cl51      1.0  0.11767999999999999  0.04789000000000001  0.58691  1.0000
  Cl  Cl52      1.0  0.11812999999999999  0.94129  0.54996  1.0000
  N   N57       1.0  0.67809  0.55762  0.45104000000000005  1.0000
  O   O165      1.0  0.62488  0.54876  0.45952  1.0000
  O   O166      1.0  0.7095  0.59811  0.41308  1.0000
  N   N58       1.0  0.7074100000000002  0.45026  0.41794  1.0000
  O   O167      1.0  0.7045100000000002  0.40097  0.41111  1.0000
  O   O168      1.0  0.6990200000000001  0.47807  0.37584  1.0000
  N   N59       1.0  0.18197999999999998  0.05754000000000001  0.4456800000000001  1.0000
  O   O169      1.0  0.13021  0.0484  0.45096  1.0000
  O   O170      1.0  0.21349  0.09841  0.4092  1.0000
  N   N60       1.0  0.21094000000000004  0.9498800000000001  0.4142  1.0000
  O   O171      1.0  0.20802  0.90056  0.40755  1.0000
  O   O172      1.0  0.20476000000000003  0.97755  0.37018  1.0000
  Cl  Cl53      1.0  0.6906600000000002  0.56224  0.6539  1.0000
  Cl  Cl54      1.0  0.65838  0.4542900000000001  0.65177  1.0000
  Cl  Cl55      1.0  0.18678000000000006  0.062190000000000016  0.65445  1.0000
  Cl  Cl56      1.0  0.15543  0.9543700000000003  0.65094  1.0000
  Cl  Cl57      1.0  0.4599100000000002  0.8556400000000001  0.45596  1.0000
  Cl  Cl58      1.0  0.51889  0.20677000000000004  0.34874  1.0000
  Cl  Cl59      1.0  0.016880000000000013  0.30095  0.35378  1.0000
  Cl  Cl60      1.0  0.019189999999999985  0.70774  0.34811  1.0000
  N   N61       1.0  0.6307500000000003  0.7306000000000001  0.34979  1.0000
  O   O173      1.0  0.63755  0.72126  0.28783  1.0000
  O   O174      1.0  0.6825600000000003  0.72793  0.34591  1.0000
  N   N62       1.0  0.6049100000000001  0.3262900000000001  0.40012  1.0000
  O   O175      1.0  0.6604999999999999  0.3097300000000001  0.37858  1.0000
  O   O176      1.0  0.60309  0.37182  0.37719  1.0000
  N   N63       1.0  0.1092  0.17867  0.39246  1.0000
  O   O177      1.0  0.10942000000000002  0.13473  0.36439  1.0000
  O   O178      1.0  0.16396  0.19514  0.37366  1.0000
  N   N64       1.0  0.10432999999999999  0.82701  0.40139  1.0000
  O   O179      1.0  0.16001999999999997  0.8104600000000002  0.37946  1.0000
  O   O180      1.0  0.10221999999999999  0.8727500000000002  0.37923  1.0000
  N   N65       1.0  0.52265  0.76274  0.35701  1.0000
  O   O181      1.0  0.56263  0.80033  0.33351  1.0000
  O   O182      1.0  0.49656  0.75475  0.32255  1.0000
  N   N66       1.0  0.5007  0.31245  0.39028  1.0000
  O   O183      1.0  0.55769  0.31234  0.32888  1.0000
  O   O184      1.0  0.45438000000000006  0.32115  0.38456  1.0000
  N   N67       1.0  0.004570000000000001  0.19337  0.38373  1.0000
  O   O185      1.0  0.061450000000000005  0.19737000000000002  0.32267  1.0000
  O   O186      1.0  0.9590300000000003  0.18426000000000006  0.37679  1.0000
  N   N68       1.0  0.00044999999999999354  0.81304  0.39094  1.0000
  O   O187      1.0  0.057500000000000016  0.8136  0.32967  1.0000
  O   O188      1.0  0.95413  0.82152  0.38516  1.0000
  Cl  Cl61      1.0  0.47212000000000004  0.74124  0.65557  1.0000
  Cl  Cl62      1.0  0.49471000000000015  0.19769  0.6354  1.0000
  Cl  Cl63      1.0  0.9915300000000001  0.29512  0.64128  1.0000
  Cl  Cl64      1.0  0.9950600000000001  0.69657  0.63452  1.0000
