data_image0
_chemical_formula_structural       Zn32O104C80H16C32H16C16H16C32H16C80H16C16H32C16H16C48H16C16H16C32H16C32H16NO2NO2NO2NO2NO2NO2NO2NO2NO2NO2NO2NO2NO2NO2NO2NO2H16NO2NO2NO2NO2NO2NO2NO2NO2NO2NO2NO2NO2NO2NO2NO2NO2
_chemical_formula_sum              "Zn32 O168 C400 H208 N32"
_cell_length_a       26.0267
_cell_length_b       43.141200000000005
_cell_length_c       43.17767
_cell_angle_alpha    90.00007
_cell_angle_beta     89.99343
_cell_angle_gamma    89.99993000000002

_space_group_name_H-M_alt    "P 1"
_space_group_IT_number       1

loop_
  _space_group_symop_operation_xyz
  'x, y, z'

loop_
  _atom_site_type_symbol
  _atom_site_label
  _atom_site_symmetry_multiplicity
  _atom_site_fract_x
  _atom_site_fract_y
  _atom_site_fract_z
  _atom_site_occupancy
  Zn  Zn1       1.0  0.7933700000000002  0.52593  0.27593  1.0000
  Zn  Zn2       1.0  0.20663000000000006  0.52593  0.72407  1.0000
  Zn  Zn3       1.0  0.20663000000000006  0.52593  0.27593  1.0000
  Zn  Zn4       1.0  0.7933700000000002  0.52593  0.72407  1.0000
  Zn  Zn5       1.0  0.29337  0.52593  0.7759299999999999  1.0000
  Zn  Zn6       1.0  0.7066300000000002  0.52593  0.22406999999999996  1.0000
  Zn  Zn7       1.0  0.7066300000000002  0.52593  0.7759299999999999  1.0000
  Zn  Zn8       1.0  0.29337  0.52593  0.22406999999999996  1.0000
  Zn  Zn9       1.0  0.29337  0.02593  0.27593  1.0000
  Zn  Zn10      1.0  0.7066300000000002  0.02593  0.72407  1.0000
  Zn  Zn11      1.0  0.7066300000000002  0.02593  0.27593  1.0000
  Zn  Zn12      1.0  0.29337  0.02593  0.72407  1.0000
  Zn  Zn13      1.0  0.7933700000000002  0.02593  0.7759299999999999  1.0000
  Zn  Zn14      1.0  0.20663000000000006  0.02593  0.22406999999999996  1.0000
  Zn  Zn15      1.0  0.20663000000000006  0.02593  0.7759299999999999  1.0000
  Zn  Zn16      1.0  0.7933700000000002  0.02593  0.22406999999999996  1.0000
  Zn  Zn17      1.0  0.7066400000000003  0.47402  0.27594  1.0000
  Zn  Zn18      1.0  0.29336000000000007  0.47402  0.72406  1.0000
  Zn  Zn19      1.0  0.29336000000000007  0.47402  0.27594  1.0000
  Zn  Zn20      1.0  0.7066400000000003  0.47402  0.72406  1.0000
  Zn  Zn21      1.0  0.20664  0.47402  0.77594  1.0000
  Zn  Zn22      1.0  0.7933600000000002  0.47402  0.22406  1.0000
  Zn  Zn23      1.0  0.7933600000000002  0.47402  0.77594  1.0000
  Zn  Zn24      1.0  0.20664  0.47402  0.22406  1.0000
  Zn  Zn25      1.0  0.20664  0.9740200000000001  0.27594  1.0000
  Zn  Zn26      1.0  0.7933600000000002  0.9740200000000001  0.72406  1.0000
  Zn  Zn27      1.0  0.7933600000000002  0.9740200000000001  0.27594  1.0000
  Zn  Zn28      1.0  0.20664  0.9740200000000001  0.72406  1.0000
  Zn  Zn29      1.0  0.7066400000000003  0.9740200000000001  0.77594  1.0000
  Zn  Zn30      1.0  0.29336000000000007  0.9740200000000001  0.22406  1.0000
  Zn  Zn31      1.0  0.29336000000000007  0.9740200000000001  0.77594  1.0000
  Zn  Zn32      1.0  0.7066400000000003  0.9740200000000001  0.22406  1.0000
  O   O1        1.0  0.75  0.49998000000000004  0.25  1.0000
  O   O2        1.0  0.25  0.49998000000000004  0.7499999999999999  1.0000
  O   O3        1.0  0.25  0.49998000000000004  0.25  1.0000
  O   O4        1.0  0.75  0.49998000000000004  0.7499999999999999  1.0000
  O   O5        1.0  0.25  0.99998  0.25  1.0000
  O   O6        1.0  0.75  0.99998  0.7499999999999999  1.0000
  O   O7        1.0  0.75  0.99998  0.25  1.0000
  O   O8        1.0  0.25  0.99998  0.7499999999999999  1.0000
  O   O9        1.0  0.6342  0.51816  0.23180999999999996  1.0000
  O   O10       1.0  0.3658  0.51816  0.76819  1.0000
  O   O11       1.0  0.3658  0.51816  0.23180999999999996  1.0000
  O   O12       1.0  0.6342  0.51816  0.76819  1.0000
  O   O13       1.0  0.1342  0.51816  0.73181  1.0000
  O   O14       1.0  0.8658  0.51816  0.26819  1.0000
  O   O15       1.0  0.8658  0.51816  0.73181  1.0000
  O   O16       1.0  0.1342  0.51816  0.26819  1.0000
  O   O17       1.0  0.1342  0.01816  0.23180999999999996  1.0000
  O   O18       1.0  0.8658  0.01816  0.76819  1.0000
  O   O19       1.0  0.8658  0.01816  0.23180999999999996  1.0000
  O   O20       1.0  0.1342  0.01816  0.76819  1.0000
  O   O21       1.0  0.6342  0.01816  0.73181  1.0000
  O   O22       1.0  0.3658  0.01816  0.26819  1.0000
  O   O23       1.0  0.3658  0.01816  0.73181  1.0000
  O   O24       1.0  0.6342  0.01816  0.26819  1.0000
  O   O25       1.0  0.71965  0.48180000000000006  0.31927  1.0000
  O   O26       1.0  0.28035000000000004  0.48180000000000006  0.6807299999999998  1.0000
  O   O27       1.0  0.28035000000000004  0.48180000000000006  0.31927  1.0000
  O   O28       1.0  0.71965  0.48180000000000006  0.6807299999999998  1.0000
  O   O29       1.0  0.21965  0.48180000000000006  0.81927  1.0000
  O   O30       1.0  0.78035  0.48180000000000006  0.18072999999999997  1.0000
  O   O31       1.0  0.78035  0.48180000000000006  0.81927  1.0000
  O   O32       1.0  0.21965  0.48180000000000006  0.18072999999999997  1.0000
  O   O33       1.0  0.21965  0.9818000000000001  0.31927  1.0000
  O   O34       1.0  0.78035  0.9818000000000001  0.6807299999999998  1.0000
  O   O35       1.0  0.78035  0.9818000000000001  0.31927  1.0000
  O   O36       1.0  0.21965  0.9818000000000001  0.6807299999999998  1.0000
  O   O37       1.0  0.71965  0.9818000000000001  0.81927  1.0000
  O   O38       1.0  0.28035000000000004  0.9818000000000001  0.18072999999999997  1.0000
  O   O39       1.0  0.28035000000000004  0.9818000000000001  0.81927  1.0000
  O   O40       1.0  0.71965  0.9818000000000001  0.18072999999999997  1.0000
  O   O41       1.0  0.71966  0.43068  0.26815  1.0000
  O   O42       1.0  0.28034  0.43068  0.73185  1.0000
  O   O43       1.0  0.28034  0.43068  0.26815  1.0000
  O   O44       1.0  0.71966  0.43068  0.73185  1.0000
  O   O45       1.0  0.21966000000000005  0.43068  0.7681499999999999  1.0000
  O   O46       1.0  0.78034  0.43068  0.23185  1.0000
  O   O47       1.0  0.78034  0.43068  0.7681499999999999  1.0000
  O   O48       1.0  0.21966000000000005  0.43068  0.23185  1.0000
  O   O49       1.0  0.21966000000000005  0.93068  0.26815  1.0000
  O   O50       1.0  0.78034  0.93068  0.73185  1.0000
  O   O51       1.0  0.78034  0.93068  0.26815  1.0000
  O   O52       1.0  0.21966000000000005  0.93068  0.73185  1.0000
  O   O53       1.0  0.71966  0.93068  0.7681499999999999  1.0000
  O   O54       1.0  0.28034  0.93068  0.23185  1.0000
  O   O55       1.0  0.28034  0.93068  0.7681499999999999  1.0000
  O   O56       1.0  0.71966  0.93068  0.23185  1.0000
  O   O57       1.0  0.7196200000000001  0.56928  0.23180999999999996  1.0000
  O   O58       1.0  0.28038  0.56928  0.76819  1.0000
  O   O59       1.0  0.28038  0.56928  0.23180999999999996  1.0000
  O   O60       1.0  0.7196200000000001  0.56928  0.76819  1.0000
  O   O61       1.0  0.21962000000000004  0.56928  0.73181  1.0000
  O   O62       1.0  0.7803800000000002  0.56928  0.26819  1.0000
  O   O63       1.0  0.7803800000000002  0.56928  0.73181  1.0000
  O   O64       1.0  0.21962000000000004  0.56928  0.26819  1.0000
  O   O65       1.0  0.21962000000000004  0.06928  0.23180999999999996  1.0000
  O   O66       1.0  0.7803800000000002  0.06928  0.76819  1.0000
  O   O67       1.0  0.7803800000000002  0.06928  0.23180999999999996  1.0000
  O   O68       1.0  0.21962000000000004  0.06928  0.76819  1.0000
  O   O69       1.0  0.7196200000000001  0.06928  0.73181  1.0000
  O   O70       1.0  0.28038  0.06928  0.26819  1.0000
  O   O71       1.0  0.28038  0.06928  0.73181  1.0000
  O   O72       1.0  0.7196200000000001  0.06928  0.26819  1.0000
  O   O73       1.0  0.78036  0.51813  0.31927  1.0000
  O   O74       1.0  0.21964000000000006  0.51813  0.6807299999999998  1.0000
  O   O75       1.0  0.21964000000000006  0.51813  0.31927  1.0000
  O   O76       1.0  0.78036  0.51813  0.6807299999999998  1.0000
  O   O77       1.0  0.28036  0.51813  0.81927  1.0000
  O   O78       1.0  0.71964  0.51813  0.18072999999999997  1.0000
  O   O79       1.0  0.71964  0.51813  0.81927  1.0000
  O   O80       1.0  0.28036  0.51813  0.18072999999999997  1.0000
  O   O81       1.0  0.28036  0.01813  0.31927  1.0000
  O   O82       1.0  0.71964  0.01813  0.6807299999999998  1.0000
  O   O83       1.0  0.71964  0.01813  0.31927  1.0000
  O   O84       1.0  0.28036  0.01813  0.6807299999999998  1.0000
  O   O85       1.0  0.78036  0.01813  0.81927  1.0000
  O   O86       1.0  0.21964000000000006  0.01813  0.18072999999999997  1.0000
  O   O87       1.0  0.21964000000000006  0.01813  0.81927  1.0000
  O   O88       1.0  0.78036  0.01813  0.18072999999999997  1.0000
  O   O89       1.0  0.6342200000000001  0.48181  0.26815  1.0000
  O   O90       1.0  0.3657800000000001  0.48181  0.73185  1.0000
  O   O91       1.0  0.3657800000000001  0.48181  0.26815  1.0000
  O   O92       1.0  0.6342200000000001  0.48181  0.73185  1.0000
  O   O93       1.0  0.13422  0.48181  0.7681499999999999  1.0000
  O   O94       1.0  0.8657800000000002  0.48181  0.23185  1.0000
  O   O95       1.0  0.8657800000000002  0.48181  0.7681499999999999  1.0000
  O   O96       1.0  0.13422  0.48181  0.23185  1.0000
  O   O97       1.0  0.13422  0.9818100000000001  0.26815  1.0000
  O   O98       1.0  0.8657800000000002  0.9818100000000001  0.73185  1.0000
  O   O99       1.0  0.8657800000000002  0.9818100000000001  0.26815  1.0000
  O   O100      1.0  0.13422  0.9818100000000001  0.73185  1.0000
  O   O101      1.0  0.6342200000000001  0.9818100000000001  0.7681499999999999  1.0000
  O   O102      1.0  0.3657800000000001  0.9818100000000001  0.23185  1.0000
  O   O103      1.0  0.3657800000000001  0.9818100000000001  0.7681499999999999  1.0000
  O   O104      1.0  0.6342200000000001  0.9818100000000001  0.23185  1.0000
  C   C1        1.0  0.61005  0.49995  0.25001  1.0000
  C   C2        1.0  0.38995000000000013  0.49995  0.74999  1.0000
  C   C3        1.0  0.38995000000000013  0.49995  0.25  1.0000
  C   C4        1.0  0.61005  0.49995  0.74999  1.0000
  C   C5        1.0  0.11005  0.49995  0.75001  1.0000
  C   C6        1.0  0.8899500000000002  0.49995  0.24999  1.0000
  C   C7        1.0  0.8899500000000002  0.49995  0.75001  1.0000
  C   C8        1.0  0.11005  0.49995  0.24999  1.0000
  C   C9        1.0  0.11005  0.9999500000000001  0.25001  1.0000
  C   C10       1.0  0.8899500000000002  0.9999500000000001  0.7499999999999999  1.0000
  C   C11       1.0  0.8899500000000002  0.9999600000000001  0.25  1.0000
  C   C12       1.0  0.11005  0.9999600000000001  0.74999  1.0000
  C   C13       1.0  0.61005  0.9999500000000001  0.7499999999999999  1.0000
  C   C14       1.0  0.38995000000000013  0.9999500000000001  0.24999  1.0000
  C   C15       1.0  0.38995000000000013  0.9999600000000001  0.75001  1.0000
  C   C16       1.0  0.61005  0.9999600000000001  0.24999  1.0000
  C   C17       1.0  0.75001  0.49996000000000007  0.33408  1.0000
  C   C18       1.0  0.24999  0.49996000000000007  0.66592  1.0000
  C   C19       1.0  0.24998000000000006  0.49996000000000007  0.33408  1.0000
  C   C20       1.0  0.7500200000000001  0.49996000000000007  0.66592  1.0000
  C   C21       1.0  0.25001000000000007  0.49996000000000007  0.83408  1.0000
  C   C22       1.0  0.74999  0.49996000000000007  0.16592  1.0000
  C   C23       1.0  0.74998  0.49996000000000007  0.83408  1.0000
  C   C24       1.0  0.25002  0.49996000000000007  0.16592  1.0000
  C   C25       1.0  0.25002  0.9999600000000001  0.33408  1.0000
  C   C26       1.0  0.74999  0.9999600000000001  0.66592  1.0000
  C   C27       1.0  0.74998  0.9999600000000001  0.33408  1.0000
  C   C28       1.0  0.25004  0.99994  0.66591  1.0000
  C   C29       1.0  0.75001  0.9999600000000001  0.83408  1.0000
  C   C30       1.0  0.24998000000000006  0.9999600000000001  0.16592  1.0000
  C   C31       1.0  0.24996000000000004  0.99994  0.8340899999999999  1.0000
  C   C32       1.0  0.7500200000000001  0.9999600000000001  0.16592  1.0000
  C   C33       1.0  0.75  0.41597  0.25  1.0000
  C   C34       1.0  0.25  0.4159900000000001  0.7499999999999999  1.0000
  C   C35       1.0  0.25  0.41597  0.25  1.0000
  C   C36       1.0  0.75  0.41597  0.7499999999999999  1.0000
  C   C37       1.0  0.25  0.9159700000000001  0.25  1.0000
  C   C38       1.0  0.75  0.9159700000000001  0.7499999999999999  1.0000
  C   C39       1.0  0.75  0.9159700000000001  0.25  1.0000
  C   C40       1.0  0.25  0.9159700000000001  0.7499999999999999  1.0000
  C   C41       1.0  0.75  0.58398  0.25  1.0000
  C   C42       1.0  0.25  0.58398  0.7499999999999999  1.0000
  C   C43       1.0  0.25  0.58398  0.25  1.0000
  C   C44       1.0  0.75  0.58398  0.7499999999999999  1.0000
  C   C45       1.0  0.25  0.08398  0.25  1.0000
  C   C46       1.0  0.75  0.08398  0.7499999999999999  1.0000
  C   C47       1.0  0.75  0.08398  0.25  1.0000
  C   C48       1.0  0.25  0.08406  0.7499999999999999  1.0000
  C   C49       1.0  0.7476  0.86547  0.27838  1.0000
  C   C50       1.0  0.2525  0.86548  0.72162  1.0000
  C   C51       1.0  0.25249  0.86548  0.27837  1.0000
  C   C52       1.0  0.7473600000000001  0.86547  0.72163  1.0000
  C   C53       1.0  0.24750000000000003  0.86548  0.77838  1.0000
  C   C54       1.0  0.7524  0.86547  0.22161999999999998  1.0000
  C   C55       1.0  0.7526400000000002  0.86547  0.7783699999999999  1.0000
  C   C56       1.0  0.24751  0.86548  0.22161999999999998  1.0000
  C   C57       1.0  0.24731000000000006  0.3654800000000001  0.27837  1.0000
  C   C58       1.0  0.7525000000000002  0.3654800000000001  0.72163  1.0000
  C   C59       1.0  0.75248  0.3654800000000001  0.27837  1.0000
  C   C60       1.0  0.24718  0.36556000000000005  0.72163  1.0000
  C   C61       1.0  0.7475000000000002  0.3654800000000001  0.77838  1.0000
  C   C62       1.0  0.25269  0.3654800000000001  0.22163  1.0000
  C   C63       1.0  0.25282  0.36556000000000005  0.7783699999999999  1.0000
  C   C64       1.0  0.7475100000000002  0.3654800000000001  0.22161999999999998  1.0000
  C   C65       1.0  0.7484300000000003  0.8330500000000001  0.27799  1.0000
  C   C66       1.0  0.25166000000000005  0.83306  0.72201  1.0000
  C   C67       1.0  0.25165  0.83306  0.27799  1.0000
  C   C68       1.0  0.74818  0.8330500000000001  0.72201  1.0000
  C   C69       1.0  0.24834  0.83306  0.77799  1.0000
  C   C70       1.0  0.7515700000000001  0.8330500000000001  0.22201  1.0000
  C   C71       1.0  0.75182  0.8330500000000001  0.77799  1.0000
  C   C72       1.0  0.24835  0.83306  0.22201  1.0000
  C   C73       1.0  0.24813000000000002  0.33305  0.27798  1.0000
  C   C74       1.0  0.7516600000000002  0.33306  0.72201  1.0000
  C   C75       1.0  0.7516500000000002  0.33306  0.27799  1.0000
  C   C76       1.0  0.24801000000000004  0.33315  0.72201  1.0000
  C   C77       1.0  0.7483400000000001  0.33306  0.77799  1.0000
  C   C78       1.0  0.25187000000000004  0.33305  0.22202  1.0000
  C   C79       1.0  0.25199  0.33315  0.77799  1.0000
  C   C80       1.0  0.7483500000000002  0.33306  0.22201  1.0000
  H   H1        1.0  0.7471500000000002  0.8204600000000001  0.29969  1.0000
  H   H2        1.0  0.25429  0.82047  0.70036  1.0000
  H   H3        1.0  0.25428  0.82047  0.29963999999999996  1.0000
  H   H4        1.0  0.74671  0.8204600000000001  0.70032  1.0000
  H   H5        1.0  0.24571000000000004  0.82047  0.79964  1.0000
  H   H6        1.0  0.7528500000000002  0.8204600000000001  0.20031  1.0000
  H   H7        1.0  0.75328  0.8204600000000001  0.79968  1.0000
  H   H8        1.0  0.24572  0.82047  0.20036  1.0000
  H   H9        1.0  0.24662  0.32046  0.29968  1.0000
  H   H10       1.0  0.7543000000000001  0.32047  0.70036  1.0000
  H   H11       1.0  0.75427  0.32047  0.29963999999999996  1.0000
  H   H12       1.0  0.24513000000000004  0.32056  0.70037  1.0000
  H   H13       1.0  0.7457  0.32047  0.79964  1.0000
  H   H14       1.0  0.25338000000000005  0.32046  0.20032  1.0000
  H   H15       1.0  0.25487  0.32056  0.7996199999999999  1.0000
  H   H16       1.0  0.74572  0.32047  0.20036  1.0000
  C   C81       1.0  0.75  0.81673  0.25  1.0000
  C   C82       1.0  0.25  0.81674  0.7499999999999999  1.0000
  C   C83       1.0  0.25  0.81674  0.25  1.0000
  C   C84       1.0  0.75  0.81673  0.7499999999999999  1.0000
  C   C85       1.0  0.25  0.31673  0.25  1.0000
  C   C86       1.0  0.75  0.31674  0.7499999999999999  1.0000
  C   C87       1.0  0.75  0.31674  0.25  1.0000
  C   C88       1.0  0.25  0.31685  0.7499999999999999  1.0000
  C   C89       1.0  0.75  0.88193  0.25  1.0000
  C   C90       1.0  0.25  0.88194  0.7499999999999999  1.0000
  C   C91       1.0  0.25  0.88194  0.25  1.0000
  C   C92       1.0  0.75  0.88193  0.7499999999999999  1.0000
  C   C93       1.0  0.25  0.38194  0.25  1.0000
  C   C94       1.0  0.75  0.38194  0.7499999999999999  1.0000
  C   C95       1.0  0.75  0.38194  0.25  1.0000
  C   C96       1.0  0.25  0.38200000000000006  0.7499999999999999  1.0000
  C   C97       1.0  0.7835200000000001  0.76612  0.23051  1.0000
  C   C98       1.0  0.28077  0.76612  0.77107  1.0000
  C   C99       1.0  0.28078  0.76612  0.22893  1.0000
  C   C100      1.0  0.78372  0.76612  0.7693599999999999  1.0000
  C   C101      1.0  0.21922000000000005  0.76612  0.72893  1.0000
  C   C102      1.0  0.71649  0.76612  0.26949  1.0000
  C   C103      1.0  0.71627  0.76612  0.73064  1.0000
  C   C104      1.0  0.21922000000000005  0.76612  0.27107  1.0000
  C   C105      1.0  0.28376  0.26612  0.23066  1.0000
  C   C106      1.0  0.78077  0.26612  0.77107  1.0000
  C   C107      1.0  0.78078  0.26612  0.22893  1.0000
  C   C108      1.0  0.21926  0.2663  0.7710999999999999  1.0000
  C   C109      1.0  0.71923  0.26612  0.72893  1.0000
  C   C110      1.0  0.21624  0.26612  0.26934  1.0000
  C   C111      1.0  0.28073  0.2663  0.7288999999999999  1.0000
  C   C112      1.0  0.71922  0.26612  0.27107  1.0000
  H   H17       1.0  0.8102300000000002  0.7782800000000001  0.2156  1.0000
  H   H18       1.0  0.30538  0.7782800000000001  0.78724  1.0000
  H   H19       1.0  0.3054  0.7782800000000001  0.21276  1.0000
  H   H20       1.0  0.8105900000000003  0.77829  0.78416  1.0000
  H   H21       1.0  0.19462000000000004  0.7782800000000001  0.71276  1.0000
  H   H22       1.0  0.6897700000000001  0.7782800000000001  0.2844  1.0000
  H   H23       1.0  0.6894  0.77829  0.71584  1.0000
  H   H24       1.0  0.19460000000000002  0.7782800000000001  0.28724  1.0000
  H   H25       1.0  0.31066  0.27829  0.21588  1.0000
  H   H26       1.0  0.8053700000000001  0.27828  0.78724  1.0000
  H   H27       1.0  0.8054  0.27828  0.21276999999999996  1.0000
  H   H28       1.0  0.19489  0.27846  0.7873999999999999  1.0000
  H   H29       1.0  0.6946300000000002  0.27828  0.71276  1.0000
  H   H30       1.0  0.18934  0.27829  0.28413  1.0000
  H   H31       1.0  0.30511  0.27846  0.7126  1.0000
  H   H32       1.0  0.6946  0.27828  0.28724  1.0000
  C   C113      1.0  0.7835200000000001  0.73382  0.23051  1.0000
  C   C114      1.0  0.28077  0.73382  0.77107  1.0000
  C   C115      1.0  0.28078  0.73382  0.22893  1.0000
  C   C116      1.0  0.78372  0.73382  0.7693599999999999  1.0000
  C   C117      1.0  0.21922000000000005  0.73382  0.72893  1.0000
  C   C118      1.0  0.71649  0.73382  0.26949  1.0000
  C   C119      1.0  0.71627  0.73382  0.73064  1.0000
  C   C120      1.0  0.21922000000000005  0.73382  0.27107  1.0000
  C   C121      1.0  0.28376  0.23382  0.23066  1.0000
  C   C122      1.0  0.78077  0.23382  0.77107  1.0000
  C   C123      1.0  0.78078  0.23382  0.22893  1.0000
  C   C124      1.0  0.21924  0.23401  0.77109  1.0000
  C   C125      1.0  0.71923  0.23382  0.72893  1.0000
  C   C126      1.0  0.21624  0.23382  0.26934  1.0000
  C   C127      1.0  0.28075  0.23401  0.72891  1.0000
  C   C128      1.0  0.71922  0.23382  0.27107  1.0000
  H   H33       1.0  0.8102200000000002  0.72166  0.21559  1.0000
  H   H34       1.0  0.30539  0.72166  0.78724  1.0000
  H   H35       1.0  0.3054  0.72166  0.21276999999999996  1.0000
  H   H36       1.0  0.8105900000000003  0.72166  0.78416  1.0000
  H   H37       1.0  0.19461  0.72166  0.71277  1.0000
  H   H38       1.0  0.6897800000000002  0.72165  0.2844  1.0000
  H   H39       1.0  0.6894100000000001  0.72166  0.71584  1.0000
  H   H40       1.0  0.19460000000000002  0.72166  0.28724  1.0000
  H   H41       1.0  0.31066  0.22166  0.21586999999999998  1.0000
  H   H42       1.0  0.8053800000000002  0.22166  0.78724  1.0000
  H   H43       1.0  0.8054  0.22166  0.21276999999999996  1.0000
  H   H44       1.0  0.19558  0.22185  0.7877599999999999  1.0000
  H   H45       1.0  0.6946300000000002  0.22166  0.71276  1.0000
  H   H46       1.0  0.18934  0.22166  0.28413  1.0000
  H   H47       1.0  0.30442  0.22185  0.71223  1.0000
  H   H48       1.0  0.6946  0.22166  0.28723  1.0000
  C   C129      1.0  0.75  0.7174100000000001  0.25  1.0000
  C   C130      1.0  0.25  0.7174  0.7499999999999999  1.0000
  C   C131      1.0  0.25  0.7174  0.25  1.0000
  C   C132      1.0  0.75  0.7174  0.7499999999999999  1.0000
  C   C133      1.0  0.25  0.2174  0.25  1.0000
  C   C134      1.0  0.75  0.2174  0.7499999999999999  1.0000
  C   C135      1.0  0.75  0.2174  0.25  1.0000
  C   C136      1.0  0.25  0.21761  0.7499999999999999  1.0000
  C   C137      1.0  0.75  0.78254  0.25  1.0000
  C   C138      1.0  0.25  0.78254  0.7499999999999999  1.0000
  C   C139      1.0  0.25  0.78254  0.25  1.0000
  C   C140      1.0  0.75  0.78254  0.7499999999999999  1.0000
  C   C141      1.0  0.25  0.28254  0.25  1.0000
  C   C142      1.0  0.75  0.28254  0.7499999999999999  1.0000
  C   C143      1.0  0.75  0.28254  0.25  1.0000
  C   C144      1.0  0.25  0.28269  0.7499999999999999  1.0000
  C   C145      1.0  0.74854  0.6669  0.27799  1.0000
  C   C146      1.0  0.25163  0.66688  0.72201  1.0000
  C   C147      1.0  0.25162  0.66688  0.27799  1.0000
  C   C148      1.0  0.7482000000000001  0.66689  0.72201  1.0000
  C   C149      1.0  0.24837  0.66688  0.77799  1.0000
  C   C150      1.0  0.75147  0.6669  0.22201  1.0000
  C   C151      1.0  0.7518000000000002  0.66689  0.77799  1.0000
  C   C152      1.0  0.24838000000000005  0.66688  0.22201  1.0000
  C   C153      1.0  0.24816  0.16689  0.27798  1.0000
  C   C154      1.0  0.7516400000000001  0.16688  0.72201  1.0000
  C   C155      1.0  0.75162  0.16689  0.27799  1.0000
  C   C156      1.0  0.29628  0.16712000000000002  0.7475  1.0000
  C   C157      1.0  0.7483600000000002  0.16688  0.77799  1.0000
  C   C158      1.0  0.25184  0.16689  0.22201  1.0000
  C   C159      1.0  0.20371  0.16712000000000002  0.7525  1.0000
  C   C160      1.0  0.74838  0.16689  0.22201  1.0000
  H   H49       1.0  0.74733  0.67948  0.29969  1.0000
  H   H50       1.0  0.25424  0.67947  0.70035  1.0000
  H   H51       1.0  0.25423  0.67947  0.29963999999999996  1.0000
  H   H52       1.0  0.7467500000000002  0.67948  0.70032  1.0000
  H   H53       1.0  0.24576  0.67947  0.79965  1.0000
  H   H54       1.0  0.75267  0.67948  0.20031  1.0000
  H   H55       1.0  0.7532500000000001  0.67948  0.79968  1.0000
  H   H56       1.0  0.24577  0.67947  0.20036  1.0000
  H   H57       1.0  0.24667  0.17948000000000003  0.29968  1.0000
  H   H58       1.0  0.7542600000000003  0.17947  0.70035  1.0000
  H   H59       1.0  0.7542300000000001  0.17947  0.29963999999999996  1.0000
  H   H60       1.0  0.33242000000000005  0.17951  0.74599  1.0000
  H   H61       1.0  0.7457400000000001  0.17947  0.79964  1.0000
  H   H62       1.0  0.25333  0.17948000000000003  0.20032  1.0000
  H   H63       1.0  0.16758000000000003  0.17951  0.75401  1.0000
  H   H64       1.0  0.7457700000000003  0.17947  0.20036  1.0000
  C   C161      1.0  0.7477200000000003  0.63448  0.27838  1.0000
  C   C162      1.0  0.25247  0.63446  0.72162  1.0000
  C   C163      1.0  0.25246  0.63446  0.27838  1.0000
  C   C164      1.0  0.7473800000000003  0.63447  0.72163  1.0000
  C   C165      1.0  0.24753  0.63446  0.77838  1.0000
  C   C166      1.0  0.7522900000000002  0.63448  0.22161999999999998  1.0000
  C   C167      1.0  0.7526200000000001  0.63447  0.7783699999999999  1.0000
  C   C168      1.0  0.24754000000000007  0.63446  0.22161999999999998  1.0000
  C   C169      1.0  0.24734  0.13447  0.27837  1.0000
  C   C170      1.0  0.75248  0.13446  0.72162  1.0000
  C   C171      1.0  0.75246  0.13447  0.27838  1.0000
  C   C172      1.0  0.29668000000000005  0.13476  0.7471800000000001  1.0000
  C   C173      1.0  0.74752  0.13446  0.77838  1.0000
  C   C174      1.0  0.25266000000000005  0.13447  0.22163  1.0000
  C   C175      1.0  0.20331000000000005  0.13476  0.75282  1.0000
  C   C176      1.0  0.74754  0.13447  0.22161999999999998  1.0000
  C   C177      1.0  0.75  0.61801  0.25  1.0000
  C   C178      1.0  0.25  0.618  0.7499999999999999  1.0000
  C   C179      1.0  0.25  0.61801  0.25  1.0000
  C   C180      1.0  0.75  0.61801  0.7499999999999999  1.0000
  C   C181      1.0  0.25  0.11801  0.25  1.0000
  C   C182      1.0  0.75  0.118  0.7499999999999999  1.0000
  C   C183      1.0  0.75  0.118  0.25  1.0000
  C   C184      1.0  0.25  0.1182  0.7499999999999999  1.0000
  C   C185      1.0  0.75  0.68322  0.25  1.0000
  C   C186      1.0  0.25  0.68321  0.7499999999999999  1.0000
  C   C187      1.0  0.25  0.68321  0.25  1.0000
  C   C188      1.0  0.75  0.68321  0.7499999999999999  1.0000
  C   C189      1.0  0.25  0.18321000000000004  0.25  1.0000
  C   C190      1.0  0.75  0.18321000000000004  0.7499999999999999  1.0000
  C   C191      1.0  0.75  0.18321000000000004  0.25  1.0000
  C   C192      1.0  0.25  0.18346  0.7499999999999999  1.0000
  C   C193      1.0  0.9740800000000002  0.51885  0.26894  1.0000
  C   C194      1.0  0.02592  0.51885  0.7310599999999999  1.0000
  C   C195      1.0  0.025910000000000006  0.51885  0.26895  1.0000
  C   C196      1.0  0.9740900000000002  0.51885  0.73105  1.0000
  C   C197      1.0  0.4740800000000001  0.51885  0.7689399999999998  1.0000
  C   C198      1.0  0.52592  0.51885  0.23106  1.0000
  C   C199      1.0  0.52591  0.51885  0.7689499999999999  1.0000
  C   C200      1.0  0.47409  0.51885  0.23105  1.0000
  C   C201      1.0  0.4740800000000001  0.01885  0.26895  1.0000
  C   C202      1.0  0.52591  0.01935  0.73155  1.0000
  C   C203      1.0  0.52591  0.01885  0.26895  1.0000
  C   C204      1.0  0.4740800000000001  0.01936  0.73157  1.0000
  C   C205      1.0  0.9740900000000002  0.01935  0.76845  1.0000
  C   C206      1.0  0.02592  0.01885  0.23105  1.0000
  C   C207      1.0  0.02592  0.01936  0.7684299999999998  1.0000
  C   C208      1.0  0.9740900000000002  0.01885  0.23105  1.0000
  C   C209      1.0  0.94553  0.49968000000000007  0.24973  1.0000
  C   C210      1.0  0.054470000000000005  0.49968000000000007  0.75027  1.0000
  C   C211      1.0  0.054470000000000005  0.49968000000000007  0.24973  1.0000
  C   C212      1.0  0.94553  0.49968000000000007  0.75027  1.0000
  C   C213      1.0  0.4455300000000001  0.49968000000000007  0.74973  1.0000
  C   C214      1.0  0.55447  0.49968000000000007  0.25027  1.0000
  C   C215      1.0  0.55447  0.49968000000000007  0.74973  1.0000
  C   C216      1.0  0.4455300000000001  0.49968000000000007  0.25027  1.0000
  C   C217      1.0  0.4455300000000001  0.99968  0.24973  1.0000
  C   C218      1.0  0.55447  0.99961  0.75019  1.0000
  C   C219      1.0  0.55447  0.99968  0.24973  1.0000
  C   C220      1.0  0.44552  0.99962  0.7502099999999999  1.0000
  C   C221      1.0  0.94553  0.99961  0.74981  1.0000
  C   C222      1.0  0.054470000000000005  0.99968  0.25027  1.0000
  C   C223      1.0  0.054480000000000015  0.99962  0.74979  1.0000
  C   C224      1.0  0.94553  0.99968  0.25027  1.0000
  C   C225      1.0  0.97299  0.47973000000000005  0.22972999999999996  1.0000
  C   C226      1.0  0.02701  0.47973000000000005  0.77026  1.0000
  C   C227      1.0  0.027020000000000002  0.47973000000000005  0.22974  1.0000
  C   C228      1.0  0.97298  0.47973000000000005  0.77026  1.0000
  C   C229      1.0  0.47299000000000013  0.47973000000000005  0.72974  1.0000
  C   C230      1.0  0.52701  0.47973000000000005  0.27026  1.0000
  C   C231      1.0  0.52702  0.47973000000000005  0.72974  1.0000
  C   C232      1.0  0.47298  0.47973000000000005  0.27026  1.0000
  C   C233      1.0  0.47299000000000013  0.9797300000000002  0.22972999999999996  1.0000
  C   C234      1.0  0.527  0.97903  0.76953  1.0000
  C   C235      1.0  0.52702  0.9797300000000002  0.22972999999999996  1.0000
  C   C236      1.0  0.47298  0.97903  0.7695400000000001  1.0000
  C   C237      1.0  0.9730000000000001  0.97903  0.73047  1.0000
  C   C238      1.0  0.02701  0.9797300000000002  0.27027  1.0000
  C   C239      1.0  0.027020000000000002  0.97903  0.73046  1.0000
  C   C240      1.0  0.97298  0.9797300000000002  0.27026  1.0000
  H   H65       1.0  0.95303  0.4641800000000001  0.21414999999999998  1.0000
  H   H66       1.0  0.04697  0.46419000000000005  0.78585  1.0000
  H   H67       1.0  0.04698  0.46419000000000005  0.21414999999999998  1.0000
  H   H68       1.0  0.95302  0.46419000000000005  0.78585  1.0000
  H   H69       1.0  0.45303  0.46419000000000005  0.7141499999999998  1.0000
  H   H70       1.0  0.54697  0.46419000000000005  0.28585  1.0000
  H   H71       1.0  0.54698  0.46419000000000005  0.7141499999999998  1.0000
  H   H72       1.0  0.45302  0.46419000000000005  0.28585  1.0000
  H   H73       1.0  0.45303  0.96419  0.21414999999999998  1.0000
  H   H74       1.0  0.54697  0.96299  0.78462  1.0000
  H   H75       1.0  0.54698  0.96419  0.21414999999999998  1.0000
  H   H76       1.0  0.45302  0.963  0.78462  1.0000
  H   H77       1.0  0.95303  0.96299  0.71538  1.0000
  H   H78       1.0  0.04697  0.96419  0.28585  1.0000
  H   H79       1.0  0.04698  0.963  0.71538  1.0000
  H   H80       1.0  0.95302  0.96419  0.28585  1.0000
  C   C241      1.0  0.5295900000000001  0.04317  0.29333  1.0000
  C   C242      1.0  0.47038  0.04467000000000001  0.70823  1.0000
  C   C243      1.0  0.4703900000000001  0.04316  0.29333  1.0000
  C   C244      1.0  0.52957  0.04465  0.70819  1.0000
  C   C245      1.0  0.02962  0.04467000000000001  0.79177  1.0000
  C   C246      1.0  0.9704100000000001  0.04317  0.20667  1.0000
  C   C247      1.0  0.9704300000000002  0.04465  0.79181  1.0000
  C   C248      1.0  0.029610000000000008  0.04316  0.20667  1.0000
  C   C249      1.0  0.029590000000000005  0.54317  0.29333  1.0000
  C   C250      1.0  0.9704100000000001  0.54317  0.70667  1.0000
  C   C251      1.0  0.97039  0.54317  0.29333  1.0000
  C   C252      1.0  0.029610000000000008  0.54317  0.70667  1.0000
  C   C253      1.0  0.5295900000000001  0.54317  0.7933299999999999  1.0000
  C   C254      1.0  0.47041  0.54317  0.20667  1.0000
  C   C255      1.0  0.4703900000000001  0.54317  0.7933299999999999  1.0000
  C   C256      1.0  0.52961  0.54317  0.20667  1.0000
  H   H81       1.0  0.5466600000000001  0.03416  0.31514  1.0000
  H   H82       1.0  0.45324  0.0366  0.6860699999999998  1.0000
  H   H83       1.0  0.45331  0.03416  0.31514  1.0000
  H   H84       1.0  0.54663  0.03655  0.68602  1.0000
  H   H85       1.0  0.04676  0.0366  0.81393  1.0000
  H   H86       1.0  0.9533400000000001  0.03416  0.18486  1.0000
  H   H87       1.0  0.9533700000000003  0.03655  0.81398  1.0000
  H   H88       1.0  0.04669  0.03416  0.18486  1.0000
  H   H89       1.0  0.04666  0.53417  0.31514  1.0000
  H   H90       1.0  0.9533400000000001  0.53416  0.68486  1.0000
  H   H91       1.0  0.95331  0.53416  0.31514  1.0000
  H   H92       1.0  0.04669  0.53416  0.68486  1.0000
  H   H93       1.0  0.5466600000000001  0.53416  0.81514  1.0000
  H   H94       1.0  0.45334  0.53416  0.18486  1.0000
  H   H95       1.0  0.45331  0.53416  0.81514  1.0000
  H   H96       1.0  0.5466900000000001  0.53416  0.18486  1.0000
  H   H97       1.0  0.54667  0.06503  0.28441  1.0000
  H   H98       1.0  0.45335000000000003  0.06615  0.71807  1.0000
  H   H99       1.0  0.45331  0.06503  0.28441  1.0000
  H   H100      1.0  0.54667  0.06613  0.718  1.0000
  H   H101      1.0  0.04665  0.06615  0.78193  1.0000
  H   H102      1.0  0.95333  0.06503  0.21559  1.0000
  H   H103      1.0  0.95333  0.06613  0.782  1.0000
  H   H104      1.0  0.04669  0.06503  0.21559  1.0000
  H   H105      1.0  0.04667  0.56503  0.28441  1.0000
  H   H106      1.0  0.95333  0.56503  0.71559  1.0000
  H   H107      1.0  0.95331  0.56503  0.28441  1.0000
  H   H108      1.0  0.04669  0.56503  0.71559  1.0000
  H   H109      1.0  0.54667  0.56503  0.78441  1.0000
  H   H110      1.0  0.4533300000000001  0.56503  0.21559  1.0000
  H   H111      1.0  0.45331  0.56503  0.78441  1.0000
  H   H112      1.0  0.5466900000000001  0.56503  0.2156  1.0000
  C   C257      1.0  0.78217  0.47968000000000005  0.8846  1.0000
  C   C258      1.0  0.21790000000000004  0.47963000000000006  0.1154  1.0000
  C   C259      1.0  0.21789  0.47963000000000006  0.8846  1.0000
  C   C260      1.0  0.78218  0.47967  0.1154  1.0000
  C   C261      1.0  0.28217  0.47968000000000005  0.38459999999999994  1.0000
  C   C262      1.0  0.7179  0.47963000000000006  0.6154  1.0000
  C   C263      1.0  0.71789  0.47963000000000006  0.38459999999999994  1.0000
  C   C264      1.0  0.28218  0.47968000000000005  0.6154  1.0000
  C   C265      1.0  0.28232000000000007  0.9797500000000001  0.8846  1.0000
  C   C266      1.0  0.7179  0.9796300000000002  0.1154  1.0000
  C   C267      1.0  0.7179  0.9796200000000003  0.8846  1.0000
  C   C268      1.0  0.28231  0.9797400000000002  0.1154  1.0000
  C   C269      1.0  0.78217  0.97967  0.38459999999999994  1.0000
  C   C270      1.0  0.21775  0.97969  0.61541  1.0000
  C   C271      1.0  0.21776000000000004  0.97968  0.38459  1.0000
  C   C272      1.0  0.78217  0.97967  0.6154  1.0000
  H   H113      1.0  0.80753  0.4638500000000001  0.8725399999999999  1.0000
  H   H114      1.0  0.19281000000000004  0.46365  0.12746  1.0000
  H   H115      1.0  0.1928  0.46365  0.8725399999999999  1.0000
  H   H116      1.0  0.8075400000000001  0.4638500000000001  0.12745  1.0000
  H   H117      1.0  0.30754  0.4638500000000001  0.37254  1.0000
  H   H118      1.0  0.6928100000000003  0.46365  0.62746  1.0000
  H   H119      1.0  0.6928100000000003  0.46364  0.37254  1.0000
  H   H120      1.0  0.30755  0.4638500000000001  0.62745  1.0000
  H   H121      1.0  0.30794000000000005  0.96408  0.8725399999999999  1.0000
  H   H122      1.0  0.69282  0.96364  0.12746  1.0000
  H   H123      1.0  0.69282  0.96364  0.8725399999999999  1.0000
  H   H124      1.0  0.30783  0.96401  0.12746  1.0000
  H   H125      1.0  0.80752  0.96384  0.37254  1.0000
  H   H126      1.0  0.1924  0.9638600000000002  0.62748  1.0000
  H   H127      1.0  0.19251000000000004  0.9638  0.37253  1.0000
  H   H128      1.0  0.80753  0.96384  0.62745  1.0000
  C   C273      1.0  0.7821  0.47966  0.91688  1.0000
  C   C274      1.0  0.21792000000000006  0.47963000000000006  0.08313  1.0000
  C   C275      1.0  0.21792000000000006  0.47963000000000006  0.91688  1.0000
  C   C276      1.0  0.7821100000000001  0.47966  0.08312  1.0000
  C   C277      1.0  0.2821  0.47966  0.41688  1.0000
  C   C278      1.0  0.7179300000000001  0.47963000000000006  0.58313  1.0000
  C   C279      1.0  0.71792  0.47963000000000006  0.41688  1.0000
  C   C280      1.0  0.2821100000000001  0.47966  0.58312  1.0000
  C   C281      1.0  0.28219  0.97969  0.91688  1.0000
  C   C282      1.0  0.7179300000000001  0.9796300000000002  0.08313  1.0000
  C   C283      1.0  0.7179300000000001  0.9796200000000003  0.91688  1.0000
  C   C284      1.0  0.2822  0.9797  0.08312  1.0000
  C   C285      1.0  0.78209  0.9796600000000001  0.41688  1.0000
  C   C286      1.0  0.21783000000000005  0.9796300000000002  0.58314  1.0000
  C   C287      1.0  0.21783000000000005  0.9796500000000001  0.41687  1.0000
  C   C288      1.0  0.7821  0.9796500000000001  0.58312  1.0000
  C   C289      1.0  0.74985  0.4999200000000001  0.93328  1.0000
  C   C290      1.0  0.25011  0.49993000000000004  0.06672  1.0000
  C   C291      1.0  0.25011  0.49993000000000004  0.93328  1.0000
  C   C292      1.0  0.74986  0.4999200000000001  0.06672  1.0000
  C   C293      1.0  0.24985000000000002  0.4999200000000001  0.43327999999999994  1.0000
  C   C294      1.0  0.7501100000000003  0.49993000000000004  0.56672  1.0000
  C   C295      1.0  0.7501100000000003  0.49993000000000004  0.43327999999999994  1.0000
  C   C296      1.0  0.24985000000000002  0.4999200000000001  0.56672  1.0000
  C   C297      1.0  0.24963000000000005  0.99977  0.9332899999999998  1.0000
  C   C298      1.0  0.7501100000000003  0.9999300000000001  0.06672  1.0000
  C   C299      1.0  0.7501000000000002  0.9999300000000001  0.93328  1.0000
  C   C300      1.0  0.24974  0.9998400000000002  0.06672  1.0000
  C   C301      1.0  0.74985  0.9999200000000001  0.43327999999999994  1.0000
  C   C302      1.0  0.25033  0.9997400000000002  0.56671  1.0000
  C   C303      1.0  0.25023  0.9998200000000002  0.43327999999999994  1.0000
  C   C304      1.0  0.74986  0.9999200000000001  0.56672  1.0000
  C   C305      1.0  0.71763  0.52019  0.9168699999999999  1.0000
  C   C306      1.0  0.28228000000000003  0.52023  0.08313  1.0000
  C   C307      1.0  0.28228000000000003  0.52023  0.9168699999999999  1.0000
  C   C308      1.0  0.7176400000000001  0.52019  0.08314  1.0000
  C   C309      1.0  0.21763  0.52019  0.41686  1.0000
  C   C310      1.0  0.7822800000000002  0.52023  0.58313  1.0000
  C   C311      1.0  0.7822700000000002  0.52023  0.41686  1.0000
  C   C312      1.0  0.21764000000000006  0.52019  0.58314  1.0000
  C   C313      1.0  0.21712  0.01988  0.9168699999999999  1.0000
  C   C314      1.0  0.7822700000000002  0.02023  0.08313  1.0000
  C   C315      1.0  0.7822600000000001  0.02023  0.9168699999999999  1.0000
  C   C316      1.0  0.21736000000000005  0.02001  0.08314  1.0000
  C   C317      1.0  0.7176400000000001  0.0202  0.41687  1.0000
  C   C318      1.0  0.28279000000000004  0.01988  0.58311  1.0000
  C   C319      1.0  0.28256000000000003  0.020030000000000003  0.41687  1.0000
  C   C320      1.0  0.7176500000000001  0.0202  0.58314  1.0000
  H   H129      1.0  0.6919600000000002  0.53578  0.929  1.0000
  H   H130      1.0  0.30699  0.53637  0.07099  1.0000
  H   H131      1.0  0.30699  0.53636  0.929  1.0000
  H   H132      1.0  0.69197  0.53577  0.07100999999999999  1.0000
  H   H133      1.0  0.19195000000000004  0.53577  0.429  1.0000
  H   H134      1.0  0.8069800000000001  0.53637  0.57099  1.0000
  H   H135      1.0  0.8069800000000001  0.53637  0.429  1.0000
  H   H136      1.0  0.19196  0.53577  0.57101  1.0000
  H   H137      1.0  0.19120000000000006  0.0353  0.9290099999999999  1.0000
  H   H138      1.0  0.8069700000000001  0.03638  0.07099  1.0000
  H   H139      1.0  0.80696  0.03638  0.929  1.0000
  H   H140      1.0  0.19152  0.0355  0.07100999999999999  1.0000
  H   H141      1.0  0.69197  0.03578  0.429  1.0000
  H   H142      1.0  0.30775  0.03587  0.57097  1.0000
  H   H143      1.0  0.30743  0.03607  0.42901999999999996  1.0000
  H   H144      1.0  0.69199  0.03578  0.57101  1.0000
  C   C321      1.0  0.7176500000000001  0.5202  0.88459  1.0000
  C   C322      1.0  0.28225  0.52025  0.11541  1.0000
  C   C323      1.0  0.28225  0.52025  0.88459  1.0000
  C   C324      1.0  0.7176600000000002  0.5202  0.11541999999999998  1.0000
  C   C325      1.0  0.21765  0.5202  0.38459  1.0000
  C   C326      1.0  0.78225  0.52025  0.61541  1.0000
  C   C327      1.0  0.78224  0.52025  0.38459  1.0000
  C   C328      1.0  0.21765  0.52019  0.6154199999999999  1.0000
  C   C329      1.0  0.21719  0.01992  0.88459  1.0000
  C   C330      1.0  0.78224  0.02025  0.11541  1.0000
  C   C331      1.0  0.78223  0.02025  0.88459  1.0000
  C   C332      1.0  0.21742  0.02005  0.11541999999999998  1.0000
  C   C333      1.0  0.7176600000000002  0.0202  0.38459  1.0000
  C   C334      1.0  0.28271  0.01995  0.61539  1.0000
  C   C335      1.0  0.28248  0.02009  0.38459999999999994  1.0000
  C   C336      1.0  0.7176700000000003  0.0202  0.6154199999999999  1.0000
  H   H145      1.0  0.6923200000000003  0.53603  0.87252  1.0000
  H   H146      1.0  0.30733  0.53624  0.12747  1.0000
  H   H147      1.0  0.30732  0.53623  0.87252  1.0000
  H   H148      1.0  0.6923200000000003  0.53603  0.12748  1.0000
  H   H149      1.0  0.19231  0.53603  0.37252  1.0000
  H   H150      1.0  0.80732  0.53624  0.62747  1.0000
  H   H151      1.0  0.80731  0.53624  0.37252  1.0000
  H   H152      1.0  0.19232000000000005  0.53603  0.62748  1.0000
  H   H153      1.0  0.19162000000000007  0.03561  0.87253  1.0000
  H   H154      1.0  0.80731  0.03625  0.12747  1.0000
  H   H155      1.0  0.8073  0.03625  0.87252  1.0000
  H   H156      1.0  0.19195000000000004  0.03581  0.12748  1.0000
  H   H157      1.0  0.69233  0.03604  0.37252  1.0000
  H   H158      1.0  0.3080200000000001  0.03581  0.62745  1.0000
  H   H159      1.0  0.30768  0.03601  0.37254  1.0000
  H   H160      1.0  0.69234  0.03604  0.62748  1.0000
  C   C337      1.0  0.74994  0.49995  0.86817  1.0000
  C   C338      1.0  0.25005  0.49995  0.13183  1.0000
  C   C339      1.0  0.25005  0.49994  0.86817  1.0000
  C   C340      1.0  0.74994  0.49994  0.13183  1.0000
  C   C341      1.0  0.24994000000000002  0.49995  0.36817  1.0000
  C   C342      1.0  0.75005  0.49995  0.63183  1.0000
  C   C343      1.0  0.75005  0.49995  0.36817  1.0000
  C   C344      1.0  0.24995  0.49994  0.63183  1.0000
  C   C345      1.0  0.24983  0.99987  0.86817  1.0000
  C   C346      1.0  0.75005  0.9999500000000001  0.13183  1.0000
  C   C347      1.0  0.75005  0.9999500000000001  0.86817  1.0000
  C   C348      1.0  0.24991000000000005  0.9999200000000001  0.13183  1.0000
  C   C349      1.0  0.74994  0.9999500000000001  0.36817  1.0000
  C   C350      1.0  0.25016  0.9998600000000001  0.63183  1.0000
  C   C351      1.0  0.25008  0.9999200000000001  0.36817  1.0000
  C   C352      1.0  0.7499500000000001  0.99994  0.63183  1.0000
  C   C353      1.0  0.7488400000000002  0.528  0.9838599999999998  1.0000
  C   C354      1.0  0.29658  0.50173  0.01613  1.0000
  C   C355      1.0  0.29658  0.50173  0.9838599999999998  1.0000
  C   C356      1.0  0.7488400000000002  0.528  0.01614  1.0000
  C   C357      1.0  0.24884000000000006  0.528  0.48385999999999996  1.0000
  C   C358      1.0  0.7965800000000001  0.50173  0.51613  1.0000
  C   C359      1.0  0.7965800000000001  0.50173  0.48385999999999996  1.0000
  C   C360      1.0  0.24884000000000006  0.528  0.51614  1.0000
  C   C361      1.0  0.24831000000000006  0.027870000000000002  0.98385  1.0000
  C   C362      1.0  0.7965800000000001  0.0017400000000000002  0.01613  1.0000
  C   C363      1.0  0.7965800000000001  0.0017400000000000002  0.9838599999999998  1.0000
  C   C364      1.0  0.24834  0.027890000000000005  0.01612  1.0000
  C   C365      1.0  0.74886  0.028  0.48385999999999996  1.0000
  C   C366      1.0  0.2968  0.0013300000000000002  0.51611  1.0000
  C   C367      1.0  0.29677  0.00136  0.48384  1.0000
  C   C368      1.0  0.74886  0.028  0.51614  1.0000
  H   H161      1.0  0.7488500000000002  0.54997  0.97173  1.0000
  H   H162      1.0  0.33296  0.50267  0.02827  1.0000
  H   H163      1.0  0.33296  0.50267  0.97172  1.0000
  H   H164      1.0  0.74886  0.54997  0.028279999999999996  1.0000
  H   H165      1.0  0.24884000000000006  0.54997  0.4717299999999999  1.0000
  H   H166      1.0  0.83296  0.50268  0.52827  1.0000
  H   H167      1.0  0.83296  0.50268  0.47172  1.0000
  H   H168      1.0  0.24885000000000002  0.54997  0.52828  1.0000
  H   H169      1.0  0.24804  0.04983  0.9716999999999999  1.0000
  H   H170      1.0  0.83296  0.00269  0.02827  1.0000
  H   H171      1.0  0.83296  0.00269  0.97172  1.0000
  H   H172      1.0  0.24811  0.04986  0.02825  1.0000
  H   H173      1.0  0.74887  0.04997  0.4717299999999999  1.0000
  H   H174      1.0  0.3332000000000001  0.00211  0.52824  1.0000
  H   H175      1.0  0.33315  0.00216  0.47169  1.0000
  H   H176      1.0  0.74888  0.04997  0.52828  1.0000
  C   C369      1.0  0.7498300000000002  0.4999200000000001  0.03255  1.0000
  C   C370      1.0  0.25011  0.49993000000000004  0.96745  1.0000
  C   C371      1.0  0.25012  0.49993000000000004  0.03255  1.0000
  C   C372      1.0  0.7498200000000002  0.4999200000000001  0.96745  1.0000
  C   C373      1.0  0.24983  0.4999200000000001  0.53255  1.0000
  C   C374      1.0  0.7501100000000003  0.49993000000000004  0.46745  1.0000
  C   C375      1.0  0.7501100000000003  0.49993000000000004  0.53255  1.0000
  C   C376      1.0  0.24982000000000004  0.4999200000000001  0.46745  1.0000
  C   C377      1.0  0.24968000000000004  0.99981  0.03255  1.0000
  C   C378      1.0  0.7501100000000003  0.9999300000000001  0.96745  1.0000
  C   C379      1.0  0.7501100000000003  0.9999300000000001  0.03255  1.0000
  C   C380      1.0  0.24962  0.99978  0.96745  1.0000
  C   C381      1.0  0.7498300000000002  0.9999200000000001  0.53255  1.0000
  C   C382      1.0  0.25027  0.99978  0.46744  1.0000
  C   C383      1.0  0.25032  0.9997300000000002  0.53254  1.0000
  C   C384      1.0  0.7498200000000002  0.9999200000000001  0.46745  1.0000
  C   C385      1.0  0.7508000000000001  0.4718300000000001  0.01614  1.0000
  C   C386      1.0  0.20365  0.4981300000000001  0.98387  1.0000
  C   C387      1.0  0.20365  0.4981300000000001  0.01614  1.0000
  C   C388      1.0  0.7507900000000001  0.4718300000000001  0.9838599999999998  1.0000
  C   C389      1.0  0.2508  0.4718300000000001  0.51614  1.0000
  C   C390      1.0  0.70365  0.4981300000000001  0.48387  1.0000
  C   C391      1.0  0.70365  0.4981300000000001  0.51614  1.0000
  C   C392      1.0  0.2508  0.4718300000000001  0.48385999999999996  1.0000
  C   C393      1.0  0.25097  0.97172  0.01615  1.0000
  C   C394      1.0  0.70364  0.99812  0.98387  1.0000
  C   C395      1.0  0.70365  0.99812  0.01614  1.0000
  C   C396      1.0  0.25094000000000005  0.97171  0.98387  1.0000
  C   C397      1.0  0.7507900000000001  0.97183  0.51614  1.0000
  C   C398      1.0  0.20379  0.99816  0.48387  1.0000
  C   C399      1.0  0.20382000000000006  0.9981400000000001  0.51615  1.0000
  C   C400      1.0  0.7507900000000001  0.97183  0.48385999999999996  1.0000
  H   H177      1.0  0.7508000000000001  0.44986000000000004  0.028279999999999996  1.0000
  H   H178      1.0  0.16726000000000002  0.4971900000000001  0.97173  1.0000
  H   H179      1.0  0.16727  0.4971900000000001  0.028279999999999996  1.0000
  H   H180      1.0  0.7507900000000001  0.44987000000000005  0.97172  1.0000
  H   H181      1.0  0.2508  0.44986000000000004  0.52828  1.0000
  H   H182      1.0  0.66726  0.49718  0.4717299999999999  1.0000
  H   H183      1.0  0.66727  0.49718  0.52828  1.0000
  H   H184      1.0  0.2508  0.44987000000000005  0.47172  1.0000
  H   H185      1.0  0.25124  0.9497600000000002  0.028299999999999995  1.0000
  H   H186      1.0  0.66726  0.99717  0.97173  1.0000
  H   H187      1.0  0.66727  0.99717  0.028279999999999996  1.0000
  H   H188      1.0  0.25121  0.94973  0.97174  1.0000
  H   H189      1.0  0.75078  0.9498600000000001  0.52828  1.0000
  H   H190      1.0  0.16739000000000007  0.9973900000000001  0.47175  1.0000
  H   H191      1.0  0.16744000000000003  0.99736  0.52829  1.0000
  H   H192      1.0  0.75078  0.9498600000000001  0.47172  1.0000
  N   N1        1.0  0.7426400000000001  0.88116  0.30765  1.0000
  O   O105      1.0  0.71114  0.9044  0.31066  1.0000
  O   O106      1.0  0.76375  0.8695  0.33237  1.0000
  N   N2        1.0  0.25781  0.88116  0.69237  1.0000
  O   O107      1.0  0.28927  0.9044300000000001  0.68949  1.0000
  O   O108      1.0  0.23704000000000006  0.8694700000000002  0.66756  1.0000
  N   N3        1.0  0.2577900000000001  0.88116  0.30763  1.0000
  O   O109      1.0  0.28925  0.9044300000000001  0.3105  1.0000
  O   O110      1.0  0.23702000000000004  0.8694700000000002  0.33244  1.0000
  N   N4        1.0  0.7421700000000002  0.88116  0.69237  1.0000
  O   O111      1.0  0.7107600000000001  0.90446  0.68948  1.0000
  O   O112      1.0  0.76299  0.8694700000000002  0.66758  1.0000
  N   N5        1.0  0.24219  0.88116  0.80763  1.0000
  O   O113      1.0  0.21073  0.9044300000000001  0.81051  1.0000
  O   O114      1.0  0.26296  0.8694700000000002  0.83244  1.0000
  N   N6        1.0  0.75736  0.88116  0.19235  1.0000
  O   O115      1.0  0.7888600000000001  0.9044  0.18934  1.0000
  O   O116      1.0  0.7362500000000001  0.8695  0.16763  1.0000
  N   N7        1.0  0.7578200000000002  0.88116  0.80763  1.0000
  O   O117      1.0  0.7892400000000003  0.90446  0.81052  1.0000
  O   O118      1.0  0.737  0.8694700000000002  0.83242  1.0000
  N   N8        1.0  0.24221  0.88116  0.19237  1.0000
  O   O119      1.0  0.21074000000000007  0.9044300000000001  0.18948999999999996  1.0000
  O   O120      1.0  0.26298  0.8694700000000002  0.16756  1.0000
  N   N9        1.0  0.24206000000000005  0.38116000000000005  0.30763  1.0000
  O   O121      1.0  0.21067000000000005  0.40447  0.3105  1.0000
  O   O122      1.0  0.26281  0.36946  0.33243  1.0000
  N   N10       1.0  0.7578200000000002  0.38116000000000005  0.69237  1.0000
  O   O123      1.0  0.7892800000000001  0.40443  0.6894999999999999  1.0000
  O   O124      1.0  0.7370600000000003  0.36947  0.66756  1.0000
  N   N11       1.0  0.75779  0.38116000000000005  0.30763  1.0000
  O   O125      1.0  0.78925  0.40443  0.31051  1.0000
  O   O126      1.0  0.73701  0.36947  0.33244  1.0000
  N   N12       1.0  0.24156  0.38125000000000003  0.6924  1.0000
  O   O127      1.0  0.21016000000000007  0.40457  0.68967  1.0000
  O   O128      1.0  0.26199  0.36954  0.6675  1.0000
  N   N13       1.0  0.74218  0.38116000000000005  0.80763  1.0000
  O   O129      1.0  0.7107200000000002  0.40443  0.8104999999999999  1.0000
  O   O130      1.0  0.7629400000000001  0.36947  0.83244  1.0000
  N   N14       1.0  0.25794  0.38116000000000005  0.19237  1.0000
  O   O131      1.0  0.28933  0.40447  0.1895  1.0000
  O   O132      1.0  0.23718000000000006  0.36946  0.16757  1.0000
  N   N15       1.0  0.25844  0.38125000000000003  0.8075999999999999  1.0000
  O   O133      1.0  0.28984  0.40457  0.81033  1.0000
  O   O134      1.0  0.23801  0.36954  0.8324999999999999  1.0000
  N   N16       1.0  0.74221  0.38116000000000005  0.19237  1.0000
  O   O135      1.0  0.71075  0.40443  0.18948999999999996  1.0000
  O   O136      1.0  0.76299  0.36947  0.16756  1.0000
  H   H193      1.0  0.80774  0.46407  0.92902  1.0000
  H   H194      1.0  0.19323000000000004  0.46349  0.07099  1.0000
  H   H195      1.0  0.19323000000000004  0.46349  0.92902  1.0000
  H   H196      1.0  0.8077500000000001  0.46407  0.07096999999999999  1.0000
  H   H197      1.0  0.30775  0.46407  0.42901999999999996  1.0000
  H   H198      1.0  0.69324  0.46349  0.57098  1.0000
  H   H199      1.0  0.69324  0.46348000000000006  0.42901999999999996  1.0000
  H   H200      1.0  0.30776  0.46407  0.57097  1.0000
  H   H201      1.0  0.30805000000000005  0.9642300000000001  0.92903  1.0000
  H   H202      1.0  0.69325  0.9634800000000001  0.07099  1.0000
  H   H203      1.0  0.69325  0.9634700000000002  0.92902  1.0000
  H   H204      1.0  0.3079800000000001  0.96419  0.07096999999999999  1.0000
  H   H205      1.0  0.80773  0.9640600000000001  0.42901999999999996  1.0000
  H   H206      1.0  0.19292000000000006  0.9636100000000001  0.57101  1.0000
  H   H207      1.0  0.19301  0.9635700000000001  0.42901  1.0000
  H   H208      1.0  0.80774  0.9640600000000001  0.57097  1.0000
  N   N17       1.0  0.7428700000000001  0.61879  0.30766  1.0000
  O   O137      1.0  0.76419  0.63041  0.33233  1.0000
  O   O138      1.0  0.7113  0.59559  0.31073  1.0000
  N   N18       1.0  0.25775000000000003  0.61879  0.69237  1.0000
  O   O139      1.0  0.23692  0.63046  0.66757  1.0000
  O   O140      1.0  0.28924  0.59553  0.68948  1.0000
  N   N19       1.0  0.25773  0.61879  0.30763  1.0000
  O   O141      1.0  0.23689  0.63046  0.33243  1.0000
  O   O142      1.0  0.28922  0.59553  0.31052  1.0000
  N   N20       1.0  0.74221  0.61878  0.69237  1.0000
  O   O143      1.0  0.76307  0.63046  0.66759  1.0000
  O   O144      1.0  0.7107800000000002  0.5955  0.68946  1.0000
  N   N21       1.0  0.24225000000000002  0.61879  0.80763  1.0000
  O   O145      1.0  0.26307  0.63046  0.83243  1.0000
  O   O146      1.0  0.21076  0.59553  0.81052  1.0000
  N   N22       1.0  0.7571400000000003  0.61879  0.19233999999999998  1.0000
  O   O147      1.0  0.7358500000000002  0.63041  0.16767  1.0000
  O   O148      1.0  0.78869  0.59559  0.18928  1.0000
  N   N23       1.0  0.75779  0.61878  0.80763  1.0000
  O   O149      1.0  0.73693  0.63046  0.83242  1.0000
  O   O150      1.0  0.7892200000000001  0.5955  0.81054  1.0000
  N   N24       1.0  0.24227000000000004  0.61879  0.19237  1.0000
  O   O151      1.0  0.26311000000000007  0.63046  0.16757  1.0000
  O   O152      1.0  0.21078  0.59553  0.18948  1.0000
  N   N25       1.0  0.24212  0.11878000000000002  0.30763  1.0000
  O   O153      1.0  0.26293  0.13047  0.33242  1.0000
  O   O154      1.0  0.21070000000000003  0.09549  0.31052  1.0000
  N   N26       1.0  0.7577700000000003  0.11879000000000002  0.69237  1.0000
  O   O155      1.0  0.73695  0.13046  0.66757  1.0000
  O   O156      1.0  0.78926  0.09553  0.68948  1.0000
  N   N27       1.0  0.75773  0.11879000000000002  0.30763  1.0000
  O   O157      1.0  0.7368900000000002  0.13046  0.33243  1.0000
  O   O158      1.0  0.7892200000000001  0.09553  0.31052  1.0000
  N   N28       1.0  0.3450600000000001  0.11914  0.7450499999999999  1.0000
  O   O159      1.0  0.37798  0.1217  0.7675599999999999  1.0000
  O   O160      1.0  0.3605200000000001  0.10868  0.71837  1.0000
  N   N29       1.0  0.7422300000000002  0.11879000000000002  0.80763  1.0000
  O   O161      1.0  0.76305  0.13046  0.83243  1.0000
  O   O162      1.0  0.71074  0.09553  0.81052  1.0000
  N   N30       1.0  0.25788  0.11878000000000002  0.19237  1.0000
  O   O163      1.0  0.23707000000000003  0.13047  0.16758  1.0000
  O   O164      1.0  0.2893  0.09549  0.18948  1.0000
  N   N31       1.0  0.15494000000000005  0.11914  0.75495  1.0000
  O   O165      1.0  0.12202  0.1217  0.73244  1.0000
  O   O166      1.0  0.13948000000000002  0.10868  0.7816299999999999  1.0000
  N   N32       1.0  0.74227  0.11879000000000002  0.19237  1.0000
  O   O167      1.0  0.76311  0.13046  0.16757  1.0000
  O   O168      1.0  0.7107800000000002  0.09553  0.18948  1.0000
