data_image0
_chemical_formula_structural       Zn16O52C168H4NO2NO2NO2NO2CO2HCO2HCO2HCO2HCO2HCO2HCO2HCO2HCO2HCO2HCO2HCO2HCO2HCO2HCO2HCO2HCO2HCO2HCO2HCO2HNO2NO2NO2NO2CO2HCO2HCO2HCO2HNO2NO2NO2NO2CO2HCO2HCO2HCO2HNO2NO2NO2NO2NO2NO2NO2NO2CO2HCO2HCO2HCO2HNO2NO2NO2NO2NO2NO2NO2NO2CO2HCO2HCO2HCO2HNO2NO2NO2NO2NO2NO2NO2NO2NO2NO2NO2NO2NO2NO2NO2NO2CO2HCO2HCO2HCO2HNO2NO2NO2NO2NO2NO2NO2NO2CO2HCO2HCO2HCO2HCO2HCO2HCO2HCO2HNO2NO2NO2NO2NO2NO2NO2NO2NO2NO2NO2NO2CO2HCO2HCO2HCO2HCO2HCO2HCO2HCO2HCO2HCO2HCO2HCO2HNO2NO2NO2NO2NO2NO2NO2NO2CO2HCO2HCO2HCO2HNO2NO2NO2NO2
_chemical_formula_sum              "Zn16 O332 C232 H68 N76"
_cell_length_a       36.27936
_cell_length_b       36.260999999999996
_cell_length_c       25.654369999999997
_cell_angle_alpha    90.00082
_cell_angle_beta     135.00807999999998
_cell_angle_gamma    90.00861000000002

_space_group_name_H-M_alt    "P 1"
_space_group_IT_number       1

loop_
  _space_group_symop_operation_xyz
  'x, y, z'

loop_
  _atom_site_type_symbol
  _atom_site_label
  _atom_site_symmetry_multiplicity
  _atom_site_fract_x
  _atom_site_fract_y
  _atom_site_fract_z
  _atom_site_occupancy
  Zn  Zn1       1.0  0.68863  0.7193300000000002  0.43858999999999987  1.0000
  Zn  Zn2       1.0  0.6886299999999999  0.28067  0.43858999999999987  1.0000
  Zn  Zn3       1.0  0.18862999999999994  0.21933  0.43858999999999987  1.0000
  Zn  Zn4       1.0  0.18862999999999994  0.78067  0.43858999999999987  1.0000
  Zn  Zn5       1.0  0.81146  0.7193300000000002  0.56141  1.0000
  Zn  Zn6       1.0  0.8114599999999998  0.28067  0.56141  1.0000
  Zn  Zn7       1.0  0.31146  0.21933  0.56141  1.0000
  Zn  Zn8       1.0  0.31146  0.78067  0.56141  1.0000
  Zn  Zn9       1.0  0.7500399999999999  0.78074  0.43858999999999987  1.0000
  Zn  Zn10      1.0  0.75004  0.21926  0.43858999999999987  1.0000
  Zn  Zn11      1.0  0.25004  0.28074  0.43858999999999987  1.0000
  Zn  Zn12      1.0  0.25004  0.71926  0.43858999999999987  1.0000
  Zn  Zn13      1.0  0.75003  0.78076  0.56141  1.0000
  Zn  Zn14      1.0  0.7500299999999999  0.21924  0.56141  1.0000
  Zn  Zn15      1.0  0.2500299999999999  0.28076  0.56141  1.0000
  Zn  Zn16      1.0  0.2500299999999999  0.7192400000000002  0.56141  1.0000
  O   O1        1.0  0.75004  0.75004  0.5  1.0000
  O   O2        1.0  0.75004  0.24996000000000002  0.5  1.0000
  O   O3        1.0  0.25004  0.25004  0.5  1.0000
  O   O4        1.0  0.25004  0.74996  0.5  1.0000
  O   O5        1.0  0.81051  0.77155  0.66395  1.0000
  O   O6        1.0  0.81051  0.22845  0.66395  1.0000
  O   O7        1.0  0.31051  0.27155  0.66395  1.0000
  O   O8        1.0  0.31051  0.7284500000000003  0.66395  1.0000
  O   O9        1.0  0.6465900000000001  0.72853  0.33605  1.0000
  O   O10       1.0  0.64659  0.27147  0.33605  1.0000
  O   O11       1.0  0.14659  0.22853000000000004  0.33605  1.0000
  O   O12       1.0  0.14659  0.7714700000000002  0.33605  1.0000
  O   O13       1.0  0.79304  0.66806  0.54298  1.0000
  O   O14       1.0  0.79304  0.33194  0.54298  1.0000
  O   O15       1.0  0.29304  0.16806  0.54298  1.0000
  O   O16       1.0  0.29304  0.83194  0.54298  1.0000
  O   O17       1.0  0.7500299999999999  0.8320200000000001  0.4570199999999999  1.0000
  O   O18       1.0  0.75003  0.16798  0.4570199999999999  1.0000
  O   O19       1.0  0.25003  0.33202000000000004  0.4570199999999999  1.0000
  O   O20       1.0  0.25003  0.66798  0.4570199999999999  1.0000
  O   O21       1.0  0.8535200000000001  0.7285400000000002  0.54298  1.0000
  O   O22       1.0  0.85352  0.27146000000000003  0.54298  1.0000
  O   O23       1.0  0.35352  0.22854000000000002  0.54298  1.0000
  O   O24       1.0  0.35352  0.77146  0.54298  1.0000
  O   O25       1.0  0.68954  0.77155  0.54299  1.0000
  O   O26       1.0  0.68954  0.22845  0.54299  1.0000
  O   O27       1.0  0.18953999999999993  0.27155  0.54299  1.0000
  O   O28       1.0  0.18953999999999993  0.7284500000000003  0.54299  1.0000
  O   O29       1.0  0.81053  0.7715200000000002  0.45700999999999997  1.0000
  O   O30       1.0  0.81053  0.22848  0.45700999999999997  1.0000
  O   O31       1.0  0.3105299999999999  0.27152  0.45700999999999997  1.0000
  O   O32       1.0  0.3105299999999999  0.72848  0.45700999999999997  1.0000
  O   O33       1.0  0.64657  0.72855  0.4570199999999999  1.0000
  O   O34       1.0  0.64657  0.27145  0.4570199999999999  1.0000
  O   O35       1.0  0.14656999999999998  0.22855  0.4570199999999999  1.0000
  O   O36       1.0  0.14656999999999998  0.77145  0.4570199999999999  1.0000
  O   O37       1.0  0.7070699999999999  0.6680500000000001  0.4570199999999999  1.0000
  O   O38       1.0  0.70707  0.3319500000000001  0.4570199999999999  1.0000
  O   O39       1.0  0.20706999999999998  0.16805000000000006  0.4570199999999999  1.0000
  O   O40       1.0  0.20706999999999998  0.83195  0.4570199999999999  1.0000
  O   O41       1.0  0.75002  0.83203  0.54298  1.0000
  O   O42       1.0  0.7500200000000001  0.16797000000000006  0.54298  1.0000
  O   O43       1.0  0.25002  0.33203  0.54298  1.0000
  O   O44       1.0  0.25002  0.66797  0.54298  1.0000
  O   O45       1.0  0.8535  0.72856  0.66395  1.0000
  O   O46       1.0  0.8535  0.27144  0.66395  1.0000
  O   O47       1.0  0.3535  0.22856000000000004  0.66395  1.0000
  O   O48       1.0  0.3535  0.77144  0.66395  1.0000
  O   O49       1.0  0.68957  0.7715200000000002  0.33605  1.0000
  O   O50       1.0  0.6895700000000001  0.22848  0.33605  1.0000
  O   O51       1.0  0.18957  0.27152  0.33605  1.0000
  O   O52       1.0  0.18957  0.72848  0.33605  1.0000
  C   C1        1.0  0.8495  0.75006  0.6989499999999998  1.0000
  C   C2        1.0  0.8495  0.24996000000000002  0.69894  1.0000
  C   C3        1.0  0.3494999999999999  0.25006000000000006  0.6989499999999998  1.0000
  C   C4        1.0  0.3495  0.74996  0.69894  1.0000
  C   C5        1.0  0.65059  0.75001  0.30106  1.0000
  C   C6        1.0  0.6505699999999999  0.24998000000000004  0.30104999999999993  1.0000
  C   C7        1.0  0.15058  0.25001  0.30106  1.0000
  C   C8        1.0  0.15056999999999998  0.7499800000000002  0.30104999999999993  1.0000
  C   C9        1.0  0.75005  0.65052  0.49994999999999995  1.0000
  C   C10       1.0  0.75005  0.34948  0.49994  1.0000
  C   C11       1.0  0.25004  0.15053  0.49994  1.0000
  C   C12       1.0  0.25007  0.84947  0.4999799999999999  1.0000
  C   C13       1.0  0.75001  0.84951  0.4999799999999999  1.0000
  C   C14       1.0  0.75002  0.15049000000000004  0.49998999999999993  1.0000
  C   C15       1.0  0.25001  0.34952  0.4999799999999999  1.0000
  C   C16       1.0  0.25002  0.6504900000000001  0.49998999999999993  1.0000
  C   C17       1.0  0.8495199999999999  0.7500300000000002  0.4999799999999999  1.0000
  C   C18       1.0  0.84952  0.24998000000000004  0.49998999999999993  1.0000
  C   C19       1.0  0.34952  0.25003  0.4999799999999999  1.0000
  C   C20       1.0  0.34952  0.74997  0.49998999999999993  1.0000
  C   C21       1.0  0.65056  0.75004  0.49998999999999993  1.0000
  C   C22       1.0  0.65056  0.24995000000000003  0.5  1.0000
  C   C23       1.0  0.15055999999999997  0.25004  0.49998999999999993  1.0000
  C   C24       1.0  0.15055999999999997  0.74995  0.49998999999999993  1.0000
  C   C25       1.0  0.5391599999999999  0.7897200000000001  0.5330299999999998  1.0000
  C   C26       1.0  0.54281  0.21202000000000004  0.53989  1.0000
  C   C27       1.0  0.03772999999999993  0.29029  0.5301699999999999  1.0000
  C   C28       1.0  0.04166000000000002  0.7114300000000002  0.53759  1.0000
  C   C29       1.0  0.47993  0.74436  0.41465  1.0000
  C   C30       1.0  0.48024999999999995  0.25207  0.41454  1.0000
  C   C31       1.0  0.9801599999999999  0.24285  0.41509  1.0000
  C   C32       1.0  0.98032  0.75334  0.41468  1.0000
  C   C33       1.0  0.4350899999999999  0.7411800000000002  0.4159599999999999  1.0000
  C   C34       1.0  0.43453999999999987  0.24843000000000007  0.41388999999999987  1.0000
  C   C35       1.0  0.93543  0.2397  0.4166199999999999  1.0000
  C   C36       1.0  0.9345  0.7497  0.41382  1.0000
  C   C37       1.0  0.38883999999999996  0.75  0.49995999999999996  1.0000
  C   C38       1.0  0.38886  0.25006000000000006  0.5  1.0000
  C   C39       1.0  0.88884  0.25  0.49994999999999995  1.0000
  C   C40       1.0  0.88886  0.75006  0.49998999999999993  1.0000
  C   C41       1.0  0.537  0.74991  0.50001  1.0000
  C   C42       1.0  0.53732  0.25015000000000004  0.50033  1.0000
  C   C43       1.0  0.03700000000000002  0.24991  0.50001  1.0000
  C   C44       1.0  0.03731  0.75014  0.50032  1.0000
  C   C45       1.0  0.49042  0.79087  0.52654  1.0000
  C   C46       1.0  0.50053  0.2138  0.54617  1.0000
  C   C47       1.0  0.98895  0.2913200000000001  0.5236099999999999  1.0000
  C   C48       1.0  0.99943  0.71312  0.54397  1.0000
  C   C49       1.0  0.4628999999999998  0.75004  0.49995999999999996  1.0000
  C   C50       1.0  0.46311  0.25021  0.50001  1.0000
  C   C51       1.0  0.96289  0.25004  0.49994999999999995  1.0000
  C   C52       1.0  0.9631  0.7502  0.5  1.0000
  C   C53       1.0  0.50583  0.7181200000000001  0.55747  1.0000
  C   C54       1.0  0.4975  0.28848  0.5400599999999998  1.0000
  C   C55       1.0  0.006940000000000038  0.21916  0.55969  1.0000
  C   C56       1.0  0.99863  0.7878500000000003  0.54232  1.0000
  C   C57       1.0  0.54875  0.71566  0.55238  1.0000
  C   C58       1.0  0.54626  0.28636  0.54666  1.0000
  C   C59       1.0  0.049950000000000015  0.21661  0.55478  1.0000
  C   C60       1.0  0.047320000000000015  0.7856400000000002  0.54879  1.0000
  C   C61       1.0  0.42201  0.75002  0.49994  1.0000
  C   C62       1.0  0.42208  0.25011  0.50001  1.0000
  C   C63       1.0  0.92201  0.25002  0.49993  1.0000
  C   C64       1.0  0.92207  0.7501100000000003  0.5  1.0000
  C   C65       1.0  0.57801  0.74997  0.4999799999999999  1.0000
  C   C66       1.0  0.57816  0.2501  0.50022  1.0000
  C   C67       1.0  0.07801  0.24997  0.4999799999999999  1.0000
  C   C68       1.0  0.07815999999999998  0.7500800000000001  0.50021  1.0000
  C   C69       1.0  0.6112199999999999  0.75  0.49998999999999993  1.0000
  C   C70       1.0  0.61128  0.25001  0.5001  1.0000
  C   C71       1.0  0.11121999999999997  0.25  0.49998999999999993  1.0000
  C   C72       1.0  0.11126999999999994  0.75001  0.50009  1.0000
  C   C73       1.0  0.48266  0.73462  0.04525  1.0000
  C   C74       1.0  0.4817  0.26620000000000005  0.04521  1.0000
  C   C75       1.0  0.98229  0.23562000000000002  0.04525  1.0000
  C   C76       1.0  0.98132  0.76521  0.04521  1.0000
  C   C77       1.0  0.53137  0.79214  0.04576  1.0000
  C   C78       1.0  0.52934  0.20843000000000006  0.04508  1.0000
  C   C79       1.0  0.032409999999999994  0.29192  0.045749999999999985  1.0000
  C   C80       1.0  0.03032  0.7086  0.04508  1.0000
  C   C81       1.0  0.49019  0.79195  0.95529  1.0000
  C   C82       1.0  0.48014  0.20836  0.95415  1.0000
  C   C83       1.0  0.99122  0.29163  0.95528  1.0000
  C   C84       1.0  0.9811199999999999  0.70844  0.95415  1.0000
  C   C85       1.0  0.38873  0.7502  0.77762  1.0000
  C   C86       1.0  0.38892  0.25025  0.77764  1.0000
  C   C87       1.0  0.8887399999999999  0.2502  0.77762  1.0000
  C   C88       1.0  0.88891  0.7502500000000002  0.77764  1.0000
  C   C89       1.0  0.53755  0.74969  0.07404  1.0000
  C   C90       1.0  0.53646  0.2507  0.07404999999999999  1.0000
  C   C91       1.0  0.03754  0.24968000000000004  0.07404  1.0000
  C   C92       1.0  0.03643999999999999  0.75068  0.07404999999999999  1.0000
  C   C93       1.0  0.4354999999999999  0.74138  0.95479  1.0000
  C   C94       1.0  0.43807  0.2697  0.95432  1.0000
  C   C95       1.0  0.9353  0.24242000000000002  0.95479  1.0000
  C   C96       1.0  0.9376100000000002  0.76875  0.95432  1.0000
  C   C97       1.0  0.4630000000000001  0.75105  0.9259399999999999  1.0000
  C   C98       1.0  0.4627099999999999  0.25124  0.9259199999999999  1.0000
  C   C99       1.0  0.9630300000000002  0.2510500000000001  0.9259399999999999  1.0000
  C   C100      1.0  0.9626699999999999  0.75122  0.9259199999999999  1.0000
  C   C101      1.0  0.50665  0.71959  0.95424  1.0000
  C   C102      1.0  0.51258  0.27569  0.95503  1.0000
  C   C103      1.0  0.005880000000000039  0.21886000000000005  0.95424  1.0000
  C   C104      1.0  0.011959999999999976  0.77651  0.95503  1.0000
  C   C105      1.0  0.55562  0.7221800000000002  0.044509999999999994  1.0000
  C   C106      1.0  0.55553  0.2783  0.04613  1.0000
  C   C107      1.0  0.054909999999999994  0.22137000000000004  0.044509999999999994  1.0000
  C   C108      1.0  0.05485  0.7790600000000002  0.04613  1.0000
  C   C109      1.0  0.42198  0.75063  0.84401  1.0000
  C   C110      1.0  0.422  0.25068  0.84402  1.0000
  C   C111      1.0  0.92199  0.25062  0.84401  1.0000
  C   C112      1.0  0.92198  0.7506700000000001  0.84402  1.0000
  C   C113      1.0  0.57834  0.74972  0.15596999999999997  1.0000
  C   C114      1.0  0.57779  0.25029  0.15595  1.0000
  C   C115      1.0  0.07833999999999999  0.24972000000000003  0.15596999999999997  1.0000
  C   C116      1.0  0.07777  0.75028  0.15595  1.0000
  C   C117      1.0  0.6113799999999999  0.74986  0.22237999999999997  1.0000
  C   C118      1.0  0.6111799999999998  0.25004  0.22235  1.0000
  C   C119      1.0  0.11137999999999998  0.24986  0.22237999999999997  1.0000
  C   C120      1.0  0.11117  0.7500300000000002  0.22235  1.0000
  C   C121      1.0  0.7750299999999999  0.9775300000000001  0.5803499999999999  1.0000
  C   C122      1.0  0.77955  0.02301  0.58269  1.0000
  C   C123      1.0  0.28174999999999994  0.47753  0.5835199999999999  1.0000
  C   C124      1.0  0.28596999999999995  0.5230100000000001  0.5849999999999999  1.0000
  C   C125      1.0  0.7862299999999999  0.9772200000000001  0.48680999999999996  1.0000
  C   C126      1.0  0.78317  0.02278  0.48161  1.0000
  C   C127      1.0  0.2797299999999999  0.47722  0.47617999999999994  1.0000
  C   C128      1.0  0.27643000000000006  0.5227800000000001  0.47113999999999995  1.0000
  C   C129      1.0  0.7502  0.11115000000000001  0.50013  1.0000
  C   C130      1.0  0.7500900000000001  0.8888500000000001  0.50001  1.0000
  C   C131      1.0  0.25018  0.61115  0.5001  1.0000
  C   C132      1.0  0.25006999999999996  0.3888500000000001  0.49998999999999993  1.0000
  C   C133      1.0  0.7503  0.96301  0.49985999999999997  1.0000
  C   C134      1.0  0.75062  0.037010000000000015  0.50035  1.0000
  C   C135      1.0  0.25022999999999995  0.46301  0.49976999999999994  1.0000
  C   C136      1.0  0.25057  0.53701  0.50024  1.0000
  C   C137      1.0  0.6898  0.02249  0.43665  1.0000
  C   C138      1.0  0.69002  0.97704  0.43204  1.0000
  C   C139      1.0  0.18985999999999997  0.52249  0.4443099999999999  1.0000
  C   C140      1.0  0.18948  0.47704  0.4391  1.0000
  C   C141      1.0  0.7504  0.07795  0.50024  1.0000
  C   C142      1.0  0.75021  0.92205  0.49994999999999995  1.0000
  C   C143      1.0  0.25037  0.5779500000000001  0.50018  1.0000
  C   C144      1.0  0.25017  0.42205  0.49989  1.0000
  C   C145      1.0  0.80675  0.52267  0.58262  1.0000
  C   C146      1.0  0.80435  0.47712  0.58383  1.0000
  C   C147      1.0  0.30339  0.022740000000000007  0.58193  1.0000
  C   C148      1.0  0.30108  0.97755  0.58664  1.0000
  C   C149      1.0  0.70234  0.52294  0.49545999999999996  1.0000
  C   C150      1.0  0.6993099999999999  0.47755  0.48992  1.0000
  C   C151      1.0  0.19801999999999997  0.02255  0.4842099999999999  1.0000
  C   C152      1.0  0.19624  0.97733  0.47869999999999996  1.0000
  C   C153      1.0  0.7499099999999999  0.38889  0.5012999999999999  1.0000
  C   C154      1.0  0.75003  0.61111  0.50131  1.0000
  C   C155      1.0  0.25007  0.88886  0.50124  1.0000
  C   C156      1.0  0.24983999999999998  0.11113  0.50059  1.0000
  C   C157      1.0  0.74967  0.53698  0.50549  1.0000
  C   C158      1.0  0.7484499999999998  0.46293  0.5047499999999999  1.0000
  C   C159      1.0  0.24817999999999996  0.03704  0.5020199999999999  1.0000
  C   C160      1.0  0.24961999999999998  0.96295  0.5048  1.0000
  C   C161      1.0  0.74177  0.47813  0.44007  1.0000
  C   C162      1.0  0.742  0.52127  0.44063  1.0000
  C   C163      1.0  0.25305  0.9787100000000001  0.45007  1.0000
  C   C164      1.0  0.24542  0.02178  0.44125999999999993  1.0000
  C   C165      1.0  0.74929  0.42207  0.50269  1.0000
  C   C166      1.0  0.74987  0.57791  0.50294  1.0000
  C   C167      1.0  0.24992999999999999  0.92205  0.50272  1.0000
  C   C168      1.0  0.24913  0.07794  0.50101  1.0000
  H   H1        1.0  0.77736  0.52768  0.45328999999999997  1.0000
  H   H2        1.0  0.77663  0.46971000000000007  0.45360999999999996  1.0000
  H   H3        1.0  0.27965  0.03254  0.45392  1.0000
  H   H4        1.0  0.29416999999999993  0.9748500000000002  0.4797199999999999  1.0000
  N   N1        1.0  0.44848  0.8186500000000002  0.47324999999999995  1.0000
  O   O53       1.0  0.41685  0.82865  0.47895999999999994  1.0000
  O   O54       1.0  0.44261  0.8356200000000003  0.42334  1.0000
  N   N2        1.0  0.47189  0.1781  0.52116  1.0000
  O   O55       1.0  0.4995099999999999  0.14823  0.5552799999999998  1.0000
  O   O56       1.0  0.42446  0.17654  0.49151999999999996  1.0000
  N   N3        1.0  0.94604  0.31813  0.46837999999999996  1.0000
  O   O57       1.0  0.9140600000000001  0.32823  0.47337  1.0000
  O   O58       1.0  0.9395799999999999  0.33421  0.41729  1.0000
  N   N4        1.0  0.96973  0.6778000000000002  0.51685  1.0000
  O   O59       1.0  0.99646  0.64744  0.54918  1.0000
  O   O60       1.0  0.9222599999999999  0.67669  0.48712999999999995  1.0000
  C   C169      1.0  0.5955199999999999  0.7947  0.6110499999999998  1.0000
  O   O61       1.0  0.60676  0.79279  0.66828  1.0000
  O   O62       1.0  0.63555  0.8035600000000003  0.61598  1.0000
  H   H5        1.0  0.67069  0.8068200000000002  0.66866  1.0000
  C   C170      1.0  0.59801  0.2031  0.6159099999999998  1.0000
  O   O63       1.0  0.63696  0.21817000000000006  0.6377  1.0000
  O   O64       1.0  0.60453  0.17179  0.6537899999999999  1.0000
  H   H6        1.0  0.64238  0.16685  0.7006399999999999  1.0000
  C   C171      1.0  0.09388999999999995  0.29666  0.60779  1.0000
  O   O65       1.0  0.10518999999999988  0.29576  0.6651199999999998  1.0000
  O   O66       1.0  0.13361  0.30559  0.61209  1.0000
  H   H7        1.0  0.16861  0.30979  0.6645  1.0000
  C   C172      1.0  0.09657999999999996  0.70139  0.61305  1.0000
  O   O67       1.0  0.13596999999999995  0.71612  0.63573  1.0000
  O   O68       1.0  0.10215000000000002  0.66952  0.64904  1.0000
  H   H8        1.0  0.13984999999999995  0.66388  0.69558  1.0000
  C   C173      1.0  0.50939  0.80577  0.59886  1.0000
  O   O69       1.0  0.53303  0.8351200000000002  0.62364  1.0000
  O   O70       1.0  0.4909899999999999  0.79158  0.6276199999999997  1.0000
  H   H9        1.0  0.5041  0.80576  0.6721799999999999  1.0000
  C   C174      1.0  0.523  0.21569000000000002  0.62499  1.0000
  O   O71       1.0  0.5685599999999998  0.22180000000000002  0.6804999999999998  1.0000
  O   O72       1.0  0.48958000000000007  0.20791000000000007  0.63346  1.0000
  H   H10       1.0  0.50769  0.20907  0.6866799999999998  1.0000
  C   C175      1.0  0.0073800000000000185  0.30749  0.59483  1.0000
  O   O73       1.0  0.029959999999999997  0.33727  0.6175  1.0000
  O   O74       1.0  0.98947  0.29383  0.62458  1.0000
  H   H11       1.0  0.002069999999999892  0.30879000000000006  0.6680999999999998  1.0000
  C   C176      1.0  0.021939999999999883  0.7138300000000001  0.6228799999999998  1.0000
  O   O75       1.0  0.06767000000000001  0.7191100000000001  0.67872  1.0000
  O   O76       1.0  0.98829  0.7059300000000001  0.6308799999999999  1.0000
  H   H12       1.0  0.00641999999999991  0.7063  0.6841399999999997  1.0000
  C   C177      1.0  0.48357999999999995  0.6794  0.54741  1.0000
  O   O77       1.0  0.5142  0.65431  0.58733  1.0000
  O   O78       1.0  0.43109  0.6737800000000003  0.50699  1.0000
  H   H13       1.0  0.4231599999999998  0.64743  0.5096799999999998  1.0000
  C   C178      1.0  0.4591  0.32191  0.49751999999999996  1.0000
  O   O79       1.0  0.42857  0.3271600000000001  0.50302  1.0000
  O   O80       1.0  0.45937  0.34803  0.45797  1.0000
  H   H14       1.0  0.43222  0.36808  0.4355899999999999  1.0000
  C   C179      1.0  0.98607  0.18029  0.5523899999999999  1.0000
  O   O81       1.0  0.017569999999999978  0.15593000000000004  0.59406  1.0000
  O   O82       1.0  0.9337899999999999  0.17396  0.51239  1.0000
  H   H15       1.0  0.92679  0.14767000000000002  0.51694  1.0000
  C   C180      1.0  0.96123  0.82191  0.50179  1.0000
  O   O83       1.0  0.93087  0.82707  0.5076  1.0000
  O   O84       1.0  0.9622799999999999  0.8486  0.4638  1.0000
  H   H16       1.0  0.93573  0.8689800000000002  0.44262999999999997  1.0000
  C   C181      1.0  0.39437999999999995  0.77213  0.9262999999999999  1.0000
  O   O85       1.0  0.35743  0.77633  0.85956  1.0000
  O   O86       1.0  0.3928599999999999  0.79203  0.97129  1.0000
  H   H17       1.0  0.36223999999999984  0.8096600000000003  0.9428699999999999  1.0000
  C   C182      1.0  0.38439999999999985  0.25481  0.9183999999999999  1.0000
  O   O87       1.0  0.3650600000000001  0.26687  0.93932  1.0000
  O   O88       1.0  0.35273999999999994  0.23368000000000005  0.854  1.0000
  H   H18       1.0  0.31748  0.22789000000000006  0.83463  1.0000
  C   C183      1.0  0.89495  0.27383  0.92631  1.0000
  O   O89       1.0  0.85811  0.27812  0.85956  1.0000
  O   O90       1.0  0.8939300000000001  0.29432000000000014  0.97129  1.0000
  H   H19       1.0  0.8637499999999999  0.31235  0.9428699999999999  1.0000
  C   C184      1.0  0.8842999999999998  0.75302  0.9183999999999999  1.0000
  O   O91       1.0  0.86468  0.76437  0.93932  1.0000
  O   O92       1.0  0.85314  0.73191  0.854  1.0000
  H   H20       1.0  0.81802  0.7255200000000002  0.8346199999999998  1.0000
  C   C185      1.0  0.46815000000000007  0.75136  0.08422999999999999  1.0000
  O   O93       1.0  0.42808999999999997  0.74081  0.06549  1.0000
  O   O94       1.0  0.50244  0.77324  0.14738  1.0000
  H   H21       1.0  0.48799  0.7804600000000002  0.16827  1.0000
  C   C186      1.0  0.46778999999999993  0.24144000000000002  0.07922  1.0000
  O   O95       1.0  0.49566000000000004  0.24344  0.14583  1.0000
  O   O96       1.0  0.42386  0.21899  0.0389  1.0000
  H   H22       1.0  0.42105  0.20562000000000005  0.07071  1.0000
  C   C187      1.0  0.9681999999999998  0.2532  0.08422999999999999  1.0000
  O   O97       1.0  0.9279  0.24341000000000002  0.06549  1.0000
  O   O98       1.0  0.003039999999999998  0.27501  0.14738  1.0000
  H   H23       1.0  0.98877  0.28284  0.16827999999999996  1.0000
  C   C188      1.0  0.9680100000000001  0.73973  0.07922  1.0000
  O   O99       1.0  0.9958299999999999  0.7415900000000002  0.14583  1.0000
  O   O100      1.0  0.92462  0.7167100000000002  0.0389  1.0000
  H   H24       1.0  0.9221299999999999  0.7029000000000002  0.07071  1.0000
  N   N5        1.0  0.5813099999999999  0.80986  0.07918999999999997  1.0000
  O   O101      1.0  0.57895  0.84323  0.05796  1.0000
  O   O102      1.0  0.62537  0.8012200000000003  0.14515  1.0000
  N   N6        1.0  0.5813  0.19608  0.07616  1.0000
  O   O103      1.0  0.61797  0.18687  0.14569  1.0000
  O   O104      1.0  0.59139  0.1894  0.037689999999999994  1.0000
  N   N7        1.0  0.08277999999999999  0.30881  0.07918999999999997  1.0000
  O   O105      1.0  0.08124  0.34196  0.057949999999999995  1.0000
  O   O106      1.0  0.12662  0.2999  0.14515  1.0000
  N   N8        1.0  0.08256  0.69711  0.07617  1.0000
  O   O107      1.0  0.11944999999999999  0.68795  0.14569  1.0000
  O   O108      1.0  0.0928  0.69114  0.037689999999999994  1.0000
  C   C189      1.0  0.51658  0.81726  0.07752  1.0000
  O   O109      1.0  0.47275  0.829  0.040839999999999994  1.0000
  O   O110      1.0  0.55589  0.82829  0.15152999999999994  1.0000
  H   H25       1.0  0.54269  0.84521  0.16689  1.0000
  C   C190      1.0  0.52114  0.17827  0.07869  1.0000
  O   O111      1.0  0.53222  0.18323000000000006  0.13551  1.0000
  O   O112      1.0  0.51052  0.1422  0.05156  1.0000
  H   H26       1.0  0.50895  0.12395000000000003  0.07989  1.0000
  C   C191      1.0  0.01824  0.3178  0.07751  1.0000
  O   O113      1.0  0.9747200000000004  0.33016  0.04083  1.0000
  O   O114      1.0  0.05782999999999999  0.32876  0.15152  1.0000
  H   H27       1.0  0.04505  0.3461900000000001  0.16689  1.0000
  C   C192      1.0  0.022839999999999992  0.6778500000000001  0.07869  1.0000
  O   O115      1.0  0.03379999999999998  0.6824000000000002  0.13552  1.0000
  O   O116      1.0  0.01307  0.64186  0.05156  1.0000
  H   H28       1.0  0.011930000000000003  0.62325  0.07989  1.0000
  N   N9        1.0  0.4527300000000001  0.8232500000000003  0.9229999999999999  1.0000
  O   O117      1.0  0.47205  0.85623  0.94856  1.0000
  O   O118      1.0  0.40774  0.8222100000000002  0.85465  1.0000
  N   N10       1.0  0.43237  0.18778000000000003  0.9238  1.0000
  O   O119      1.0  0.3983399999999999  0.17693  0.8551099999999998  1.0000
  O   O120      1.0  0.4227999999999999  0.17819  0.9619  1.0000
  N   N11       1.0  0.9545400000000002  0.32345  0.9229999999999999  1.0000
  O   O121      1.0  0.9746799999999999  0.35625  0.9485499999999999  1.0000
  O   O122      1.0  0.9095400000000001  0.3226700000000001  0.8546399999999998  1.0000
  N   N12       1.0  0.9338499999999998  0.68708  0.9238  1.0000
  O   O123      1.0  0.90008  0.67624  0.8551099999999998  1.0000
  O   O124      1.0  0.9245099999999998  0.67682  0.9618899999999999  1.0000
  C   C193      1.0  0.51312  0.8005900000000002  0.92353  1.0000
  O   O125      1.0  0.55961  0.8020800000000002  0.96097  1.0000
  O   O126      1.0  0.4786999999999998  0.80922  0.8483999999999998  1.0000
  H   H29       1.0  0.49720999999999993  0.8152600000000002  0.8330199999999998  1.0000
  C   C194      1.0  0.49405999999999994  0.18536  0.9192299999999999  1.0000
  O   O127      1.0  0.484  0.19578000000000007  0.86505  1.0000
  O   O128      1.0  0.50988  0.1487  0.94205  1.0000
  H   H30       1.0  0.5152  0.13514000000000007  0.91321  1.0000
  C   C195      1.0  0.014360000000000017  0.2993  0.92352  1.0000
  O   O129      1.0  0.060869999999999834  0.3001000000000001  0.9609599999999998  1.0000
  O   O130      1.0  0.9801500000000001  0.30785  0.84839  1.0000
  H   H31       1.0  0.99879  0.31323  0.8330199999999998  1.0000
  C   C196      1.0  0.99559  0.68619  0.91924  1.0000
  O   O131      1.0  0.98527  0.69701  0.8650599999999998  1.0000
  O   O132      1.0  0.012280000000000029  0.64965  0.94207  1.0000
  H   H32       1.0  0.017919999999999978  0.63657  0.91323  1.0000
  N   N13       1.0  0.57079  0.68429  0.07672  1.0000
  O   O133      1.0  0.59813  0.67954  0.14624  1.0000
  O   O134      1.0  0.57844  0.65958  0.04823  1.0000
  N   N14       1.0  0.56252  0.31592  0.07670999999999999  1.0000
  O   O135      1.0  0.53174  0.34371000000000007  0.03818  1.0000
  O   O136      1.0  0.60398  0.32269  0.14616  1.0000
  N   N15       1.0  0.06915  0.18351  0.07672  1.0000
  O   O137      1.0  0.09638  0.17894  0.14624  1.0000
  O   O138      1.0  0.07618  0.15826  0.04823  1.0000
  N   N16       1.0  0.06093999999999999  0.81647  0.07670999999999999  1.0000
  O   O139      1.0  0.029500000000000002  0.8439800000000001  0.03818  1.0000
  O   O140      1.0  0.10224000000000001  0.8233900000000002  0.14616  1.0000
  N   N17       1.0  0.53646  0.8227500000000002  0.49584  1.0000
  O   O141      1.0  0.53711  0.8550800000000002  0.51884  1.0000
  O   O142      1.0  0.55437  0.8218500000000002  0.46631999999999996  1.0000
  N   N18       1.0  0.53624  0.18017  0.49654  1.0000
  O   O143      1.0  0.57456  0.17132  0.50373  1.0000
  O   O144      1.0  0.4959299999999999  0.15867  0.45482999999999996  1.0000
  N   N19       1.0  0.033869999999999977  0.32264  0.49065999999999993  1.0000
  O   O145      1.0  0.03337000000000001  0.35535  0.51135  1.0000
  O   O146      1.0  0.05183000000000003  0.32121  0.4612299999999999  1.0000
  N   N20       1.0  0.034150000000000034  0.6802400000000002  0.49237  1.0000
  O   O147      1.0  0.07220000000000003  0.67129  0.49902  1.0000
  O   O148      1.0  0.99321  0.65937  0.44939  1.0000
  C   C197      1.0  0.60894  0.73597  0.07578  1.0000
  O   O149      1.0  0.64773  0.73308  0.14218  1.0000
  O   O150      1.0  0.61658  0.7487600000000002  0.03279  1.0000
  H   H33       1.0  0.65414  0.7556800000000001  0.06277  1.0000
  C   C198      1.0  0.61144  0.27215  0.08109999999999998  1.0000
  O   O151      1.0  0.62648  0.29111  0.059579999999999994  1.0000
  O   O152      1.0  0.64853  0.25151  0.14529999999999996  1.0000
  H   H34       1.0  0.68418  0.25199  0.16387999999999994  1.0000
  C   C199      1.0  0.10856  0.23421000000000006  0.07578  1.0000
  O   O153      1.0  0.14728  0.23119000000000003  0.14218  1.0000
  O   O154      1.0  0.11651  0.24627000000000002  0.03278  1.0000
  H   H35       1.0  0.15423999999999996  0.25263000000000013  0.06277  1.0000
  C   C200      1.0  0.11089  0.7738200000000002  0.08109999999999998  1.0000
  O   O155      1.0  0.12547  0.79339  0.059579999999999994  1.0000
  O   O156      1.0  0.14846999999999996  0.7533  0.14529999999999996  1.0000
  H   H36       1.0  0.18409999999999996  0.7544  0.16387999999999994  1.0000
  N   N21       1.0  0.47980999999999996  0.68302  0.92707  1.0000
  O   O157      1.0  0.4552999999999999  0.67253  0.86055  1.0000
  O   O158      1.0  0.48020000000000007  0.66004  0.96621  1.0000
  N   N22       1.0  0.49893  0.31361  0.92376  1.0000
  O   O159      1.0  0.53726  0.33446  0.94638  1.0000
  O   O160      1.0  0.4541199999999999  0.32035  0.8572099999999999  1.0000
  N   N23       1.0  0.97815  0.18264  0.92707  1.0000
  O   O161      1.0  0.9533699999999999  0.17193  0.86055  1.0000
  O   O162      1.0  0.9779799999999996  0.16014000000000003  0.9662199999999999  1.0000
  N   N24       1.0  0.9974  0.8144600000000001  0.92376  1.0000
  O   O163      1.0  0.035229999999999914  0.83595  0.9463899999999998  1.0000
  O   O164      1.0  0.9524399999999998  0.82093  0.8572099999999999  1.0000
  N   N25       1.0  0.49111  0.69528  0.07020999999999998  1.0000
  O   O165      1.0  0.45391000000000004  0.6709900000000001  0.03318  1.0000
  O   O166      1.0  0.52718  0.68893  0.14091  1.0000
  N   N26       1.0  0.48691999999999996  0.30249  0.07741  1.0000
  O   O167      1.0  0.5306299999999999  0.3121300000000001  0.14292999999999997  1.0000
  O   O168      1.0  0.4451300000000001  0.31631000000000004  0.05704  1.0000
  N   N27       1.0  0.98976  0.19639000000000004  0.07020999999999998  1.0000
  O   O169      1.0  0.9519599999999999  0.17257  0.03319  1.0000
  O   O170      1.0  0.02568  0.19003  0.14091  1.0000
  N   N28       1.0  0.98568  0.80124  0.0774  1.0000
  O   O171      1.0  0.029159999999999974  0.81113  0.14292999999999997  1.0000
  O   O172      1.0  0.9435699999999999  0.8143  0.05704  1.0000
  C   C201      1.0  0.39579  0.70905  0.91412  1.0000
  O   O173      1.0  0.38410999999999995  0.6928400000000001  0.8623899999999999  1.0000
  O   O174      1.0  0.36649  0.7017  0.92987  1.0000
  H   H37       1.0  0.33987999999999985  0.68135  0.8979899999999998  1.0000
  C   C202      1.0  0.4184599999999999  0.30922000000000005  0.9203799999999999  1.0000
  O   O175      1.0  0.43764999999999993  0.3373900000000001  0.9567399999999999  1.0000
  O   O176      1.0  0.37446  0.31290000000000007  0.84411  1.0000
  H   H38       1.0  0.36403  0.3395300000000001  0.8276  1.0000
  C   C203      1.0  0.8947999999999999  0.21058  0.91412  1.0000
  O   O177      1.0  0.88271  0.19402000000000005  0.8623899999999999  1.0000
  O   O178      1.0  0.8653199999999998  0.20416  0.92988  1.0000
  H   H39       1.0  0.8382099999999999  0.18408  0.8979999999999999  1.0000
  C   C204      1.0  0.9170499999999999  0.8082  0.9203799999999999  1.0000
  O   O179      1.0  0.9355799999999999  0.8363900000000002  0.9567299999999999  1.0000
  O   O180      1.0  0.8729699999999999  0.8117400000000002  0.8440999999999997  1.0000
  H   H40       1.0  0.8619099999999997  0.83831  0.8275899999999998  1.0000
  N   N29       1.0  0.5271599999999999  0.7224000000000003  0.9204599999999998  1.0000
  O   O181      1.0  0.49961  0.7368900000000003  0.85562  1.0000
  O   O182      1.0  0.5607999999999999  0.69754  0.9393899999999998  1.0000
  N   N30       1.0  0.53139  0.25847  0.9241399999999999  1.0000
  O   O183      1.0  0.5749299999999999  0.24080000000000001  0.9620399999999999  1.0000
  O   O184      1.0  0.5051799999999997  0.2646600000000001  0.8552399999999998  1.0000
  N   N31       1.0  0.026449999999999852  0.22075  0.9204599999999998  1.0000
  O   O185      1.0  0.9992600000000001  0.23511000000000004  0.85562  1.0000
  O   O186      1.0  0.05945999999999992  0.1953  0.9393899999999998  1.0000
  N   N32       1.0  0.031169999999999917  0.76011  0.92415  1.0000
  O   O187      1.0  0.07511999999999994  0.7430300000000002  0.9620399999999999  1.0000
  O   O188      1.0  0.004799999999999993  0.76649  0.85525  1.0000
  N   N33       1.0  0.83384  0.03875  0.63666  1.0000
  O   O189      1.0  0.8763300000000002  0.019580000000000007  0.67595  1.0000
  O   O190      1.0  0.8402299999999998  0.07380000000000003  0.6528799999999998  1.0000
  N   N34       1.0  0.8269699999999999  0.96145  0.6452499999999999  1.0000
  O   O191      1.0  0.84137  0.9295800000000001  0.64138  1.0000
  O   O192      1.0  0.8480099999999998  0.9709  0.7106599999999997  1.0000
  N   N35       1.0  0.33979  0.53875  0.6317  1.0000
  O   O193      1.0  0.38154  0.51958  0.66495  1.0000
  O   O194      1.0  0.34736  0.5738  0.64823  1.0000
  N   N36       1.0  0.33491  0.46145  0.64302  1.0000
  O   O195      1.0  0.3469  0.42958  0.63508  1.0000
  O   O196      1.0  0.36133999999999994  0.4709  0.7108399999999999  1.0000
  N   N37       1.0  0.77082  0.96194  0.41976  1.0000
  O   O197      1.0  0.7979  0.9727300000000002  0.40661  1.0000
  O   O198      1.0  0.75081  0.9291000000000001  0.39588  1.0000
  N   N38       1.0  0.7570299999999999  0.03871  0.40834  1.0000
  O   O199      1.0  0.76689  0.07284  0.40553  1.0000
  O   O200      1.0  0.7272799999999999  0.02056  0.34686  1.0000
  N   N39       1.0  0.25796  0.4619400000000001  0.40511  1.0000
  O   O201      1.0  0.27978  0.47273000000000004  0.38363  1.0000
  O   O202      1.0  0.23762  0.42911  0.38344  1.0000
  N   N40       1.0  0.24458999999999997  0.5387100000000002  0.39582  1.0000
  O   O203      1.0  0.25278  0.5728400000000002  0.3902  1.0000
  O   O204      1.0  0.21108999999999994  0.52056  0.33456999999999987  1.0000
  N   N41       1.0  0.8396199999999998  0.96124  0.5473699999999998  1.0000
  O   O205      1.0  0.88012  0.97939  0.60375  1.0000
  O   O206      1.0  0.8477100000000001  0.92707  0.54179  1.0000
  N   N42       1.0  0.83687  0.03807  0.53081  1.0000
  O   O207      1.0  0.8476799999999998  0.07097  0.5586699999999998  1.0000
  O   O208      1.0  0.8644699999999998  0.02724  0.5185599999999999  1.0000
  N   N43       1.0  0.33359  0.46124  0.53046  1.0000
  O   O209      1.0  0.37577  0.47939  0.58332  1.0000
  O   O210      1.0  0.33991  0.42707  0.52219  1.0000
  N   N44       1.0  0.32913999999999993  0.53807  0.5126599999999999  1.0000
  O   O211      1.0  0.342  0.57097  0.54107  1.0000
  O   O212      1.0  0.35151999999999994  0.52724  0.49205  1.0000
  C   C205      1.0  0.64928  0.96003  0.42876  1.0000
  O   O213      1.0  0.65794  0.93181  0.46192999999999995  1.0000
  O   O214      1.0  0.59781  0.9728700000000001  0.37489  1.0000
  H   H41       1.0  0.57331  0.95858  0.37393  1.0000
  C   C206      1.0  0.66007  0.03921  0.45413  1.0000
  O   O215      1.0  0.64804  0.02167  0.48067999999999994  1.0000
  O   O216      1.0  0.64465  0.07631  0.43627  1.0000
  H   H42       1.0  0.62486  0.08467  0.44858999999999993  1.0000
  C   C207      1.0  0.15376  0.46003  0.44566  1.0000
  O   O217      1.0  0.16541999999999996  0.43181  0.48055  1.0000
  O   O218      1.0  0.10238999999999995  0.47287  0.3983699999999999  1.0000
  H   H43       1.0  0.08104  0.45858  0.40345  1.0000
  C   C208      1.0  0.16629  0.53922  0.4713  1.0000
  O   O219      1.0  0.15918999999999997  0.52167  0.50399  1.0000
  O   O220      1.0  0.15069  0.57631  0.45521  1.0000
  H   H44       1.0  0.13507  0.5846700000000001  0.47393  1.0000
  N   N45       1.0  0.67032  0.9612900000000001  0.36179  1.0000
  O   O221      1.0  0.6588  0.9262500000000001  0.34795  1.0000
  O   O222      1.0  0.65768  0.9804800000000001  0.30848  1.0000
  N   N46       1.0  0.6587  0.03872000000000001  0.36213  1.0000
  O   O223      1.0  0.60967  0.029380000000000003  0.30972  1.0000
  O   O224      1.0  0.6706299999999998  0.07052  0.35381999999999997  1.0000
  N   N47       1.0  0.16359  0.4613  0.36554  1.0000
  O   O225      1.0  0.15186999999999995  0.42625000000000013  0.3529599999999999  1.0000
  O   O226      1.0  0.14595999999999998  0.4804800000000001  0.30912999999999996  1.0000
  N   N48       1.0  0.15357  0.5387200000000001  0.36883  1.0000
  O   O227      1.0  0.10449999999999997  0.52938  0.32256  1.0000
  O   O228      1.0  0.16286  0.57052  0.35656  1.0000
  N   N49       1.0  0.47638999999999987  0.7116600000000002  0.37606999999999996  1.0000
  O   O229      1.0  0.43172  0.70546  0.30867  1.0000
  O   O230      1.0  0.51711  0.69939  0.39201  1.0000
  N   N50       1.0  0.47888  0.2868500000000001  0.3814699999999999  1.0000
  O   O231      1.0  0.50276  0.28785  0.36039  1.0000
  O   O232      1.0  0.45289  0.31616  0.36792  1.0000
  N   N51       1.0  0.9777900000000002  0.20948000000000006  0.37886  1.0000
  O   O233      1.0  0.9333599999999999  0.20210000000000006  0.31195  1.0000
  O   O234      1.0  0.018929999999999995  0.19751  0.39566  1.0000
  N   N52       1.0  0.97999  0.7885900000000001  0.3836999999999999  1.0000
  O   O235      1.0  0.003910000000000007  0.7899  0.36269  1.0000
  O   O236      1.0  0.9548799999999998  0.81809  0.37189  1.0000
  C   C209      1.0  0.74183  0.9606300000000001  0.5922799999999998  1.0000
  O   O237      1.0  0.7475  0.9278300000000002  0.60818  1.0000
  O   O238      1.0  0.7069  0.98044  0.5881  1.0000
  H   H45       1.0  0.68926  0.9648100000000001  0.5981  1.0000
  C   C210      1.0  0.75968  0.04019000000000001  0.6143399999999999  1.0000
  O   O239      1.0  0.77796  0.02901  0.67382  1.0000
  O   O240      1.0  0.73067  0.0728  0.58633  1.0000
  H   H46       1.0  0.72349  0.08193  0.6158  1.0000
  C   C211      1.0  0.25447  0.46063000000000004  0.60518  1.0000
  O   O241      1.0  0.26139  0.4278300000000001  0.62152  1.0000
  O   O242      1.0  0.22366999999999987  0.48044000000000003  0.6092599999999998  1.0000
  H   H47       1.0  0.20964  0.46481  0.62486  1.0000
  C   C212      1.0  0.27271  0.54019  0.62536  1.0000
  O   O243      1.0  0.29602  0.5290100000000001  0.68725  1.0000
  O   O244      1.0  0.24407  0.57281  0.60134  1.0000
  H   H48       1.0  0.24153  0.58193  0.63608  1.0000
  C   C213      1.0  0.81023  0.46029  0.64558  1.0000
  O   O245      1.0  0.8106  0.47875  0.68556  1.0000
  O   O246      1.0  0.81631  0.422  0.65712  1.0000
  H   H49       1.0  0.8204999999999999  0.41391000000000006  0.6989199999999998  1.0000
  C   C214      1.0  0.82607  0.54161  0.6524  1.0000
  O   O247      1.0  0.80507  0.5692800000000001  0.64867  1.0000
  O   O248      1.0  0.8733  0.53025  0.72207  1.0000
  H   H50       1.0  0.88352  0.5456  0.76371  1.0000
  C   C215      1.0  0.3011  0.9617100000000001  0.64292  1.0000
  O   O249      1.0  0.29941  0.98096  0.6801  1.0000
  O   O250      1.0  0.30736  0.9235600000000002  0.65601  1.0000
  H   H51       1.0  0.30837  0.9159700000000001  0.69505  1.0000
  C   C216      1.0  0.32033  0.04184  0.64978  1.0000
  O   O251      1.0  0.2961  0.06769  0.64411  1.0000
  O   O252      1.0  0.36811  0.03195  0.72008  1.0000
  H   H52       1.0  0.3766  0.04696  0.76082  1.0000
  N   N53       1.0  0.6508  0.53851  0.42899  1.0000
  O   O253      1.0  0.6467  0.56877  0.39796  1.0000
  O   O254      1.0  0.61054  0.5293700000000001  0.41694  1.0000
  N   N54       1.0  0.65066  0.4630000000000001  0.41656  1.0000
  O   O255      1.0  0.62354  0.48080000000000006  0.3549199999999999  1.0000
  O   O256      1.0  0.63503  0.42977  0.41244  1.0000
  N   N55       1.0  0.14774999999999994  0.03765  0.41435  1.0000
  O   O257      1.0  0.14542  0.06855  0.38642  1.0000
  O   O258      1.0  0.10497999999999995  0.026920000000000006  0.39442999999999995  1.0000
  N   N56       1.0  0.15185  0.9631200000000001  0.4025  1.0000
  O   O259      1.0  0.13155  0.9810300000000001  0.34341  1.0000
  O   O260      1.0  0.13346999999999995  0.9302700000000002  0.3934899999999999  1.0000
  N   N57       1.0  0.71122  0.5383600000000001  0.55752  1.0000
  O   O261      1.0  0.69628  0.572  0.55247  1.0000
  O   O262      1.0  0.7342  0.52069  0.61799  1.0000
  N   N58       1.0  0.69719  0.46205000000000007  0.54139  1.0000
  O   O263      1.0  0.65997  0.47377  0.53455  1.0000
  O   O264      1.0  0.7135  0.4287100000000001  0.5668299999999998  1.0000
  N   N59       1.0  0.20175000000000004  0.03771000000000001  0.54182  1.0000
  O   O265      1.0  0.18668  0.07151  0.53527  1.0000
  O   O266      1.0  0.21909000000000003  0.01935  0.59894  1.0000
  N   N60       1.0  0.18664  0.96145  0.52169  1.0000
  O   O267      1.0  0.14541999999999994  0.9727200000000001  0.5055699999999999  1.0000
  O   O268      1.0  0.20314999999999994  0.92861  0.5501299999999999  1.0000
  N   N61       1.0  0.70081  0.54004  0.36907  1.0000
  O   O269      1.0  0.7132299999999999  0.56873  0.3536199999999999  1.0000
  O   O270      1.0  0.65325  0.52792  0.31866  1.0000
  N   N62       1.0  0.70112  0.46167000000000014  0.36561999999999995  1.0000
  O   O271      1.0  0.69974  0.47191  0.3156  1.0000
  O   O272      1.0  0.67958  0.43016000000000004  0.35519  1.0000
  N   N63       1.0  0.20190999999999998  0.03696  0.36627999999999994  1.0000
  O   O273      1.0  0.20338999999999996  0.0718  0.35552999999999996  1.0000
  O   O274      1.0  0.17058  0.016320000000000005  0.30791  1.0000
  N   N64       1.0  0.22558  0.95855  0.38071  1.0000
  O   O275      1.0  0.24018  0.9641700000000001  0.3473399999999999  1.0000
  O   O276      1.0  0.19385999999999998  0.93131  0.35800999999999994  1.0000
  C   C217      1.0  0.85115  0.53704  0.5904  1.0000
  O   O277      1.0  0.8961200000000001  0.52655  0.64187  1.0000
  O   O278      1.0  0.8427799999999999  0.5656  0.5462099999999999  1.0000
  H   H53       1.0  0.87558  0.57301  0.5596  1.0000
  C   C218      1.0  0.8512799999999999  0.45942000000000005  0.6000599999999999  1.0000
  O   O279      1.0  0.88431  0.4410100000000001  0.65582  1.0000
  O   O280      1.0  0.8594300000000001  0.46603  0.55508  1.0000
  H   H54       1.0  0.8917199999999998  0.45339  0.5731999999999998  1.0000
  C   C219      1.0  0.34746  0.03689  0.58879  1.0000
  O   O281      1.0  0.36574  0.017790000000000004  0.57228  1.0000
  O   O282      1.0  0.36456  0.07354  0.60991  1.0000
  H   H55       1.0  0.39216  0.08006  0.61076  1.0000
  C   C220      1.0  0.35226  0.95981  0.61783  1.0000
  O   O283      1.0  0.39369  0.9684200000000001  0.67973  1.0000
  O   O284      1.0  0.35267999999999994  0.93324  0.5786599999999998  1.0000
  H   H56       1.0  0.38904  0.92398  0.60672  1.0000
  C   C221      1.0  0.47352000000000005  0.7756200000000002  0.36701  1.0000
  O   O285      1.0  0.444  0.8016300000000002  0.34245999999999993  1.0000
  O   O286      1.0  0.50181  0.77308  0.34861  1.0000
  H   H57       1.0  0.49466  0.7942700000000003  0.31666  1.0000
  C   C222      1.0  0.47067999999999993  0.22369  0.3610399999999999  1.0000
  O   O287      1.0  0.50606  0.20599  0.3768099999999999  1.0000
  O   O288      1.0  0.42219000000000007  0.22387  0.28734  1.0000
  H   H58       1.0  0.42059  0.20607  0.25529  1.0000
  C   C223      1.0  0.97265  0.27325  0.36527  1.0000
  O   O289      1.0  0.9422099999999999  0.2988  0.33887  1.0000
  O   O290      1.0  0.0010299999999999513  0.27038  0.34705999999999987  1.0000
  H   H59       1.0  0.9931399999999999  0.2909800000000001  0.31363  1.0000
  C   C224      1.0  0.96991  0.72576  0.35951  1.0000
  O   O291      1.0  0.004769999999999954  0.7078300000000001  0.37423  1.0000
  O   O292      1.0  0.92145  0.72704  0.28585999999999995  1.0000
  H   H60       1.0  0.91933  0.70973  0.25277  1.0000
  C   C225      1.0  0.38705  0.7651900000000003  0.3541199999999999  1.0000
  O   O293      1.0  0.36672  0.76133  0.29091  1.0000
  O   O294      1.0  0.3594  0.7847500000000002  0.36434  1.0000
  H   H61       1.0  0.3268599999999999  0.7970200000000002  0.3175599999999999  1.0000
  C   C226      1.0  0.39912  0.21332  0.3770299999999999  1.0000
  O   O295      1.0  0.35934  0.21322  0.36373  1.0000
  O   O296      1.0  0.40756999999999993  0.18277000000000002  0.3536499999999999  1.0000
  H   H62       1.0  0.37981  0.16304000000000005  0.32971  1.0000
  C   C227      1.0  0.88656  0.26259  0.35312  1.0000
  O   O297      1.0  0.86638  0.25761  0.29023  1.0000
  O   O298      1.0  0.8582  0.28232  0.3619499999999999  1.0000
  H   H63       1.0  0.82523  0.29374  0.31432  1.0000
  C   C228      1.0  0.8980499999999999  0.71516  0.37489  1.0000
  O   O299      1.0  0.85826  0.71526  0.3615899999999999  1.0000
  O   O300      1.0  0.9055899999999999  0.68497  0.3497  1.0000
  H   H64       1.0  0.87725  0.6656  0.3245899999999999  1.0000
  N   N65       1.0  0.40889999999999993  0.7043000000000001  0.39436  1.0000
  O   O301      1.0  0.42594  0.67413  0.39044  1.0000
  O   O302      1.0  0.36421  0.70185  0.3738599999999999  1.0000
  N   N66       1.0  0.39416999999999996  0.27742  0.3648999999999999  1.0000
  O   O303      1.0  0.36674  0.29033000000000003  0.37602  1.0000
  O   O304      1.0  0.3712  0.27818  0.29657  1.0000
  N   N67       1.0  0.9105499999999999  0.20245000000000005  0.39766  1.0000
  O   O305      1.0  0.92867  0.17224  0.3958899999999999  1.0000
  O   O306      1.0  0.86596  0.19964000000000004  0.37735  1.0000
  N   N68       1.0  0.8950099999999999  0.7794100000000003  0.3665799999999999  1.0000
  O   O307      1.0  0.86796  0.7921500000000002  0.37846  1.0000
  O   O308      1.0  0.87208  0.7811800000000002  0.2983199999999999  1.0000
  N   N69       1.0  0.6024999999999998  0.7154500000000003  0.6283399999999998  1.0000
  O   O309      1.0  0.64181  0.72846  0.64138  1.0000
  O   O310      1.0  0.61384  0.68948  0.673  1.0000
  N   N70       1.0  0.59978  0.28313  0.62356  1.0000
  O   O311      1.0  0.60938  0.27607  0.68173  1.0000
  O   O312      1.0  0.64044  0.29035000000000005  0.6353  1.0000
  N   N71       1.0  0.10367999999999994  0.21776  0.6307  1.0000
  O   O313      1.0  0.14252999999999993  0.23100000000000004  0.64282  1.0000
  O   O314      1.0  0.11592999999999996  0.1926  0.67718  1.0000
  N   N72       1.0  0.10072999999999999  0.78126  0.62546  1.0000
  O   O315      1.0  0.11010000000000002  0.77334  0.68319  1.0000
  O   O316      1.0  0.1416  0.7883100000000002  0.63762  1.0000
  C   C229      1.0  0.55098  0.67913  0.52215  1.0000
  O   O317      1.0  0.58866  0.67412  0.53129  1.0000
  O   O318      1.0  0.5146799999999999  0.65064  0.48897999999999997  1.0000
  H   H65       1.0  0.52326  0.6289600000000001  0.47408999999999996  1.0000
  C   C230      1.0  0.55274  0.32369000000000003  0.52469  1.0000
  O   O319      1.0  0.55809  0.35165000000000013  0.55633  1.0000
  O   O320      1.0  0.56402  0.3259000000000001  0.48281  1.0000
  H   H66       1.0  0.57069  0.3520800000000001  0.47728  1.0000
  C   C231      1.0  0.05347999999999999  0.17957  0.5271599999999999  1.0000
  O   O321      1.0  0.09134  0.17473  0.53665  1.0000
  O   O322      1.0  0.018209999999999928  0.15051  0.4960299999999999  1.0000
  H   H67       1.0  0.027560000000000032  0.12859  0.48269  1.0000
  C   C232      1.0  0.05492  0.82328  0.52905  1.0000
  O   O323      1.0  0.06108999999999994  0.8507500000000001  0.5623399999999998  1.0000
  O   O324      1.0  0.06627000000000002  0.82611  0.48732  1.0000
  H   H68       1.0  0.07372  0.85236  0.48335  1.0000
  N   N73       1.0  0.52784  0.7274600000000002  0.63214  1.0000
  O   O325      1.0  0.57403  0.74076  0.68641  1.0000
  O   O326      1.0  0.5006  0.72003  0.64662  1.0000
  N   N74       1.0  0.51865  0.29533  0.61451  1.0000
  O   O327      1.0  0.49455999999999994  0.28336  0.63172  1.0000
  O   O328      1.0  0.54673  0.32496  0.64937  1.0000
  N   N75       1.0  0.028599999999999976  0.22983000000000003  0.63365  1.0000
  O   O329      1.0  0.07429000000000002  0.24408  0.68694  1.0000
  O   O330      1.0  0.0016099999999999656  0.22265000000000001  0.64865  1.0000
  N   N76       1.0  0.019970000000000036  0.7935900000000002  0.61714  1.0000
  O   O331      1.0  0.99552  0.78138  0.63363  1.0000
  O   O332      1.0  0.048919999999999984  0.82269  0.65375  1.0000
