data_image0
_chemical_formula_structural       Br44C224H84N16O208Zn12
_chemical_formula_sum              "Br44 C224 H84 N16 O208 Zn12"
_cell_length_a       31.92643
_cell_length_b       31.19332
_cell_length_c       25.349029999999996
_cell_angle_alpha    89.69601999999999
_cell_angle_beta     129.93585999999996
_cell_angle_gamma    90.66056999999999

_space_group_name_H-M_alt    "P 1"
_space_group_IT_number       1

loop_
  _space_group_symop_operation_xyz
  'x, y, z'

loop_
  _atom_site_type_symbol
  _atom_site_label
  _atom_site_symmetry_multiplicity
  _atom_site_fract_x
  _atom_site_fract_y
  _atom_site_fract_z
  _atom_site_occupancy
  Br  Br1       1.0  0.8523100000000002  0.89172  0.34162  1.0000
  Br  Br2       1.0  0.05880999999999999  0.93354  0.36771  1.0000
  Br  Br3       1.0  0.45073000000000013  0.43928  0.63968  1.0000
  Br  Br4       1.0  0.55852  0.43269  0.36951  1.0000
  Br  Br5       1.0  0.8502100000000002  0.97703  0.51208  1.0000
  Br  Br6       1.0  0.15270000000000003  0.97557  0.48866000000000004  1.0000
  Br  Br7       1.0  0.35658  0.4764099999999999  0.52532  1.0000
  Br  Br8       1.0  0.6521700000000002  0.47452  0.49206  1.0000
  Br  Br9       1.0  0.78717  0.81667  0.70632  1.0000
  Br  Br10      1.0  0.21044  0.82027  0.29374  1.0000
  Br  Br11      1.0  0.30907  0.33486  0.70373  1.0000
  Br  Br12      1.0  0.14753  0.89177  0.65804  1.0000
  Br  Br13      1.0  0.69339  0.33392  0.29571  1.0000
  Br  Br14      1.0  0.007299999999999974  0.69167  0.87121  1.0000
  Br  Br15      1.0  0.9908800000000002  0.6907699999999998  0.12997  1.0000
  Br  Br16      1.0  0.48566000000000015  0.17344  0.8707900000000001  1.0000
  Br  Br17      1.0  0.50665  0.1756  0.12946  1.0000
  Br  Br18      1.0  0.5726599999999997  0.5403599999999997  0.38173  1.0000
  Br  Br19      1.0  0.44330000000000014  0.54709  0.62973  1.0000
  Br  Br20      1.0  0.06954999999999997  0.04162  0.37975  1.0000
  Br  Br21      1.0  0.9368200000000002  0.04447  0.62261  1.0000
  Br  Br22      1.0  0.5679400000000002  0.70441  0.37183  1.0000
  Br  Br23      1.0  0.34482  0.3870099999999999  0.3426  1.0000
  Br  Br24      1.0  0.4367  0.71187  0.62406  1.0000
  Br  Br25      1.0  0.06739000000000005  0.20684999999999995  0.37476  1.0000
  Br  Br26      1.0  0.9332100000000002  0.20774  0.62676  1.0000
  Br  Br27      1.0  0.6074700000000002  0.63202  0.61138  1.0000
  Br  Br28      1.0  0.37622  0.63528  0.37619  1.0000
  Br  Br29      1.0  0.11031  0.13076  0.61511  1.0000
  Br  Br30      1.0  0.8829900000000003  0.1379  0.37998  1.0000
  Br  Br31      1.0  0.70147  0.67429  0.29286  1.0000
  Br  Br32      1.0  0.29941  0.67199  0.70583  1.0000
  Br  Br33      1.0  0.19987000000000005  0.17066  0.2956  1.0000
  Br  Br34      1.0  0.6462400000000003  0.3901499999999999  0.65802  1.0000
  Br  Br35      1.0  0.7970700000000002  0.17263  0.70488  1.0000
  Br  Br36      1.0  0.94047  0.83668  0.46613  1.0000
  Br  Br37      1.0  0.05991000000000001  0.8345699999999998  0.53493  1.0000
  Br  Br38      1.0  0.45291  0.35627  0.4701  1.0000
  Br  Br39      1.0  0.56478  0.32739  0.5401  1.0000
  Br  Br40      1.0  0.8516799999999999  0.88087  0.61624  1.0000
  Br  Br41      1.0  0.14749000000000007  0.87984  0.38313  1.0000
  Br  Br42      1.0  0.3922000000000001  0.35965  0.63979  1.0000
  Br  Br43      1.0  0.64782  0.3806  0.38464  1.0000
  Br  Br44      1.0  0.9417300000000003  0.93517  0.63263  1.0000
  C   C1        1.0  0.8083700000000001  0.8101  0.49759  1.0000
  C   C2        1.0  0.53312  0.7538999999999998  0.06907  1.0000
  C   C3        1.0  0.8424000000000004  0.15624  0.49924  1.0000
  C   C4        1.0  0.5945399999999998  0.59513  0.4959799999999999  1.0000
  C   C5        1.0  0.4102100000000001  0.60059  0.50555  1.0000
  C   C6        1.0  0.09443000000000004  0.09552999999999998  0.49641  1.0000
  C   C7        1.0  0.9096100000000001  0.10081  0.5036  1.0000
  C   C8        1.0  0.64363  0.61071  0.57583  1.0000
  C   C9        1.0  0.35446000000000005  0.61052  0.42730000000000007  1.0000
  C   C10       1.0  0.14452000000000007  0.11009  0.57649  1.0000
  C   C11       1.0  0.8554600000000001  0.11220999999999999  0.42385000000000006  1.0000
  C   C12       1.0  0.55539  0.63318  0.44060000000000005  1.0000
  C   C13       1.0  0.9664199999999998  0.2513  0.9310299999999999  1.0000
  C   C14       1.0  0.4467  0.64404  0.55173  1.0000
  C   C15       1.0  0.05581000000000003  0.13439  0.4430200000000001  1.0000
  C   C16       1.0  0.9464900000000003  0.14295  0.55419  1.0000
  C   C17       1.0  0.062099999999999954  0.93896  0.50103  1.0000
  C   C18       1.0  0.9378700000000001  0.93923  0.49891  1.0000
  C   C19       1.0  0.56145  0.43784  0.50131  1.0000
  C   C20       1.0  0.43524  0.44242  0.49865  1.0000
  C   C21       1.0  0.44194  0.56395  0.50105  1.0000
  C   C22       1.0  0.5624600000000001  0.55918  0.4994100000000001  1.0000
  C   C23       1.0  0.9419  0.06402  0.50069  1.0000
  C   C24       1.0  0.03518  0.25069  0.06919  1.0000
  C   C25       1.0  0.062269999999999985  0.05945  0.49948  1.0000
  C   C26       1.0  0.81728  0.74995  0.63424  1.0000
  C   C27       1.0  0.18192000000000005  0.75059  0.36558  1.0000
  C   C28       1.0  0.31846  0.25109  0.6342  1.0000
  C   C29       1.0  0.68144  0.25101  0.3656  1.0000
  C   C30       1.0  0.59659  0.77835  0.252  1.0000
  C   C31       1.0  0.40182  0.78043  0.74876  1.0000
  C   C32       1.0  0.09843  0.27843  0.25099  1.0000
  C   C33       1.0  0.90378  0.2782099999999999  0.74901  1.0000
  C   C34       1.0  0.56288  0.78104  0.17998  1.0000
  C   C35       1.0  0.90426  0.8282299999999998  0.54448  1.0000
  C   C36       1.0  0.43441000000000013  0.78351  0.82066  1.0000
  C   C37       1.0  0.06509  0.2802199999999999  0.17895  1.0000
  C   C38       1.0  0.9378000000000002  0.2799299999999999  0.82119  1.0000
  C   C39       1.0  0.57072  0.7528  0.14409  1.0000
  C   C40       1.0  0.42606000000000005  0.75453  0.8558299999999999  1.0000
  C   C41       1.0  0.07228000000000005  0.25035  0.14416  1.0000
  C   C42       1.0  0.9291400000000002  0.25096  0.85605  1.0000
  C   C43       1.0  0.61251  0.72224  0.179  1.0000
  C   C44       1.0  0.38474000000000014  0.7229299999999997  0.82027  1.0000
  C   C45       1.0  0.11296000000000003  0.219  0.18017  1.0000
  C   C46       1.0  0.09584  0.82688  0.4566  1.0000
  C   C47       1.0  0.8865800000000003  0.22040999999999994  0.82011  1.0000
  C   C48       1.0  0.64813  0.72028  0.25102  1.0000
  C   C49       1.0  0.35038  0.72048  0.7484  1.0000
  C   C50       1.0  0.14803000000000005  0.21777  0.25219  1.0000
  C   C51       1.0  0.85104  0.21914  0.74811  1.0000
  C   C52       1.0  0.5822300000000002  0.8064  0.28573  1.0000
  C   C53       1.0  0.41721000000000014  0.80861  0.71575  1.0000
  C   C54       1.0  0.08567000000000002  0.30881  0.28384  1.0000
  C   C55       1.0  0.9182000000000001  0.30742  0.7159  1.0000
  C   C56       1.0  0.7773699999999999  0.90648  0.4828299999999999  1.0000
  C   C57       1.0  0.39398  0.3241399999999999  0.5123  1.0000
  C   C58       1.0  0.22319  0.90607  0.51651  1.0000
  C   C59       1.0  0.30103  0.40276999999999996  0.53414  1.0000
  C   C60       1.0  0.72338  0.40603  0.51814  1.0000
  C   C61       1.0  0.75057  0.85481  0.36003  1.0000
  C   C62       1.0  0.24957000000000001  0.85596  0.64039  1.0000
  C   C63       1.0  0.24018999999999996  0.38002  0.37876  1.0000
  C   C64       1.0  0.75048  0.35516  0.64143  1.0000
  C   C65       1.0  0.8081700000000003  0.93548  0.37798  1.0000
  C   C66       1.0  0.19216999999999995  0.9361899999999997  0.62148  1.0000
  C   C67       1.0  0.30748  0.4451  0.38225  1.0000
  C   C68       1.0  0.59695  0.3254  0.4574099999999999  1.0000
  C   C69       1.0  0.69246  0.43489  0.62409  1.0000
  C   C70       1.0  0.8655  0.79399  0.85839  1.0000
  C   C71       1.0  0.13025  0.79855  0.14084  1.0000
  C   C72       1.0  0.38602  0.31679  0.85836  1.0000
  C   C73       1.0  0.61035  0.31774  0.14014  1.0000
  C   C74       1.0  0.51914  0.8139199999999998  0.14132  1.0000
  C   C75       1.0  0.47775999999999996  0.8173  0.8600499999999999  1.0000
  C   C76       1.0  0.022630000000000015  0.31397  0.13919  1.0000
  C   C77       1.0  0.9827300000000001  0.31249999999999994  0.86108  1.0000
  C   C78       1.0  0.91823  0.6953399999999997  0.71548  1.0000
  C   C79       1.0  0.93558  0.8611  0.53178  1.0000
  C   C80       1.0  0.08047  0.69603  0.28555  1.0000
  C   C81       1.0  0.42066  0.19555  0.71932  1.0000
  C   C82       1.0  0.5844700000000003  0.19145  0.28518  1.0000
  C   C83       1.0  0.71646  0.59118  0.50484  1.0000
  C   C84       1.0  0.3074  0.59156  0.5408  1.0000
  C   C85       1.0  0.21333999999999997  0.09093999999999997  0.499  1.0000
  C   C86       1.0  0.7952200000000003  0.08948  0.51355  1.0000
  C   C87       1.0  0.6409  0.61796  0.39424  1.0000
  C   C88       1.0  0.38472  0.6304699999999998  0.62913  1.0000
  C   C89       1.0  0.13703  0.11985999999999997  0.39123  1.0000
  C   C90       1.0  0.06471999999999999  0.85965  0.46903  1.0000
  C   C91       1.0  0.8714499999999998  0.12364  0.616  1.0000
  C   C92       1.0  0.7456000000000003  0.63254  0.62947  1.0000
  C   C93       1.0  0.2590000000000001  0.61422  0.40361  1.0000
  C   C94       1.0  0.2460200000000001  0.13061  0.62865  1.0000
  C   C95       1.0  0.75342  0.12267  0.37968  1.0000
  C   C96       1.0  0.6768100000000002  0.57234  0.62549  1.0000
  C   C97       1.0  0.32426  0.5707899999999998  0.38201  1.0000
  C   C98       1.0  0.17753999999999995  0.07094999999999999  0.62422  1.0000
  C   C99       1.0  0.82531  0.07144  0.37886  1.0000
  C   C100      1.0  0.58953  0.71118  0.49314  1.0000
  C   C101      1.0  0.4311000000000002  0.36414  0.52304  1.0000
  C   C102      1.0  0.39546  0.71821  0.49094  1.0000
  C   C103      1.0  0.09240999999999996  0.2117  0.49865  1.0000
  C   C104      1.0  0.89987  0.21902  0.49796  1.0000
  C   C105      1.0  0.5173700000000002  0.6178299999999999  0.36316  1.0000
  C   C106      1.0  0.49157  0.62823  0.62755  1.0000
  C   C107      1.0  0.01622  0.12002  0.36514  1.0000
  C   C108      1.0  0.98763  0.12536  0.62968  1.0000
  C   C109      1.0  0.6178000000000002  0.69087  0.13968  1.0000
  C   C110      1.0  0.37883000000000006  0.6907799999999997  0.8586700000000002  1.0000
  C   C111      1.0  0.11764  0.18613  0.14199  1.0000
  C   C112      1.0  0.19189  0.81009  0.50309  1.0000
  C   C113      1.0  0.56617  0.35674  0.47185000000000005  1.0000
  C   C114      1.0  0.8804300000000004  0.18827  0.8583200000000001  1.0000
  C   C115      1.0  0.51045  0.6459899999999997  0.44125  1.0000
  C   C116      1.0  0.48473999999999995  0.67092  0.54625  1.0000
  C   C117      1.0  0.01267999999999999  0.1474  0.44654  1.0000
  C   C118      1.0  0.9884200000000002  0.16965  0.55539  1.0000
  C   C119      1.0  0.69341  0.68524  0.62628  1.0000
  C   C120      1.0  0.28333000000000014  0.67104  0.36684  1.0000
  C   C121      1.0  0.1961  0.18433  0.62801  1.0000
  C   C122      1.0  0.79137  0.17964999999999995  0.3662  1.0000
  C   C123      1.0  0.91847  0.78109  0.53844  1.0000
  C   C124      1.0  0.8135800000000002  0.85156  0.41378000000000004  1.0000
  C   C125      1.0  0.08172999999999998  0.77957  0.46399  1.0000
  C   C126      1.0  0.3811900000000001  0.28948  0.45779  1.0000
  C   C127      1.0  0.58329  0.2773  0.46335  1.0000
  C   C128      1.0  0.9266800000000002  0.82582  0.62001  1.0000
  C   C129      1.0  0.07312000000000005  0.8233  0.38089  1.0000
  C   C130      1.0  0.4295399999999999  0.29492  0.5776  1.0000
  C   C131      1.0  0.5741400000000002  0.3228  0.3814  1.0000
  C   C132      1.0  0.9974700000000002  0.86167  0.59649  1.0000
  C   C133      1.0  0.0030199999999999927  0.85969  0.40446  1.0000
  C   C134      1.0  0.48777  0.36838  0.59785  1.0000
  C   C135      1.0  0.18656  0.85193  0.58672  1.0000
  C   C136      1.0  0.50501  0.3564299999999999  0.40677  1.0000
  C   C137      1.0  0.8159200000000002  0.80951  0.38267  1.0000
  C   C138      1.0  0.18442999999999996  0.80992  0.61857  1.0000
  C   C139      1.0  0.27618  0.32834  0.35661  1.0000
  C   C140      1.0  0.68636  0.30866  0.62073  1.0000
  C   C141      1.0  0.2988600000000001  0.36423  0.41209999999999997  1.0000
  C   C142      1.0  0.6874100000000002  0.35086  0.5882  1.0000
  C   C143      1.0  0.83676  0.88807  0.52632  1.0000
  C   C144      1.0  0.16336  0.8873999999999997  0.47356000000000004  1.0000
  C   C145      1.0  0.35143  0.38352  0.54557  1.0000
  C   C146      1.0  0.6636700000000002  0.38703  0.47512  1.0000
  C   C147      1.0  0.8398900000000002  0.84381  0.49457  1.0000
  C   C148      1.0  0.30794  0.31036999999999987  0.49702  1.0000
  C   C149      1.0  0.1602700000000001  0.84339  0.50602  1.0000
  C   C150      1.0  0.33736  0.34513  0.49158  1.0000
  C   C151      1.0  0.66098  0.3427  0.50719  1.0000
  C   C152      1.0  0.9005  0.9048799999999998  0.49519  1.0000
  C   C153      1.0  0.09963000000000004  0.9042899999999998  0.50496  1.0000
  C   C154      1.0  0.3976  0.40784  0.49459  1.0000
  C   C155      1.0  0.5996  0.40256  0.5065  1.0000
  C   C156      1.0  0.8440400000000002  0.89469  0.41355  1.0000
  C   C157      1.0  0.15615000000000007  0.8948  0.58648  1.0000
  C   C158      1.0  0.33725  0.40141  0.41397  1.0000
  C   C159      1.0  0.69237  0.3099399999999999  0.50378  1.0000
  C   C160      1.0  0.65636  0.39349  0.58806  1.0000
  C   C161      1.0  0.8802500000000001  0.9206799999999998  0.5361  1.0000
  C   C162      1.0  0.1204  0.91972  0.46405  1.0000
  C   C163      1.0  0.3867200000000001  0.4202  0.5458  1.0000
  C   C164      1.0  0.62028  0.41859  0.46582  1.0000
  C   C165      1.0  0.6819  0.74941  0.36578  1.0000
  C   C166      1.0  0.31788  0.74982  0.63445  1.0000
  C   C167      1.0  0.18187  0.2492  0.36581  1.0000
  C   C168      1.0  0.8181100000000002  0.24951  0.63443  1.0000
  C   C169      1.0  0.8458700000000002  0.77521  0.74846  1.0000
  C   C170      1.0  0.64159  0.74906  0.28895  1.0000
  C   C171      1.0  0.15151  0.77796  0.25127  1.0000
  C   C172      1.0  0.3549  0.28454  0.7477  1.0000
  C   C173      1.0  0.64395  0.2848099999999999  0.25168  1.0000
  C   C174      1.0  0.8795300000000003  0.77134  0.82017  1.0000
  C   C175      1.0  0.11713000000000003  0.77441  0.17941  1.0000
  C   C176      1.0  0.38934  0.28311  0.81988  1.0000
  C   C177      1.0  0.60767  0.28379999999999994  0.17938  1.0000
  C   C178      1.0  0.9260000000000003  0.7453099999999998  0.85584  1.0000
  C   C179      1.0  0.07105  0.74711  0.14408  1.0000
  C   C180      1.0  0.4284400000000001  0.25058  0.85589  1.0000
  C   C181      1.0  0.35733  0.75008  0.71124  1.0000
  C   C182      1.0  0.5674  0.25137  0.14391  1.0000
  C   C183      1.0  0.93848  0.72194  0.8206  1.0000
  C   C184      1.0  0.05916000000000001  0.72285  0.17973  1.0000
  C   C185      1.0  0.4349400000000001  0.22045  0.821  1.0000
  C   C186      1.0  0.5618200000000002  0.2206  0.1795  1.0000
  C   C187      1.0  0.9031199999999999  0.7227  0.74861  1.0000
  C   C188      1.0  0.09496000000000002  0.7237599999999997  0.25166  1.0000
  C   C189      1.0  0.40275  0.2226  0.74946  1.0000
  C   C190      1.0  0.59678  0.22176999999999994  0.25145  1.0000
  C   C191      1.0  0.85594  0.74953  0.71105  1.0000
  C   C192      1.0  0.14208  0.24821  0.28901  1.0000
  C   C193      1.0  0.14226  0.75107  0.28887  1.0000
  C   C194      1.0  0.35904  0.25267  0.71099  1.0000
  C   C195      1.0  0.64028  0.25266  0.28891  1.0000
  C   C196      1.0  0.03314000000000001  0.74623  0.06914  1.0000
  C   C197      1.0  0.9639500000000002  0.74533  0.9308  1.0000
  C   C198      1.0  0.53108  0.24949  0.06904  1.0000
  C   C199      1.0  0.4643400000000001  0.24898  0.93075  1.0000
  C   C200      1.0  0.65879  0.6113  0.46695  1.0000
  C   C201      1.0  0.35707  0.61575  0.55497  1.0000
  C   C202      1.0  0.15675000000000003  0.1119  0.46457  1.0000
  C   C203      1.0  0.85823  0.24881  0.71118  1.0000
  C   C204      1.0  0.8493  0.11335999999999997  0.54205  1.0000
  C   C205      1.0  0.6211900000000002  0.57702  0.46623000000000003  1.0000
  C   C206      1.0  0.3906400000000002  0.5826  0.54652  1.0000
  C   C207      1.0  0.11949000000000003  0.07769999999999998  0.46461  1.0000
  C   C208      1.0  0.8869800000000002  0.08151  0.53962  1.0000
  C   C209      1.0  0.68431  0.64611  0.58184  1.0000
  C   C210      1.0  0.3117700000000001  0.63836  0.42679  1.0000
  C   C211      1.0  0.18532  0.14532  0.58231  1.0000
  C   C212      1.0  0.81201  0.14281  0.41913  1.0000
  C   C213      1.0  0.6910700000000002  0.68972  0.5017  1.0000
  C   C214      1.0  0.46356000000000014  0.75518  0.93086  1.0000
  C   C215      1.0  0.31097  0.68968  0.50287  1.0000
  C   C216      1.0  0.19124  0.18973  0.50199  1.0000
  C   C217      1.0  0.8092000000000003  0.18962999999999994  0.49916000000000005  1.0000
  C   C218      1.0  0.59482  0.6732299999999998  0.45751  1.0000
  C   C219      1.0  0.40355000000000013  0.6792599999999998  0.53729  1.0000
  C   C220      1.0  0.09558999999999998  0.17422  0.46018  1.0000
  C   C221      1.0  0.90314  0.17835  0.53854  1.0000
  C   C222      1.0  0.6580400000000002  0.65568  0.50222  1.0000
  C   C223      1.0  0.34498  0.65614  0.50514  1.0000
  C   C224      1.0  0.15815  0.15579  0.50253  1.0000
  H   H1        1.0  0.6469500000000002  0.55285  0.50244  1.0000
  H   H2        1.0  0.29082  0.91604  0.52608  1.0000
  H   H3        1.0  0.2566100000000001  0.4074  0.56549  1.0000
  H   H4        1.0  0.79108  0.41637  0.52799  1.0000
  H   H5        1.0  0.67739  0.85289  0.33598  1.0000
  H   H6        1.0  0.3227  0.85341  0.66456  1.0000
  H   H7        1.0  0.17679000000000006  0.38293  0.378  1.0000
  H   H8        1.0  0.8233800000000002  0.353  0.6647  1.0000
  H   H9        1.0  0.73494  0.96353  0.30606  1.0000
  H   H10       1.0  0.26559  0.9654599999999998  0.69199  1.0000
  H   H11       1.0  0.25003  0.48744  0.35935  1.0000
  H   H12       1.0  0.36177  0.55805  0.51194  1.0000
  H   H13       1.0  0.766  0.46403  0.69455  1.0000
  H   H14       1.0  0.8560099999999999  0.8503399999999998  0.8880399999999999  1.0000
  H   H15       1.0  0.13907  0.85602  0.11201  1.0000
  H   H16       1.0  0.4256100000000001  0.36201  0.93274  1.0000
  H   H17       1.0  0.57026  0.363  0.06634  1.0000
  H   H18       1.0  0.48664  0.86314  0.07424  1.0000
  H   H19       1.0  0.50928  0.8663999999999997  0.92757  1.0000
  H   H20       1.0  0.9918100000000002  0.36206  0.07029  1.0000
  H   H21       1.0  0.017499999999999964  0.36053  0.9307599999999999  1.0000
  H   H22       1.0  0.9473600000000004  0.6918999999999997  0.66485  1.0000
  H   H23       1.0  0.14518000000000006  0.05327  0.50019  1.0000
  H   H24       1.0  0.050850000000000006  0.69196  0.33564  1.0000
  H   H25       1.0  0.48043000000000013  0.18253  0.71553  1.0000
  H   H26       1.0  0.5560000000000003  0.18321  0.3362  1.0000
  H   H27       1.0  0.78316  0.58547  0.51188  1.0000
  H   H28       1.0  0.24653  0.59118  0.54586  1.0000
  H   H29       1.0  0.27823  0.08519  0.50227  1.0000
  H   H30       1.0  0.73212  0.08291  0.51389  1.0000
  H   H31       1.0  0.6275000000000002  0.65753  0.32188  1.0000
  H   H32       1.0  0.38666  0.67293  0.68998  1.0000
  H   H33       1.0  0.12239  0.1608  0.31964  1.0000
  H   H34       1.0  0.8616300000000003  0.05617  0.50538  1.0000
  H   H35       1.0  0.8755  0.16441  0.68039  1.0000
  H   H36       1.0  0.81845  0.6342099999999998  0.65153  1.0000
  H   H37       1.0  0.18208  0.61908  0.36978  1.0000
  H   H38       1.0  0.31488  0.12336999999999997  0.64322  1.0000
  H   H39       1.0  0.68436  0.11744999999999997  0.36692  1.0000
  H   H40       1.0  0.70458  0.5400499999999998  0.71202  1.0000
  H   H41       1.0  0.26705  0.54612  0.28657  1.0000
  H   H42       1.0  0.20504  0.03653  0.70897  1.0000
  H   H43       1.0  0.79717  0.0369  0.29406  1.0000
  H   H44       1.0  0.58672  0.77532  0.50413  1.0000
  H   H45       1.0  0.56946  0.86633  0.30203  1.0000
  H   H46       1.0  0.4054200000000001  0.78165  0.48252999999999996  1.0000
  H   H47       1.0  0.09149000000000002  0.27567  0.51261  1.0000
  H   H48       1.0  0.9116199999999999  0.28304  0.49633  1.0000
  H   H49       1.0  0.50138  0.61284  0.27204  1.0000
  H   H50       1.0  0.52539  0.62568  0.72764  1.0000
  H   H51       1.0  0.99789  0.11617  0.27252  1.0000
  H   H52       1.0  0.012989999999999993  0.11826  0.72574  1.0000
  H   H53       1.0  0.66424  0.66755  0.11852000000000001  1.0000
  H   H54       1.0  0.3311100000000001  0.66527  0.87726  1.0000
  H   H55       1.0  0.16387  0.15998  0.12236  1.0000
  H   H56       1.0  0.4313200000000001  0.86861  0.69986  1.0000
  H   H57       1.0  0.83326  0.16384  0.87845  1.0000
  H   H58       1.0  0.48322  0.6946  0.37151  1.0000
  H   H59       1.0  0.5462800000000002  0.7154599999999998  0.59533  1.0000
  H   H60       1.0  0.9851  0.19705  0.37827  1.0000
  H   H61       1.0  0.05451000000000002  0.2099  0.61201  1.0000
  H   H62       1.0  0.7013700000000003  0.74896  0.64376  1.0000
  H   H63       1.0  0.2554  0.73044  0.33003  1.0000
  H   H64       1.0  0.21111  0.24766  0.64975  1.0000
  H   H65       1.0  0.76537  0.24048  0.33636  1.0000
  H   H66       1.0  0.9679600000000003  0.72969  0.58696  1.0000
  H   H67       1.0  0.07601  0.37031  0.29788  1.0000
  H   H68       1.0  0.03085000000000001  0.72795  0.41725  1.0000
  H   H69       1.0  0.37359  0.22653  0.43208  1.0000
  H   H70       1.0  0.5339200000000001  0.22504  0.4151000000000001  1.0000
  H   H71       1.0  0.92087  0.7972699999999998  0.68673  1.0000
  H   H72       1.0  0.017480000000000013  0.83818  0.2799  1.0000
  H   H73       1.0  0.44216  0.26278  0.65564  1.0000
  H   H74       1.0  0.5184  0.33839  0.2807  1.0000
  H   H75       1.0  0.06470999999999999  0.89057  0.68114  1.0000
  H   H76       1.0  0.9359400000000002  0.8885399999999998  0.32091  1.0000
  H   H77       1.0  0.53367  0.36097  0.70091  1.0000
  H   H78       1.0  0.9320400000000004  0.3680499999999999  0.7019  1.0000
  H   H79       1.0  0.43694  0.38593  0.32586  1.0000
  H   H80       1.0  0.7883900000000003  0.74836  0.35251  1.0000
  H   H81       1.0  0.21225  0.74922  0.64953  1.0000
  H   H82       1.0  0.25424  0.26643  0.3284  1.0000
  H   H83       1.0  0.71343  0.2477  0.64946  1.0000
  H   H84       1.0  0.7090500000000002  0.91543  0.4715500000000001  1.0000
  N   N1        1.0  0.55254  0.7550499999999998  0.03481  1.0000
  N   N2        1.0  0.01623  0.70847  0.03457  1.0000
  N   N3        1.0  0.51924  0.249  0.96853  1.0000
  N   N4        1.0  0.47617  0.25002  0.03129  1.0000
  N   N5        1.0  0.015030000000000003  0.7834799999999997  0.03358  1.0000
  N   N6        1.0  0.9816700000000003  0.70802  0.96629  1.0000
  N   N7        1.0  0.5521500000000003  0.24899  0.0367  1.0000
  N   N8        1.0  0.4432300000000001  0.24952  0.96308  1.0000
  N   N9        1.0  0.5182200000000002  0.7553  0.96663  1.0000
  N   N10       1.0  0.05506  0.25026  0.03546  1.0000
  N   N11       1.0  0.021109999999999945  0.25022  0.9672699999999999  1.0000
  N   N12       1.0  0.44413  0.75437  0.96513  1.0000
  N   N13       1.0  0.47846  0.75341  0.03329  1.0000
  N   N14       1.0  0.9465700000000002  0.25194  0.96478  1.0000
  N   N15       1.0  0.98048  0.25132  0.03293  1.0000
  N   N16       1.0  0.9812400000000002  0.78304  0.96544  1.0000
  O   O1        1.0  0.82245  0.77015  0.50001  1.0000
  O   O2        1.0  0.51763  0.54631  0.44254999999999994  1.0000
  O   O3        1.0  0.05948000000000003  0.7142  0.31445  1.0000
  O   O4        1.0  0.39393  0.16424  0.68439  1.0000
  O   O5        1.0  0.47153  0.20368999999999995  0.73723  1.0000
  O   O6        1.0  0.59186  0.15308  0.28538  1.0000
  O   O7        1.0  0.56292  0.20686  0.31497  1.0000
  O   O8        1.0  0.73515  0.56451  0.55021  1.0000
  O   O9        1.0  0.74704  0.60104  0.48408  1.0000
  O   O10       1.0  0.29926  0.55337  0.52656  1.0000
  O   O11       1.0  0.27584  0.61093  0.55449  1.0000
  O   O12       1.0  0.2322300000000001  0.06326  0.54301  1.0000
  O   O13       1.0  0.9823699999999999  0.04631  0.55745  1.0000
  O   O14       1.0  0.2426800000000001  0.10137  0.47667000000000004  1.0000
  O   O15       1.0  0.7780100000000001  0.05888  0.47443  1.0000
  O   O16       1.0  0.7661200000000002  0.10114  0.5354  1.0000
  O   O17       1.0  0.6355300000000003  0.58698  0.36083  1.0000
  O   O18       1.0  0.64084  0.6583099999999997  0.37049  1.0000
  O   O19       1.0  0.41377000000000014  0.6066599999999998  0.67838  1.0000
  O   O20       1.0  0.36666  0.66747  0.63946  1.0000
  O   O21       1.0  0.12926  0.08953  0.35534  1.0000
  O   O22       1.0  0.13799000000000006  0.16055  0.36927  1.0000
  O   O23       1.0  0.8901800000000002  0.09541999999999998  0.65918  1.0000
  O   O24       1.0  0.017629999999999976  0.04631  0.44254999999999994  1.0000
  O   O25       1.0  0.8589000000000004  0.16216  0.63047  1.0000
  O   O26       1.0  0.76737  0.61662  0.68596  1.0000
  O   O27       1.0  0.77996  0.6452  0.61609  1.0000
  O   O28       1.0  0.25473  0.57519  0.40107  1.0000
  O   O29       1.0  0.21355000000000005  0.63791  0.38274  1.0000
  O   O30       1.0  0.26841  0.11614  0.68622  1.0000
  O   O31       1.0  0.27926  0.13944  0.61229  1.0000
  O   O32       1.0  0.73042  0.10405  0.3247  1.0000
  O   O33       1.0  0.72086  0.13305  0.39642  1.0000
  O   O34       1.0  0.7017800000000002  0.54831  0.61691  1.0000
  O   O35       1.0  0.4249000000000001  0.54628  0.44244  1.0000
  O   O36       1.0  0.6812400000000002  0.5656299999999997  0.68368  1.0000
  O   O37       1.0  0.33158  0.53588  0.40797  1.0000
  O   O38       1.0  0.2851200000000001  0.5745199999999998  0.3103  1.0000
  O   O39       1.0  0.20309  0.0482  0.61501  1.0000
  O   O40       1.0  0.18138  0.0622  0.68157  1.0000
  O   O41       1.0  0.80428  0.04592  0.39246  1.0000
  O   O42       1.0  0.8187400000000002  0.06406  0.31934  1.0000
  O   O43       1.0  0.58166  0.70477  0.53343  1.0000
  O   O44       1.0  0.59123  0.75423  0.47782  1.0000
  O   O45       1.0  0.3760899999999999  0.7131499999999997  0.43162999999999996  1.0000
  O   O46       1.0  0.5751000000000002  0.54628  0.55756  1.0000
  O   O47       1.0  0.4125800000000001  0.76005  0.5175  1.0000
  O   O48       1.0  0.08555000000000001  0.20478  0.53986  1.0000
  O   O49       1.0  0.09463000000000002  0.25494  0.48463  1.0000
  O   O50       1.0  0.88593  0.21601  0.44083  1.0000
  O   O51       1.0  0.91525  0.26018  0.52761  1.0000
  O   O52       1.0  0.47480000000000017  0.59795  0.33808  1.0000
  O   O53       1.0  0.53026  0.6244  0.32041  1.0000
  O   O54       1.0  0.52992  0.60761  0.64145  1.0000
  O   O55       1.0  0.49246999999999996  0.63772  0.68195  1.0000
  O   O56       1.0  0.9736  0.10049  0.34084  1.0000
  O   O57       1.0  0.9249000000000003  0.04628  0.44244  1.0000
  O   O58       1.0  0.027619999999999992  0.12721  0.321  1.0000
  O   O59       1.0  0.027920000000000014  0.10582999999999997  0.64726  1.0000
  O   O60       1.0  0.98186  0.1309  0.67937  1.0000
  O   O61       1.0  0.5801000000000002  0.66613  0.09942  1.0000
  O   O62       1.0  0.66562  0.69013  0.14823  1.0000
  O   O63       1.0  0.4166000000000001  0.66683  0.8996400000000001  1.0000
  O   O64       1.0  0.3301799999999999  0.68828  0.84813  1.0000
  O   O65       1.0  0.07923000000000002  0.16186  0.10194  1.0000
  O   O66       1.0  0.16571  0.18344  0.15133  1.0000
  O   O67       1.0  0.91751  0.16342999999999994  0.89784  1.0000
  O   O68       1.0  0.0751  0.04628  0.55756  1.0000
  O   O69       1.0  0.8325  0.18691  0.84954  1.0000
  O   O70       1.0  0.49805000000000016  0.62231  0.46760999999999997  1.0000
  O   O71       1.0  0.47523  0.67978  0.39968  1.0000
  O   O72       1.0  0.4690200000000001  0.68451  0.49164  1.0000
  O   O73       1.0  0.53107  0.69124  0.60558  1.0000
  O   O74       1.0  0.0008499999999999696  0.12336  0.47318999999999994  1.0000
  O   O75       1.0  0.9786400000000002  0.18241  0.40806  1.0000
  O   O76       1.0  0.9764300000000005  0.18509  0.50366  1.0000
  O   O77       1.0  0.03508000000000002  0.187  0.618  1.0000
  O   O78       1.0  0.70664  0.6789999999999998  0.68302  1.0000
  O   O79       1.0  0.77015  0.82243  0.50003  1.0000
  O   O80       1.0  0.69492  0.72744  0.60933  1.0000
  O   O81       1.0  0.26251000000000013  0.65844  0.3089  1.0000
  O   O82       1.0  0.27465  0.7135  0.37415  1.0000
  O   O83       1.0  0.20835  0.17799  0.68418  1.0000
  O   O84       1.0  0.20123000000000005  0.22622999999999993  0.61328  1.0000
  O   O85       1.0  0.77717  0.1717  0.30939  1.0000
  O   O86       1.0  0.7806300000000003  0.22052  0.37663  1.0000
  O   O87       1.0  0.8938200000000002  0.76246  0.48357000000000006  1.0000
  O   O88       1.0  0.9623100000000003  0.75939  0.59738  1.0000
  O   O89       1.0  0.10790999999999994  0.76089  0.51885  1.0000
  O   O90       1.0  0.22985  0.82243  0.49997  1.0000
  O   O91       1.0  0.036209999999999985  0.75777  0.40617  1.0000
  O   O92       1.0  0.37002  0.29907  0.40332  1.0000
  O   O93       1.0  0.3827200000000001  0.24535  0.47082000000000007  1.0000
  O   O94       1.0  0.60949  0.25817  0.51796  1.0000
  O   O95       1.0  0.53873  0.25529  0.40475  1.0000
  O   O96       1.0  0.96642  0.84627  0.66723  1.0000
  O   O97       1.0  0.9030200000000005  0.79647  0.63621  1.0000
  O   O98       1.0  0.09397999999999997  0.79761  0.36763  1.0000
  O   O99       1.0  0.027320000000000007  0.84528  0.32571  1.0000
  O   O100      1.0  0.4723700000000001  0.28077  0.59448  1.0000
  O   O101      1.0  0.27015  0.32243  0.50003  1.0000
  O   O102      1.0  0.41332  0.28061  0.61436  1.0000
  O   O103      1.0  0.59495  0.29755  0.36746  1.0000
  O   O104      1.0  0.5282200000000002  0.34491  0.32665  1.0000
  O   O105      1.0  0.022340000000000023  0.82784  0.61517  1.0000
  O   O106      1.0  0.025640000000000003  0.89704  0.63921  1.0000
  O   O107      1.0  0.97773  0.82563  0.38535  1.0000
  O   O108      1.0  0.97506  0.89523  0.36301  1.0000
  O   O109      1.0  0.5283000000000002  0.38129  0.60695  1.0000
  O   O110      1.0  0.49465000000000015  0.35722  0.65659  1.0000
  O   O111      1.0  0.4802400000000001  0.3221  0.38662  1.0000
  O   O112      1.0  0.17755  0.77015  0.49999  1.0000
  O   O113      1.0  0.72985  0.32243  0.49997  1.0000
  O   O114      1.0  0.47634  0.3924499999999999  0.36742  1.0000
  O   O115      1.0  0.83553  0.80774  0.35444  1.0000
  O   O116      1.0  0.78674  0.77327  0.37665  1.0000
  O   O117      1.0  0.16539000000000006  0.80795  0.64753  1.0000
  O   O118      1.0  0.21329  0.77407  0.62442  1.0000
  O   O119      1.0  0.25517  0.33741  0.29715  1.0000
  O   O120      1.0  0.27025  0.28607  0.36924  1.0000
  O   O121      1.0  0.67237  0.30747  0.65557  1.0000
  O   O122      1.0  0.713  0.27244  0.623  1.0000
  O   O123      1.0  0.7252200000000002  0.72385  0.39814  1.0000
  O   O124      1.0  0.27478  0.72385  0.60186  1.0000
  O   O125      1.0  0.22522  0.22384999999999994  0.39814  1.0000
  O   O126      1.0  0.7747800000000002  0.22384999999999994  0.60186  1.0000
  O   O127      1.0  0.67291  0.77614  0.39815  1.0000
  O   O128      1.0  0.32709  0.77614  0.60185  1.0000
  O   O129      1.0  0.17291000000000004  0.27614  0.39815  1.0000
  O   O130      1.0  0.82709  0.27614  0.60185  1.0000
  O   O131      1.0  0.7298400000000003  0.6775499999999998  0.49999  1.0000
  O   O132      1.0  0.3224500000000001  0.27015  0.50001  1.0000
  O   O133      1.0  0.2701600000000001  0.6775499999999998  0.50001  1.0000
  O   O134      1.0  0.22984000000000002  0.17755  0.49999  1.0000
  O   O135      1.0  0.7701600000000001  0.17755  0.50001  1.0000
  O   O136      1.0  0.67753  0.72983  0.5  1.0000
  O   O137      1.0  0.32247  0.72983  0.5  1.0000
  O   O138      1.0  0.17753  0.22983  0.5  1.0000
  O   O139      1.0  0.82247  0.22983  0.5  1.0000
  O   O140      1.0  0.8270700000000002  0.72385  0.60187  1.0000
  O   O141      1.0  0.17293  0.72385  0.39813  1.0000
  O   O142      1.0  0.32707000000000014  0.22384999999999994  0.60187  1.0000
  O   O143      1.0  0.6775500000000002  0.27015  0.49999  1.0000
  O   O144      1.0  0.6729300000000003  0.22384999999999994  0.39813  1.0000
  O   O145      1.0  0.77477  0.77613  0.60188  1.0000
  O   O146      1.0  0.22523000000000007  0.77613  0.39812  1.0000
  O   O147      1.0  0.27477  0.27613  0.60188  1.0000
  O   O148      1.0  0.72523  0.27613  0.39812  1.0000
  O   O149      1.0  0.07508  0.9536999999999998  0.55757  1.0000
  O   O150      1.0  0.9249200000000001  0.9536999999999998  0.44243000000000005  1.0000
  O   O151      1.0  0.57508  0.4537  0.55757  1.0000
  O   O152      1.0  0.4249200000000001  0.4537  0.44243000000000005  1.0000
  O   O153      1.0  0.5675900000000003  0.79044  0.31568  1.0000
  O   O154      1.0  0.017620000000000028  0.9536699999999998  0.44256000000000006  1.0000
  O   O155      1.0  0.5810300000000003  0.8509299999999997  0.27816  1.0000
  O   O156      1.0  0.4321800000000001  0.79272  0.68648  1.0000
  O   O157      1.0  0.41904000000000013  0.85315  0.72323  1.0000
  O   O158      1.0  0.06890000000000003  0.29527  0.31268  1.0000
  O   O159      1.0  0.08822  0.35293  0.27628  1.0000
  O   O160      1.0  0.9320400000000002  0.2925699999999999  0.68475  1.0000
  O   O161      1.0  0.92049  0.35176  0.7255  1.0000
  O   O162      1.0  0.75616  0.92588  0.42954  1.0000
  O   O163      1.0  0.74657  0.90209  0.50448  1.0000
  O   O164      1.0  0.24548000000000006  0.92506  0.57046  1.0000
  O   O165      1.0  0.9823800000000003  0.9536699999999998  0.55744  1.0000
  O   O166      1.0  0.25298  0.9025899999999998  0.49343  1.0000
  O   O167      1.0  0.26963  0.42716999999999994  0.48685  1.0000
  O   O168      1.0  0.2904600000000001  0.39293  0.57873  1.0000
  O   O169      1.0  0.74551  0.42495  0.57212  1.0000
  O   O170      1.0  0.75334  0.40276  0.49527999999999994  1.0000
  O   O171      1.0  0.7283  0.8572499999999997  0.29868  1.0000
  O   O172      1.0  0.71724  0.84929  0.37708  1.0000
  O   O173      1.0  0.27184000000000014  0.8595199999999997  0.70163  1.0000
  O   O174      1.0  0.2828  0.84939  0.62359  1.0000
  O   O175      1.0  0.21272  0.3978  0.32247  1.0000
  O   O176      1.0  0.5176200000000002  0.45367  0.44256000000000006  1.0000
  O   O177      1.0  0.21269000000000005  0.36764  0.40224  1.0000
  O   O178      1.0  0.77318  0.35854  0.70283  1.0000
  O   O179      1.0  0.78338  0.34895  0.62401  1.0000
  O   O180      1.0  0.8302700000000002  0.9698  0.38628  1.0000
  O   O181      1.0  0.7514  0.9343  0.32622  1.0000
  O   O182      1.0  0.17022  0.97023  0.61296  1.0000
  O   O183      1.0  0.24902000000000005  0.93597  0.67231  1.0000
  O   O184      1.0  0.3146800000000001  0.46615  0.34768  1.0000
  O   O185      1.0  0.2700800000000001  0.46115  0.38855  1.0000
  O   O186      1.0  0.67074  0.46883  0.61693  1.0000
  O   O187      1.0  0.4823800000000001  0.45367  0.55744  1.0000
  O   O188      1.0  0.74936  0.4346599999999999  0.67418  1.0000
  O   O189      1.0  0.8552700000000002  0.77328  0.89007  1.0000
  O   O190      1.0  0.8656500000000003  0.83879  0.8597499999999999  1.0000
  O   O191      1.0  0.13991999999999996  0.77907  0.10804999999999998  1.0000
  O   O192      1.0  0.13003000000000003  0.84337  0.14061  1.0000
  O   O193      1.0  0.34276000000000006  0.3232699999999999  0.8459800000000001  1.0000
  O   O194      1.0  0.43277  0.34045  0.90962  1.0000
  O   O195      1.0  0.6528800000000002  0.3244199999999999  0.15041  1.0000
  O   O196      1.0  0.56366  0.34129  0.09028  1.0000
  O   O197      1.0  0.4835000000000001  0.81524  0.14625  1.0000
  O   O198      1.0  0.48237000000000013  0.54631  0.55745  1.0000
  O   O199      1.0  0.5185  0.8427  0.09833  1.0000
  O   O200      1.0  0.5139000000000002  0.82003  0.85605  1.0000
  O   O201      1.0  0.47757999999999995  0.84523  0.9028599999999999  1.0000
  O   O202      1.0  0.98734  0.31775  0.14444  1.0000
  O   O203      1.0  0.022829999999999993  0.34078999999999987  0.09498  1.0000
  O   O204      1.0  0.01792000000000001  0.31454  0.85534  1.0000
  O   O205      1.0  0.9849500000000003  0.34019999999999995  0.9060400000000001  1.0000
  O   O206      1.0  0.9162299999999999  0.6563199999999998  0.7184  1.0000
  O   O207      1.0  0.9377200000000004  0.7139899999999998  0.68462  1.0000
  O   O208      1.0  0.08544  0.6571899999999998  0.28629  1.0000
  Zn  Zn1       1.0  0.7849200000000002  0.71508  0.5  1.0000
  Zn  Zn2       1.0  0.46164  0.50001  0.4232  1.0000
  Zn  Zn3       1.0  0.03835999999999997  9.99999999999999e-06  0.5768  1.0000
  Zn  Zn4       1.0  0.96164  9.99999999999999e-06  0.4232  1.0000
  Zn  Zn5       1.0  0.21508000000000005  0.71508  0.5  1.0000
  Zn  Zn6       1.0  0.28492  0.21508  0.5  1.0000
  Zn  Zn7       1.0  0.71508  0.21508  0.5  1.0000
  Zn  Zn8       1.0  0.71507  0.7848999999999998  0.50002  1.0000
  Zn  Zn9       1.0  0.28492999999999996  0.7848999999999998  0.4999799999999999  1.0000
  Zn  Zn10      1.0  0.21506999999999996  0.2849  0.50002  1.0000
  Zn  Zn11      1.0  0.78493  0.2849  0.4999799999999999  1.0000
  Zn  Zn12      1.0  0.53836  0.50001  0.5768  1.0000
