data_image0
_chemical_formula_structural       C43H34N2O15Zn2
_chemical_formula_sum              "C43 H34 N2 O15 Zn2"
_cell_length_a       9.92559
_cell_length_b       10.76301
_cell_length_c       13.10227
_cell_angle_alpha    89.41901
_cell_angle_beta     71.36759
_cell_angle_gamma    89.54782

_space_group_name_H-M_alt    "P 1"
_space_group_IT_number       1

loop_
  _space_group_symop_operation_xyz
  'x, y, z'

loop_
  _atom_site_type_symbol
  _atom_site_label
  _atom_site_symmetry_multiplicity
  _atom_site_fract_x
  _atom_site_fract_y
  _atom_site_fract_z
  _atom_site_occupancy
  C   C1        1.0  0.5024400000000001  0.7394500000000003  0.48961  1.0000
  C   C2        1.0  0.3793  0.4331100000000001  0.81447  1.0000
  C   C3        1.0  0.24350999999999998  0.8888100000000001  0.48918  1.0000
  C   C4        1.0  0.4231800000000003  0.47966000000000003  0.70175  1.0000
  C   C5        1.0  0.11383000000000001  0.94711  0.53878  1.0000
  C   C6        1.0  0.11013000000000002  0.056960000000000004  0.59408  1.0000
  C   C7        1.0  0.23723000000000008  0.11434000000000002  0.58952  1.0000
  C   C8        1.0  0.37004  0.060840000000000005  0.5310999999999999  1.0000
  C   C9        1.0  0.3720300000000002  0.9387900000000001  0.49649  1.0000
  C   C10       1.0  0.50224  0.87236  0.4723499999999999  1.0000
  C   C11       1.0  0.6318  0.93598  0.4444499999999999  1.0000
  C   C12       1.0  0.44253000000000003  0.41935  0.9783999999999999  1.0000
  C   C13       1.0  0.6312800000000001  0.06381000000000002  0.4565799999999999  1.0000
  C   C14       1.0  0.50028  0.12599  0.50235  1.0000
  C   C15       1.0  0.7996400000000004  0.65464  0.6442699999999999  1.0000
  C   C16       1.0  0.49926000000000004  0.25977  0.50322  1.0000
  C   C17       1.0  0.8371300000000005  0.72571  0.7206299999999999  1.0000
  C   C18       1.0  0.9771000000000001  0.7228200000000001  0.7196699999999999  1.0000
  C   C19       1.0  0.07758000000000008  0.64972  0.6463099999999998  1.0000
  C   C20       1.0  0.04135000000000004  0.57352  0.5725399999999999  1.0000
  C   C21       1.0  0.89732  0.57461  0.57204  1.0000
  C   C22       1.0  0.95864  0.43019000000000013  0.4302299999999999  1.0000
  C   C23       1.0  0.48283000000000015  0.41186  0.86579  1.0000
  C   C24       1.0  0.10144999999999998  0.42988000000000004  0.4306  1.0000
  C   C25       1.0  0.5782800000000001  0.50293  0.29577999999999993  1.0000
  C   C26       1.0  0.8020600000000003  0.47114000000000006  0.003649999999999999  1.0000
  C   C27       1.0  0.62443  0.49685000000000007  0.17810999999999996  1.0000
  C   C28       1.0  0.23622000000000004  0.40721000000000007  0.87268  1.0000
  C   C29       1.0  0.19752999999999998  0.3873600000000001  0.98439  1.0000
  C   C30       1.0  0.29796  0.3946200000000001  0.03816  1.0000
  C   C31       1.0  0.9570300000000003  0.6207400000000001  0.11116999999999998  1.0000
  C   C32       1.0  0.8482400000000001  0.11521000000000002  0.47291  1.0000
  C   C33       1.0  0.6061500000000001  0.7616  0.8331999999999998  1.0000
  C   C34       1.0  0.55044  0.44576000000000005  0.02425  1.0000
  C   C35       1.0  0.08269999999999997  0.27273  0.83384  1.0000
  C   C36       1.0  0.28234  0.23605  0.15638  1.0000
  C   C37       1.0  0.5973700000000002  0.18871000000000002  0.7423799999999998  1.0000
  C   C38       1.0  0.79455  0.8612500000000002  0.29379  1.0000
  C   C39       1.0  0.69525  0.4416  0.95975  1.0000
  C   C40       1.0  0.7313600000000002  0.40262  0.85339  1.0000
  C   C41       1.0  0.6251000000000002  0.3771700000000001  0.8091399999999999  1.0000
  C   C42       1.0  0.5181800000000001  0.48280000000000006  0.13054  1.0000
  C   C43       1.0  0.7683500000000001  0.4981500000000001  0.11348  1.0000
  H   H1        1.0  0.24094000000000004  0.80711  0.4427199999999999  1.0000
  H   H2        1.0  0.1794900000000001  0.3723000000000001  0.37422999999999995  1.0000
  H   H3        1.0  0.9115500000000001  0.46982  0.95328  1.0000
  H   H4        1.0  0.4095200000000001  0.50159  0.17767999999999995  1.0000
  H   H5        1.0  0.0888  0.36539  0.03042  1.0000
  H   H6        1.0  0.023929999999999996  0.64667  0.16105  1.0000
  H   H7        1.0  0.8897900000000001  0.70238  0.10619999999999999  1.0000
  H   H8        1.0  0.03036  0.59896  0.02975  1.0000
  H   H9        1.0  0.8278  0.03161  0.5263  1.0000
  H   H10       1.0  0.8403999999999998  0.19858  0.52349  1.0000
  H   H11       1.0  0.9592100000000002  0.10909  0.4177799999999999  1.0000
  H   H12       1.0  0.016449999999999992  0.90512  0.53602  1.0000
  H   H13       1.0  0.6055  0.66151  0.85532  1.0000
  H   H14       1.0  0.5450000000000005  0.77796  0.7765399999999999  1.0000
  H   H15       1.0  0.5507700000000003  0.8127600000000001  0.90811  1.0000
  H   H16       1.0  0.0006500000000001152  0.26116  0.9138799999999998  1.0000
  H   H17       1.0  0.16768000000000002  0.20108000000000004  0.8234899999999999  1.0000
  H   H18       1.0  0.02997  0.25505  0.7727  1.0000
  H   H19       1.0  0.39843  0.2158  0.12579  1.0000
  H   H20       1.0  0.22483  0.17751  0.11432  1.0000
  H   H21       1.0  0.24374000000000007  0.20954  0.24282999999999996  1.0000
  H   H22       1.0  0.48037000000000013  0.19363000000000002  0.75916  1.0000
  H   H23       1.0  0.009250000000000033  0.10011  0.6367899999999999  1.0000
  H   H24       1.0  0.6401800000000003  0.12641000000000002  0.6729299999999999  1.0000
  H   H25       1.0  0.6227500000000001  0.14498  0.8116  1.0000
  H   H26       1.0  0.7921100000000001  0.95198  0.25272  1.0000
  H   H27       1.0  0.7221800000000002  0.79389  0.27417  1.0000
  H   H28       1.0  0.9046400000000001  0.82499  0.26197  1.0000
  H   H29       1.0  0.23059000000000004  0.20053000000000004  0.6316599999999999  1.0000
  H   H30       1.0  0.9297400000000001  0.3732200000000001  0.3729999999999999  1.0000
  H   H31       1.0  0.6954200000000003  0.66743  0.64124  1.0000
  H   H32       1.0  0.009650000000000096  0.78081  0.7746299999999998  1.0000
  H   H33       1.0  0.18344  0.6587700000000001  0.64768  1.0000
  H   H34       1.0  0.8410400000000001  0.38858  0.8053499999999998  1.0000
  N   N1        1.0  0.8568600000000002  0.5012  0.5009899999999999  1.0000
  N   N2        1.0  0.14245000000000002  0.50128  0.5010199999999999  1.0000
  O   O1        1.0  0.38531  0.68322  0.4999999999999999  1.0000
  O   O2        1.0  0.7564400000000001  0.12899  0.41030999999999995  1.0000
  O   O3        1.0  0.74526  0.8091000000000002  0.7900199999999998  1.0000
  O   O4        1.0  0.13733000000000006  0.39504  0.81907  1.0000
  O   O5        1.0  0.25444000000000006  0.36362000000000005  0.1464  1.0000
  O   O6        1.0  0.6602100000000002  0.30720000000000003  0.7161199999999998  1.0000
  O   O7        1.0  0.7605  0.87401  0.40602  1.0000
  O   O8        1.0  0.61464  0.6832500000000001  0.50001  1.0000
  O   O9        1.0  0.32840000000000014  0.49995  0.65361  1.0000
  O   O10       1.0  0.55773  0.4999700000000001  0.6536199999999999  1.0000
  O   O11       1.0  0.3853600000000001  0.31675000000000003  0.4999899999999999  1.0000
  O   O12       1.0  0.6146900000000001  0.31678  0.4999999999999999  1.0000
  O   O13       1.0  0.4422700000000001  0.50003  0.34637999999999997  1.0000
  O   O14       1.0  0.6716  0.5000500000000001  0.3463899999999999  1.0000
  O   O15       1.0  0.8744299999999999  0.51671  0.15944  1.0000
  Zn  Zn1       1.0  0.34688000000000013  0.4999800000000001  0.4999899999999999  1.0000
  Zn  Zn2       1.0  0.6531200000000003  0.50002  0.50001  1.0000
