data_image0
_chemical_formula_structural       Br48C384H48O192Zn48
_chemical_formula_sum              "Br48 C384 H48 O192 Zn48"
_cell_length_a       32.68089
_cell_length_b       32.697649999999996
_cell_length_c       32.63418
_cell_angle_alpha    89.93582
_cell_angle_beta     89.90765
_cell_angle_gamma    89.64226000000001

_symmetry_space_group_name_H-M    'P 1'
_symmetry_Int_Tables_number       1

loop_
  _symmetry_equiv_pos_as_xyz
  'x,y,z'

loop_
  _atom_site_type_symbol
  _atom_site_label
  _atom_site_symmetry_multiplicity
  _atom_site_fract_x
  _atom_site_fract_y
  _atom_site_fract_z
  _atom_site_occupancy
  Br  Br1       1.0  0.63819  0.01658  0.1383  1.0000
  Br  Br2       1.0  0.96599  0.58585  0.08552  1.0000
  Br  Br3       1.0  0.9790099999999999  0.86132  0.6408599999999998  1.0000
  Br  Br4       1.0  0.9666  0.41524  0.9151  1.0000
  Br  Br5       1.0  0.96634  0.91402  0.41384  1.0000
  Br  Br6       1.0  0.9836700000000002  0.36201  0.13812  1.0000
  Br  Br7       1.0  0.9833800000000001  0.08361  0.58321  1.0000
  Br  Br8       1.0  0.98309  0.63794  0.86189  1.0000
  Br  Br9       1.0  0.86177  0.3618  0.01745  1.0000
  Br  Br10      1.0  0.41296  0.08691  0.03343  1.0000
  Br  Br11      1.0  0.09545  0.59639  0.97123  1.0000
  Br  Br12      1.0  0.91308  0.01813  0.58641  1.0000
  Br  Br13      1.0  0.63782  0.8622  0.98382  1.0000
  Br  Br14      1.0  0.09735  0.40182  0.02731  1.0000
  Br  Br15      1.0  0.63826  0.13822  0.01709  1.0000
  Br  Br16      1.0  0.86218  0.63778  0.98392  1.0000
  Br  Br17      1.0  0.36168  0.85871  0.02352  1.0000
  Br  Br18      1.0  0.09496  0.47113  0.09564  1.0000
  Br  Br19      1.0  0.86194  0.48362  0.13815999999999998  1.0000
  Br  Br20      1.0  0.86189  0.51746  0.8617599999999997  1.0000
  Br  Br21      1.0  0.09606  0.52764  0.90287  1.0000
  Br  Br22      1.0  0.53356  0.08618  0.91347  1.0000
  Br  Br23      1.0  0.41411  0.9663299999999998  0.91387  1.0000
  Br  Br24      1.0  0.5164  0.13811  0.13825  1.0000
  Br  Br25      1.0  0.51931  0.92548  0.07405999999999997  1.0000
  Br  Br26      1.0  0.51738  0.86196  0.8618  1.0000
  Br  Br27      1.0  0.85918  0.86131  0.52201  1.0000
  Br  Br28      1.0  0.91009  0.08975  0.51935  1.0000
  Br  Br29      1.0  0.13916  0.14114  0.52165  1.0000
  Br  Br30      1.0  0.08685000000000001  0.913  0.53343  1.0000
  Br  Br31      1.0  0.57944  0.4842  0.5761599999999998  1.0000
  Br  Br32      1.0  0.36165  0.47871  0.64075  1.0000
  Br  Br33      1.0  0.35878  0.52347  0.36163  1.0000
  Br  Br34      1.0  0.08608  0.03354  0.41358  1.0000
  Br  Br35      1.0  0.58337  0.53034  0.42041  1.0000
  Br  Br36      1.0  0.47697  0.64115  0.3616  1.0000
  Br  Br37      1.0  0.52136  0.63896  0.6415  1.0000
  Br  Br38      1.0  0.51945  0.41257  0.5854999999999999  1.0000
  Br  Br39      1.0  0.46962  0.4166699999999999  0.42065  1.0000
  Br  Br40      1.0  0.36144  0.35926999999999987  0.52234  1.0000
  Br  Br41      1.0  0.42542  0.57447  0.51959  1.0000
  Br  Br42      1.0  0.6416  0.63944  0.52214  1.0000
  Br  Br43      1.0  0.63684  0.36323  0.4639099999999999  1.0000
  Br  Br44      1.0  0.63801  0.9829899999999999  0.8618499999999999  1.0000
  Br  Br45      1.0  0.85959  0.02197  0.36155  1.0000
  Br  Br46      1.0  0.36164  0.97753  0.14141  1.0000
  Br  Br47      1.0  0.13914  0.02107  0.64127  1.0000
  Br  Br48      1.0  0.9784800000000001  0.14032  0.36155  1.0000
  C   C1        1.0  0.36637  0.41894999999999993  0.8662099999999998  1.0000
  C   C2        1.0  0.41903  0.36636  0.8662099999999998  1.0000
  C   C3        1.0  0.95976  0.74464  0.5403199999999998  1.0000
  C   C4        1.0  0.45974  0.74466  0.04033  1.0000
  C   C5        1.0  0.04026  0.25535  0.5403199999999998  1.0000
  C   C6        1.0  0.54036  0.7447  0.95967  1.0000
  C   C7        1.0  0.95962  0.25527  0.45964  1.0000
  C   C8        1.0  0.74466  0.95975  0.54034  1.0000
  C   C9        1.0  0.25527  0.45963  0.9596399999999998  1.0000
  C   C10       1.0  0.74471  0.04036  0.45967  1.0000
  C   C11       1.0  0.25535  0.54025  0.040309999999999985  1.0000
  C   C12       1.0  0.25537  0.04024  0.5403  1.0000
  C   C13       1.0  0.58078  0.13339  0.36636  1.0000
  C   C14       1.0  0.7447  0.54036  0.95968  1.0000
  C   C15       1.0  0.25527  0.9596299999999999  0.45964  1.0000
  C   C16       1.0  0.74465  0.45975  0.04033  1.0000
  C   C17       1.0  0.04032  0.54031  0.25531  1.0000
  C   C18       1.0  0.54032  0.9597099999999997  0.7446799999999998  1.0000
  C   C19       1.0  0.95965  0.4596599999999999  0.25528  1.0000
  C   C20       1.0  0.45971  0.0403  0.7446699999999998  1.0000
  C   C21       1.0  0.95971  0.54031  0.7446699999999998  1.0000
  C   C22       1.0  0.45965  0.95966  0.2552699999999999  1.0000
  C   C23       1.0  0.04032  0.45971  0.7446799999999998  1.0000
  C   C24       1.0  0.41915  0.63301  0.13284  1.0000
  C   C25       1.0  0.54031  0.04031  0.25531  1.0000
  C   C26       1.0  0.95963  0.75528  0.9596499999999998  1.0000
  C   C27       1.0  0.04036  0.2447  0.95967  1.0000
  C   C28       1.0  0.04026  0.75535  0.040309999999999985  1.0000
  C   C29       1.0  0.95975  0.24465000000000003  0.04033  1.0000
  C   C30       1.0  0.24464000000000002  0.95976  0.04033  1.0000
  C   C31       1.0  0.75528  0.9596299999999999  0.9596399999999998  1.0000
  C   C32       1.0  0.24470000000000003  0.04036  0.95968  1.0000
  C   C33       1.0  0.75536  0.04025  0.040309999999999985  1.0000
  C   C34       1.0  0.04032  0.04031  0.75531  1.0000
  C   C35       1.0  0.41917  0.13299  0.63282  1.0000
  C   C36       1.0  0.04032  0.9597099999999997  0.24468  1.0000
  C   C37       1.0  0.95965  0.95966  0.75528  1.0000
  C   C38       1.0  0.95971  0.0403  0.24466  1.0000
  C   C39       1.0  0.45963  0.75527  0.45964  1.0000
  C   C40       1.0  0.54036  0.24471  0.45967  1.0000
  C   C41       1.0  0.54025  0.75537  0.54031  1.0000
  C   C42       1.0  0.45975  0.24465  0.5403299999999998  1.0000
  C   C43       1.0  0.24464  0.45976  0.5403299999999998  1.0000
  C   C44       1.0  0.75527  0.45963  0.45964  1.0000
  C   C45       1.0  0.24471000000000004  0.54036  0.45967  1.0000
  C   C46       1.0  0.58079  0.63341  0.86635  1.0000
  C   C47       1.0  0.75535  0.54025  0.54031  1.0000
  C   C48       1.0  0.54032  0.54032  0.7552999999999997  1.0000
  C   C49       1.0  0.54032  0.45971  0.24468  1.0000
  C   C50       1.0  0.45965  0.4596599999999999  0.75528  1.0000
  C   C51       1.0  0.45972  0.5403  0.24466  1.0000
  C   C52       1.0  0.4015  0.40145  0.84876  1.0000
  C   C53       1.0  0.15083  0.59823  0.40134  1.0000
  C   C54       1.0  0.59808  0.40173  0.15038  1.0000
  C   C55       1.0  0.84944  0.59808  0.5977099999999999  1.0000
  C   C56       1.0  0.4018  0.5980599999999999  0.15036  1.0000
  C   C57       1.0  0.419  0.8663299999999998  0.3661799999999999  1.0000
  C   C58       1.0  0.15052  0.40173  0.5977099999999999  1.0000
  C   C59       1.0  0.5983  0.59829  0.84892  1.0000
  C   C60       1.0  0.84884  0.40139  0.40116  1.0000
  C   C61       1.0  0.59811  0.84938  0.59774  1.0000
  C   C62       1.0  0.59829  0.15087  0.40129  1.0000
  C   C63       1.0  0.4018  0.15045999999999998  0.59768  1.0000
  C   C64       1.0  0.40148  0.84886  0.40119  1.0000
  C   C65       1.0  0.90144  0.90138  0.8487  1.0000
  C   C66       1.0  0.15082  0.09821  0.9013499999999998  1.0000
  C   C67       1.0  0.09805  0.9017699999999997  0.15035  1.0000
  C   C68       1.0  0.58067  0.36685  0.13288  1.0000
  C   C69       1.0  0.84942  0.09809  0.09773  1.0000
  C   C70       1.0  0.90175  0.0981  0.15039999999999995  1.0000
  C   C71       1.0  0.1505  0.9017599999999998  0.09768  1.0000
  C   C72       1.0  0.09823  0.09822  0.8489799999999997  1.0000
  C   C73       1.0  0.84882  0.9013699999999998  0.90114  1.0000
  C   C74       1.0  0.09804  0.84946  0.09766  1.0000
  C   C75       1.0  0.09822999999999998  0.1508  0.9013499999999998  1.0000
  C   C76       1.0  0.90176  0.15051999999999993  0.09773  1.0000
  C   C77       1.0  0.90142  0.84881  0.90114  1.0000
  C   C78       1.0  0.90144  0.40139  0.3487  1.0000
  C   C79       1.0  0.13334  0.63332  0.4187299999999999  1.0000
  C   C80       1.0  0.6509  0.5982999999999998  0.90127  1.0000
  C   C81       1.0  0.09807  0.40174  0.65037  1.0000
  C   C82       1.0  0.34948  0.59803  0.09767  1.0000
  C   C83       1.0  0.90176  0.59809  0.65039  1.0000
  C   C84       1.0  0.65053  0.40172  0.09771999999999997  1.0000
  C   C85       1.0  0.09822  0.5982  0.3490099999999999  1.0000
  C   C86       1.0  0.3489  0.40145  0.9012199999999998  1.0000
  C   C87       1.0  0.59809  0.3494  0.09771  1.0000
  C   C88       1.0  0.40148  0.90143  0.34874  1.0000
  C   C89       1.0  0.59832  0.6508999999999998  0.90127  1.0000
  C   C90       1.0  0.6331  0.8668099999999997  0.58018  1.0000
  C   C91       1.0  0.40181  0.09803  0.6503299999999997  1.0000
  C   C92       1.0  0.40181  0.65046  0.09768  1.0000
  C   C93       1.0  0.59829  0.09827  0.34893  1.0000
  C   C94       1.0  0.40151  0.3489  0.9012299999999998  1.0000
  C   C95       1.0  0.59812  0.9016899999999998  0.6504299999999997  1.0000
  C   C96       1.0  0.65089  0.09828  0.40129  1.0000
  C   C97       1.0  0.09808  0.34942  0.5977  1.0000
  C   C98       1.0  0.3489  0.90144  0.4012099999999999  1.0000
  C   C99       1.0  0.90177  0.6505  0.5977199999999998  1.0000
  C   C100      1.0  0.34946  0.09805  0.59768  1.0000
  C   C101      1.0  0.86633  0.3663  0.4186  1.0000
  C   C102      1.0  0.90144  0.34883  0.40116  1.0000
  C   C103      1.0  0.65055  0.9017  0.59774  1.0000
  C   C104      1.0  0.09823  0.6508  0.40136  1.0000
  C   C105      1.0  0.28726  0.43842  0.93839  1.0000
  C   C106      1.0  0.06138999999999999  0.56138  0.28735  1.0000
  C   C107      1.0  0.71248  0.43871  0.061349999999999995  1.0000
  C   C108      1.0  0.93859  0.5614  0.71247  1.0000
  C   C109      1.0  0.28756  0.56122  0.06127  1.0000
  C   C110      1.0  0.061410000000000006  0.43861  0.71246  1.0000
  C   C111      1.0  0.71266  0.5615299999999998  0.93846  1.0000
  C   C112      1.0  0.13335  0.5807  0.36642  1.0000
  C   C113      1.0  0.36688  0.13303  0.58013  1.0000
  C   C114      1.0  0.93845  0.43846  0.2872  1.0000
  C   C115      1.0  0.56144  0.93858  0.71249  1.0000
  C   C116      1.0  0.43843  0.28727  0.9384199999999998  1.0000
  C   C117      1.0  0.56142  0.06141  0.28731  1.0000
  C   C118      1.0  0.43872  0.71245  0.06131999999999999  1.0000
  C   C119      1.0  0.43862  0.06137  0.71244  1.0000
  C   C120      1.0  0.56154  0.71266  0.93845  1.0000
  C   C121      1.0  0.43846  0.93848  0.28721  1.0000
  C   C122      1.0  0.56125  0.28752  0.06128999999999999  1.0000
  C   C123      1.0  0.0615  0.71261  0.43849  1.0000
  C   C124      1.0  0.86686  0.63306  0.58017  1.0000
  C   C125      1.0  0.71248  0.9386999999999998  0.56135  1.0000
  C   C126      1.0  0.9384  0.28723  0.43838  1.0000
  C   C127      1.0  0.28755  0.06122999999999999  0.56128  1.0000
  C   C128      1.0  0.93872  0.71245  0.5613299999999998  1.0000
  C   C129      1.0  0.28726  0.93842  0.43839  1.0000
  C   C130      1.0  0.06125  0.28753  0.56128  1.0000
  C   C131      1.0  0.71266  0.06152  0.4384599999999999  1.0000
  C   C132      1.0  0.78722  0.93839  0.93836  1.0000
  C   C133      1.0  0.061399999999999996  0.06138999999999999  0.78733  1.0000
  C   C134      1.0  0.21246000000000004  0.93872  0.06133999999999999  1.0000
  C   C135      1.0  0.36637  0.86635  0.41864  1.0000
  C   C136      1.0  0.93859  0.0614  0.21246999999999994  1.0000
  C   C137      1.0  0.78753  0.06125  0.06129999999999999  1.0000
  C   C138      1.0  0.061399999999999996  0.9386199999999998  0.21245  1.0000
  C   C139      1.0  0.21262  0.061489999999999996  0.93849  1.0000
  C   C140      1.0  0.93846  0.9384599999999997  0.7872  1.0000
  C   C141      1.0  0.93839  0.78722  0.93838  1.0000
  C   C142      1.0  0.93871  0.21246  0.06133999999999999  1.0000
  C   C143      1.0  0.0615  0.21261  0.93849  1.0000
  C   C144      1.0  0.06123000000000001  0.78756  0.06127  1.0000
  C   C145      1.0  0.78723  0.43839  0.43837  1.0000
  C   C146      1.0  0.13308  0.3668299999999999  0.5801399999999999  1.0000
  C   C147      1.0  0.56142  0.56141  0.78731  1.0000
  C   C148      1.0  0.21247  0.43871  0.56134  1.0000
  C   C149      1.0  0.43861  0.56139  0.21246  1.0000
  C   C150      1.0  0.78754  0.56124  0.56129  1.0000
  C   C151      1.0  0.56141  0.43861  0.21246  1.0000
  C   C152      1.0  0.21265  0.56151  0.43847  1.0000
  C   C153      1.0  0.43847  0.43849  0.78722  1.0000
  C   C154      1.0  0.43841  0.78724  0.43839  1.0000
  C   C155      1.0  0.43872  0.21244999999999994  0.5613199999999998  1.0000
  C   C156      1.0  0.56153  0.21265  0.4384599999999999  1.0000
  C   C157      1.0  0.6334  0.13338  0.4186699999999999  1.0000
  C   C158      1.0  0.56125  0.78753  0.56129  1.0000
  C   C159      1.0  0.61933  0.06716999999999997  0.06728  1.0000
  C   C160      1.0  0.93968  0.93746  0.61181  1.0000
  C   C161      1.0  0.40397  0.04416  0.95584  1.0000
  C   C162      1.0  0.04394  0.95603  0.40405999999999986  1.0000
  C   C163      1.0  0.61887  0.93314  0.9331799999999998  1.0000
  C   C164      1.0  0.93247  0.06759  0.37996  1.0000
  C   C165      1.0  0.37955000000000005  0.93229  0.06793999999999997  1.0000
  C   C166      1.0  0.06318  0.06056  0.61211  1.0000
  C   C167      1.0  0.04446  0.59662  0.04452  1.0000
  C   C168      1.0  0.8663  0.91888  0.86614  1.0000
  C   C169      1.0  0.04562  0.4026  0.9544099999999998  1.0000
  C   C170      1.0  0.93293  0.38079  0.06724  1.0000
  C   C171      1.0  0.93313  0.61887  0.9331799999999998  1.0000
  C   C172      1.0  0.09799  0.54668  0.04656  1.0000
  C   C173      1.0  0.93304  0.4330499999999999  0.11914  1.0000
  C   C174      1.0  0.88106  0.56697  0.93313  1.0000
  C   C175      1.0  0.04533  0.45464  0.9028099999999999  1.0000
  C   C176      1.0  0.09941  0.45169  0.95174  1.0000
  C   C177      1.0  0.93294  0.56711  0.88083  1.0000
  C   C178      1.0  0.88079  0.43294  0.06723  1.0000
  C   C179      1.0  0.13335  0.0807  0.8664199999999997  1.0000
  C   C180      1.0  0.04451  0.54472  0.09652  1.0000
  C   C181      1.0  0.45606  0.043930000000000004  0.9040699999999998  1.0000
  C   C182      1.0  0.56715  0.11931  0.06726999999999997  1.0000
  C   C183      1.0  0.4388  0.94151  0.10975999999999997  1.0000
  C   C184      1.0  0.56695  0.8811  0.93314  1.0000
  C   C185      1.0  0.5671  0.93296  0.88084  1.0000
  C   C186      1.0  0.43882  0.8903  0.05856  1.0000
  C   C187      1.0  0.56708  0.06709  0.11928  1.0000
  C   C188      1.0  0.45569  0.09609  0.9557  1.0000
  C   C189      1.0  0.93214  0.87926  0.56807  1.0000
  C   C190      1.0  0.13302  0.9191  0.13284  1.0000
  C   C191      1.0  0.88841  0.06028  0.4379999999999999  1.0000
  C   C192      1.0  0.06321  0.11209999999999998  0.56065  1.0000
  C   C193      1.0  0.09607  0.95571  0.45572  1.0000
  C   C194      1.0  0.04419  0.90393  0.45579  1.0000
  C   C195      1.0  0.12159  0.06834  0.56849  1.0000
  C   C196      1.0  0.93976  0.11158  0.4379999999999999  1.0000
  C   C197      1.0  0.88821  0.9374399999999998  0.56044  1.0000
  C   C198      1.0  0.61209  0.56337  0.56044  1.0000
  C   C199      1.0  0.43817  0.44012999999999997  0.61116  1.0000
  C   C200      1.0  0.39034  0.55851  0.4389  1.0000
  C   C201      1.0  0.86686  0.08069  0.13289  1.0000
  C   C202      1.0  0.54617  0.45382  0.40238  1.0000
  C   C203      1.0  0.60676  0.44455  0.44157  1.0000
  C   C204      1.0  0.43225  0.56781  0.37965  1.0000
  C   C205      1.0  0.37975  0.43241  0.56778  1.0000
  C   C206      1.0  0.56009  0.56283  0.61135  1.0000
  C   C207      1.0  0.5685  0.6218  0.5686199999999998  1.0000
  C   C208      1.0  0.55547  0.39324  0.44156  1.0000
  C   C209      1.0  0.43792  0.38854  0.5600599999999998  1.0000
  C   C210      1.0  0.44151  0.60967  0.43889  1.0000
  C   C211      1.0  0.60402  0.05153  0.10409  1.0000
  C   C212      1.0  0.08062  0.86691  0.13282999999999995  1.0000
  C   C213      1.0  0.9131900000000001  0.9590799999999998  0.58674  1.0000
  C   C214      1.0  0.42352  0.02433  0.9234  1.0000
  C   C215      1.0  0.07657  0.97556  0.42325  1.0000
  C   C216      1.0  0.60376  0.9485399999999998  0.89617  1.0000
  C   C217      1.0  0.89689  0.05154  0.39674  1.0000
  C   C218      1.0  0.39683  0.94875  0.10312  1.0000
  C   C219      1.0  0.10462  0.05201999999999998  0.60414  1.0000
  C   C220      1.0  0.94863  0.10309  0.39675  1.0000
  C   C221      1.0  0.024180000000000004  0.5765699999999998  0.07638  1.0000
  C   C222      1.0  0.94846  0.89614  0.60362  1.0000
  C   C223      1.0  0.6330500000000001  0.4190699999999999  0.13287  1.0000
  C   C224      1.0  0.91895  0.86628  0.86614  1.0000
  C   C225      1.0  0.02505  0.42316  0.9231  1.0000
  C   C226      1.0  0.024360000000000003  0.92346  0.42336  1.0000
  C   C227      1.0  0.94864  0.39614  0.10395  1.0000
  C   C228      1.0  0.04174  0.08665  0.5866  1.0000
  C   C229      1.0  0.94855  0.60375  0.89618  1.0000
  C   C230      1.0  0.896  0.39601  0.05183  1.0000
  C   C231      1.0  0.42301000000000005  0.07692  0.9754099999999998  1.0000
  C   C232      1.0  0.07887  0.57922  0.02643  1.0000
  C   C233      1.0  0.60362  0.8964  0.94887  1.0000
  C   C234      1.0  0.0804  0.4193099999999999  0.9720899999999998  1.0000
  C   C235      1.0  0.08071  0.13333  0.8664199999999997  1.0000
  C   C236      1.0  0.60408  0.10407  0.05178  1.0000
  C   C237      1.0  0.89637  0.60362  0.94889  1.0000
  C   C238      1.0  0.39685  0.89699  0.05166  1.0000
  C   C239      1.0  0.07884  0.52654  0.07903  1.0000
  C   C240      1.0  0.89612  0.44863999999999987  0.10396  1.0000
  C   C241      1.0  0.89617  0.55166  0.89611  1.0000
  C   C242      1.0  0.07995000000000001  0.47227  0.9196999999999997  1.0000
  C   C243      1.0  0.47556  0.07659  0.92322  1.0000
  C   C244      1.0  0.55147  0.10398999999999997  0.10407  1.0000
  C   C245      1.0  0.46087  0.91737  0.08255  1.0000
  C   C246      1.0  0.91911  0.13305  0.13289  1.0000
  C   C247      1.0  0.55162  0.89622  0.89614  1.0000
  C   C248      1.0  0.89644  0.89613  0.5519599999999998  1.0000
  C   C249      1.0  0.91284  0.08712999999999997  0.4597999999999999  1.0000
  C   C250      1.0  0.10464  0.10407  0.55227  1.0000
  C   C251      1.0  0.07691  0.92301  0.4754  1.0000
  C   C252      1.0  0.58573  0.54162  0.5851  1.0000
  C   C253      1.0  0.39674  0.44877  0.6031899999999998  1.0000
  C   C254      1.0  0.39704  0.55157  0.39691  1.0000
  C   C255      1.0  0.58024  0.47089  0.4200899999999999  1.0000
  C   C256      1.0  0.44859  0.6029499999999998  0.3969  1.0000
  C   C257      1.0  0.13332  0.13331  0.91874  1.0000
  C   C258      1.0  0.55202  0.6045199999999997  0.60405  1.0000
  C   C259      1.0  0.45992  0.4136399999999999  0.586  1.0000
  C   C260      1.0  0.5291  0.41977  0.42016  1.0000
  C   C261      1.0  0.39654  0.39672  0.5517299999999998  1.0000
  C   C262      1.0  0.41735  0.5826299999999998  0.4609999999999999  1.0000
  C   C263      1.0  0.60437  0.60494  0.5525299999999997  1.0000
  C   C264      1.0  0.59638  0.4036399999999999  0.44751  1.0000
  C   C265      1.0  0.31493  0.42122  0.92106  1.0000
  C   C266      1.0  0.07852  0.57851  0.31504  1.0000
  C   C267      1.0  0.68466  0.4214299999999999  0.07820999999999997  1.0000
  C   C268      1.0  0.13305  0.86687  0.08011  1.0000
  C   C269      1.0  0.92142  0.57848  0.6846  1.0000
  C   C270      1.0  0.31539  0.57837  0.07815  1.0000
  C   C271      1.0  0.07846  0.42142  0.68458  1.0000
  C   C272      1.0  0.68494  0.5786199999999998  0.9210899999999997  1.0000
  C   C273      1.0  0.92122  0.42119  0.3148  1.0000
  C   C274      1.0  0.57851  0.92138  0.68463  1.0000
  C   C275      1.0  0.42126  0.3149399999999999  0.9210699999999998  1.0000
  C   C276      1.0  0.57858  0.07856  0.31498  1.0000
  C   C277      1.0  0.42149  0.6845999999999998  0.07817999999999997  1.0000
  C   C278      1.0  0.42147  0.07842999999999997  0.6845399999999998  1.0000
  C   C279      1.0  0.86629  0.86627  0.9185799999999997  1.0000
  C   C280      1.0  0.57864  0.68494  0.9210899999999997  1.0000
  C   C281      1.0  0.42125  0.92122  0.3148299999999999  1.0000
  C   C282      1.0  0.57843  0.31532  0.07819  1.0000
  C   C283      1.0  0.07857  0.68486  0.42116  1.0000
  C   C284      1.0  0.68466  0.92143  0.57822  1.0000
  C   C285      1.0  0.9212100000000001  0.31488  0.42102  1.0000
  C   C286      1.0  0.31536  0.07839999999999997  0.57817  1.0000
  C   C287      1.0  0.92147  0.68463  0.5782099999999998  1.0000
  C   C288      1.0  0.31493  0.9212099999999998  0.42105  1.0000
  C   C289      1.0  0.07842  0.31532999999999994  0.57817  1.0000
  C   C290      1.0  0.86684  0.13307  0.08018  1.0000
  C   C291      1.0  0.68493  0.0786  0.4211  1.0000
  C   C292      1.0  0.81486  0.92115  0.921  1.0000
  C   C293      1.0  0.07854  0.07852  0.81501  1.0000
  C   C294      1.0  0.18463  0.92146  0.07819  1.0000
  C   C295      1.0  0.92142  0.07848  0.18461  1.0000
  C   C296      1.0  0.81533  0.07841999999999998  0.0782  1.0000
  C   C297      1.0  0.07845  0.9214399999999999  0.18456  1.0000
  C   C298      1.0  0.18487  0.07855  0.92116  1.0000
  C   C299      1.0  0.92123  0.92119  0.81481  1.0000
  C   C300      1.0  0.92119  0.81486  0.921  1.0000
  C   C301      1.0  0.36637  0.91894  0.3662  1.0000
  C   C302      1.0  0.92146  0.18464  0.07822  1.0000
  C   C303      1.0  0.07857  0.18486  0.92115  1.0000
  C   C304      1.0  0.07838  0.81537  0.07815  1.0000
  C   C305      1.0  0.81488  0.42117  0.42102  1.0000
  C   C306      1.0  0.57858  0.57857  0.8149799999999998  1.0000
  C   C307      1.0  0.18465  0.42144  0.5781999999999998  1.0000
  C   C308      1.0  0.42145  0.5784599999999998  0.18458  1.0000
  C   C309      1.0  0.81535  0.57841  0.57819  1.0000
  C   C310      1.0  0.57847  0.42141  0.18459  1.0000
  C   C311      1.0  0.1849  0.57857  0.42114  1.0000
  C   C312      1.0  0.63341  0.08076  0.3663499999999999  1.0000
  C   C313      1.0  0.42126  0.4212399999999999  0.8148399999999999  1.0000
  C   C314      1.0  0.42123  0.8149  0.42104  1.0000
  C   C315      1.0  0.42149  0.1846  0.57818  1.0000
  C   C316      1.0  0.57862  0.18490999999999994  0.42111  1.0000
  C   C317      1.0  0.57844  0.8153099999999998  0.5781999999999998  1.0000
  C   C318      1.0  0.63308  0.91904  0.63291  1.0000
  C   C319      1.0  0.86688  0.58068  0.63288  1.0000
  C   C320      1.0  0.36692  0.08063  0.63283  1.0000
  C   C321      1.0  0.08065  0.36686999999999986  0.6328599999999998  1.0000
  C   C322      1.0  0.91897  0.36629  0.36614  1.0000
  C   C323      1.0  0.0807  0.63331  0.36644  1.0000
  C   C324      1.0  0.91912  0.63304  0.63288  1.0000
  C   C325      1.0  0.63342  0.63341  0.91865  1.0000
  C   C326      1.0  0.63309  0.36682  0.08016  1.0000
  C   C327      1.0  0.36639  0.36638  0.9186699999999999  1.0000
  C   C328      1.0  0.36691  0.63301  0.08011999999999997  1.0000
  C   C329      1.0  0.46861  0.13631  0.96857  1.0000
  C   C330      1.0  0.36692  0.58064  0.13284  1.0000
  C   C331      1.0  0.0313  0.86367  0.46863  1.0000
  C   C332      1.0  0.54241  0.14685  0.04244  1.0000
  C   C333      1.0  0.95703  0.8519  0.54301  1.0000
  C   C334      1.0  0.46015  0.85746  0.03928  1.0000
  C   C335      1.0  0.0409  0.14388  0.54024  1.0000
  C   C336      1.0  0.54223  0.85348  0.95774  1.0000
  C   C337      1.0  0.96003  0.14353  0.4595199999999999  1.0000
  C   C338      1.0  0.85628  0.9593199999999997  0.5400999999999998  1.0000
  C   C339      1.0  0.13898  0.4643099999999999  0.96428  1.0000
  C   C340      1.0  0.85646  0.03996  0.4595199999999999  1.0000
  C   C341      1.0  0.13304  0.41908  0.6328599999999998  1.0000
  C   C342      1.0  0.13774  0.53393  0.03388  1.0000
  C   C343      1.0  0.14854  0.04315  0.54319  1.0000
  C   C344      1.0  0.85345  0.5422399999999998  0.95774  1.0000
  C   C345      1.0  0.1363  0.96864  0.46861  1.0000
  C   C346      1.0  0.85327  0.45766  0.04237  1.0000
  C   C347      1.0  0.0312  0.53133  0.13630999999999993  1.0000
  C   C348      1.0  0.54233  0.95768  0.85326  1.0000
  C   C349      1.0  0.95768  0.45768  0.1467  1.0000
  C   C350      1.0  0.46882  0.03116  0.8636799999999998  1.0000
  C   C351      1.0  0.95767  0.54233  0.85327  1.0000
  C   C352      1.0  0.63342  0.58078  0.86635  1.0000
  C   C353      1.0  0.46014  0.9607  0.14256  1.0000
  C   C354      1.0  0.03175  0.4681299999999999  0.86333  1.0000
  C   C355      1.0  0.54235  0.04233999999999999  0.14674999999999994  1.0000
  C   C356      1.0  0.95774  0.64656  0.9577199999999998  1.0000
  C   C357      1.0  0.03193  0.36328  0.96793  1.0000
  C   C358      1.0  0.03117  0.63638  0.031209999999999998  1.0000
  C   C359      1.0  0.95763  0.35322  0.042399999999999986  1.0000
  C   C360      1.0  0.35199  0.95707  0.04298  1.0000
  C   C361      1.0  0.6465  0.95779  0.95776  1.0000
  C   C362      1.0  0.3637  0.03126  0.9686699999999998  1.0000
  C   C363      1.0  0.86632  0.41889  0.36615  1.0000
  C   C364      1.0  0.64681  0.04238  0.04241  1.0000
  C   C365      1.0  0.04087  0.04021  0.64385  1.0000
  C   C366      1.0  0.03116  0.96881  0.36368  1.0000
  C   C367      1.0  0.95991  0.95934  0.64369  1.0000
  C   C368      1.0  0.95721  0.04279  0.3523  1.0000
  C   C369      1.0  0.46077  0.6424699999999999  0.46019  1.0000
  C   C370      1.0  0.53922  0.35751  0.4602499999999999  1.0000
  C   C371      1.0  0.54319  0.6486  0.54322  1.0000
  C   C372      1.0  0.45942  0.35635  0.54002  1.0000
  C   C373      1.0  0.35217  0.45716  0.54289  1.0000
  C   C374      1.0  0.5807  0.86682  0.63292  1.0000
  C   C375      1.0  0.64247  0.4607999999999999  0.46027  1.0000
  C   C376      1.0  0.35753  0.53921  0.4601999999999999  1.0000
  C   C377      1.0  0.64407  0.5410599999999998  0.5403299999999998  1.0000
  C   C378      1.0  0.53985  0.54046  0.6432  1.0000
  C   C379      1.0  0.5315  0.46847  0.36359  1.0000
  C   C380      1.0  0.4597  0.46018  0.64326  1.0000
  C   C381      1.0  0.45711  0.54289  0.35211  1.0000
  C   C382      1.0  0.45963  0.25528  0.9596499999999998  1.0000
  C   C383      1.0  0.04036  0.7447  0.45967999999999987  1.0000
  C   C384      1.0  0.54026  0.25536  0.040309999999999985  1.0000
  H   H1        1.0  0.35335  0.44668  0.85326  1.0000
  H   H2        1.0  0.44678  0.35335999999999995  0.85326  1.0000
  H   H3        1.0  0.55305  0.14643  0.35344  1.0000
  H   H4        1.0  0.44666  0.64598  0.14594  1.0000
  H   H5        1.0  0.44668  0.14594  0.6459  1.0000
  H   H6        1.0  0.55306  0.64645  0.8534299999999998  1.0000
  H   H7        1.0  0.44676  0.85332  0.3532299999999999  1.0000
  H   H8        1.0  0.55309  0.35394  0.14597999999999994  1.0000
  H   H9        1.0  0.14636  0.64634  0.44631  1.0000
  H   H10       1.0  0.64611  0.85386  0.55244  1.0000
  H   H11       1.0  0.85333  0.35332  0.4462799999999999  1.0000
  H   H12       1.0  0.1464  0.55298  0.35349  1.0000
  H   H13       1.0  0.35391  0.14605  0.5524299999999998  1.0000
  H   H14       1.0  0.85391  0.64606  0.55245  1.0000
  H   H15       1.0  0.35337  0.85336  0.44632  1.0000
  H   H16       1.0  0.1461  0.35388  0.5524299999999998  1.0000
  H   H17       1.0  0.64641  0.14639  0.44626  1.0000
  H   H18       1.0  0.8533  0.94662  0.85321  1.0000
  H   H19       1.0  0.14639  0.05298  0.85349  1.0000
  H   H20       1.0  0.14599  0.9466  0.14594  1.0000
  H   H21       1.0  0.85394  0.05313  0.14599  1.0000
  H   H22       1.0  0.05304  0.854  0.14593  1.0000
  H   H23       1.0  0.64601  0.44658  0.14594999999999994  1.0000
  H   H24       1.0  0.94672  0.85328  0.8531999999999997  1.0000
  H   H25       1.0  0.053  0.14637  0.85349  1.0000
  H   H26       1.0  0.94662  0.14601  0.14597  1.0000
  H   H27       1.0  0.14633  0.14632  0.94633  1.0000
  H   H28       1.0  0.14606999999999998  0.85391  0.052389999999999985  1.0000
  H   H29       1.0  0.85329  0.85329  0.94625  1.0000
  H   H30       1.0  0.85389  0.14607  0.05247  1.0000
  H   H31       1.0  0.35335  0.94668  0.35326  1.0000
  H   H32       1.0  0.64645  0.05304  0.35343  1.0000
  H   H33       1.0  0.64604  0.94654  0.6459899999999997  1.0000
  H   H34       1.0  0.85395  0.5531099999999998  0.64597  1.0000
  H   H35       1.0  0.35399  0.05307  0.64592  1.0000
  H   H36       1.0  0.05307  0.35396  0.64596  1.0000
  H   H37       1.0  0.94673  0.35329  0.3532  1.0000
  H   H38       1.0  0.05297  0.64635  0.35353  1.0000
  H   H39       1.0  0.94663  0.646  0.64597  1.0000
  H   H40       1.0  0.64644  0.64643  0.94623  1.0000
  H   H41       1.0  0.64611  0.35386  0.05243999999999999  1.0000
  H   H42       1.0  0.35339  0.35339  0.94634  1.0000
  H   H43       1.0  0.35395  0.64601  0.05241  1.0000
  H   H44       1.0  0.354  0.55307  0.14594  1.0000
  H   H45       1.0  0.146  0.4465899999999999  0.64594  1.0000
  H   H46       1.0  0.64645  0.55305  0.85344  1.0000
  H   H47       1.0  0.85331  0.4466299999999999  0.35322  1.0000
  H   H48       1.0  0.55313  0.8539  0.64603  1.0000
  O   O1        1.0  0.49356  0.15622  0.94613  1.0000
  O   O2        1.0  0.15622  0.49355999999999994  0.94613  1.0000
  O   O3        1.0  0.9937000000000001  0.75813  0.55433  1.0000
  O   O4        1.0  0.44567  0.75813  0.006299999999999998  1.0000
  O   O5        1.0  0.0063  0.24187  0.55433  1.0000
  O   O6        1.0  0.5543300000000001  0.75813  0.9936999999999999  1.0000
  O   O7        1.0  0.9937000000000001  0.24187  0.44567  1.0000
  O   O8        1.0  0.75813  0.9937  0.55433  1.0000
  O   O9        1.0  0.24187000000000003  0.44567  0.9936999999999999  1.0000
  O   O10       1.0  0.75813  0.0063  0.44567  1.0000
  O   O11       1.0  0.24187  0.55433  0.006299999999999998  1.0000
  O   O12       1.0  0.24187  0.0063  0.55433  1.0000
  O   O13       1.0  0.84378  0.05386999999999999  0.49356000000000005  1.0000
  O   O14       1.0  0.75813  0.55433  0.9936999999999999  1.0000
  O   O15       1.0  0.24187  0.9937  0.44567  1.0000
  O   O16       1.0  0.75813  0.44567  0.006299999999999998  1.0000
  O   O17       1.0  0.0063  0.55433  0.24187  1.0000
  O   O18       1.0  0.5543300000000001  0.9937  0.75813  1.0000
  O   O19       1.0  0.9937000000000001  0.44567  0.24187  1.0000
  O   O20       1.0  0.44567  0.0063  0.75813  1.0000
  O   O21       1.0  0.9937000000000001  0.55433  0.75813  1.0000
  O   O22       1.0  0.44567  0.9937  0.24187  1.0000
  O   O23       1.0  0.006300000000000001  0.44567  0.75813  1.0000
  O   O24       1.0  0.15622  0.50644  0.05387  1.0000
  O   O25       1.0  0.5543300000000001  0.0063  0.24187  1.0000
  O   O26       1.0  0.94567  0.74187  0.9936999999999999  1.0000
  O   O27       1.0  0.006300000000000002  0.25813  0.94567  1.0000
  O   O28       1.0  0.05433  0.74187  0.006299999999999998  1.0000
  O   O29       1.0  0.9937000000000001  0.25813  0.05432999999999999  1.0000
  O   O30       1.0  0.94567  0.25813  0.006299999999999998  1.0000
  O   O31       1.0  0.0063  0.74187  0.05432999999999999  1.0000
  O   O32       1.0  0.05433  0.25813  0.9936999999999999  1.0000
  O   O33       1.0  0.9937000000000001  0.74187  0.94567  1.0000
  O   O34       1.0  0.25813  0.9937  0.05432999999999999  1.0000
  O   O35       1.0  0.15622  0.05386999999999999  0.5064399999999998  1.0000
  O   O36       1.0  0.74187  0.94567  0.9936999999999999  1.0000
  O   O37       1.0  0.25813  0.0063  0.94567  1.0000
  O   O38       1.0  0.74187  0.05433  0.006299999999999998  1.0000
  O   O39       1.0  0.74187  0.0063  0.05432999999999999  1.0000
  O   O40       1.0  0.25813  0.05433  0.9936999999999999  1.0000
  O   O41       1.0  0.74187  0.9937  0.94567  1.0000
  O   O42       1.0  0.25813  0.94567  0.006299999999999998  1.0000
  O   O43       1.0  0.006300000000000001  0.05433  0.74187  1.0000
  O   O44       1.0  0.05433  0.9937  0.25813  1.0000
  O   O45       1.0  0.9937000000000001  0.94567  0.74187  1.0000
  O   O46       1.0  0.84378  0.50644  0.94613  1.0000
  O   O47       1.0  0.94567  0.0063  0.25813  1.0000
  O   O48       1.0  0.9937000000000001  0.05433  0.25813  1.0000
  O   O49       1.0  0.94567  0.9937  0.74187  1.0000
  O   O50       1.0  0.006300000000000001  0.94567  0.25813  1.0000
  O   O51       1.0  0.05433  0.0063  0.74187  1.0000
  O   O52       1.0  0.94567  0.24187  0.4937  1.0000
  O   O53       1.0  0.5063  0.75813  0.94567  1.0000
  O   O54       1.0  0.05433  0.24187  0.5063  1.0000
  O   O55       1.0  0.4937  0.75813  0.05432999999999999  1.0000
  O   O56       1.0  0.94567  0.75813  0.5063  1.0000
  O   O57       1.0  0.15622  0.94613  0.49356000000000005  1.0000
  O   O58       1.0  0.5063  0.24187  0.05432999999999999  1.0000
  O   O59       1.0  0.05433  0.75813  0.4937  1.0000
  O   O60       1.0  0.4937  0.24187  0.94567  1.0000
  O   O61       1.0  0.75813  0.4937  0.05432999999999999  1.0000
  O   O62       1.0  0.24187000000000003  0.94567  0.4937  1.0000
  O   O63       1.0  0.75813  0.5063  0.94567  1.0000
  O   O64       1.0  0.24187  0.05433  0.5063  1.0000
  O   O65       1.0  0.24187000000000003  0.5063  0.05432999999999999  1.0000
  O   O66       1.0  0.75813  0.05433  0.4937  1.0000
  O   O67       1.0  0.24186999999999997  0.4937  0.94567  1.0000
  O   O68       1.0  0.84378  0.49355999999999994  0.05387  1.0000
  O   O69       1.0  0.75813  0.94567  0.5063  1.0000
  O   O70       1.0  0.5063  0.05433  0.24187  1.0000
  O   O71       1.0  0.05433  0.4937  0.75813  1.0000
  O   O72       1.0  0.4937  0.94567  0.24187  1.0000
  O   O73       1.0  0.94567  0.5063  0.75813  1.0000
  O   O74       1.0  0.4937  0.05433  0.75813  1.0000
  O   O75       1.0  0.94567  0.4937  0.24187  1.0000
  O   O76       1.0  0.5063  0.94567  0.75813  1.0000
  O   O77       1.0  0.05433  0.5063  0.24187  1.0000
  O   O78       1.0  0.44567  0.74187  0.4937  1.0000
  O   O79       1.0  0.05387  0.50644  0.15621999999999994  1.0000
  O   O80       1.0  0.5063  0.25813  0.44567  1.0000
  O   O81       1.0  0.5543300000000001  0.74187  0.5063  1.0000
  O   O82       1.0  0.4937  0.25813  0.55433  1.0000
  O   O83       1.0  0.44567  0.25813  0.5063  1.0000
  O   O84       1.0  0.5063  0.74187  0.55433  1.0000
  O   O85       1.0  0.5543300000000001  0.25813  0.4937  1.0000
  O   O86       1.0  0.4937  0.74187  0.44567  1.0000
  O   O87       1.0  0.25813  0.4937  0.55433  1.0000
  O   O88       1.0  0.74187  0.44567  0.4937  1.0000
  O   O89       1.0  0.25813  0.5063  0.44567  1.0000
  O   O90       1.0  0.50644  0.94613  0.84378  1.0000
  O   O91       1.0  0.74187  0.55433  0.5063  1.0000
  O   O92       1.0  0.74187  0.5063  0.55433  1.0000
  O   O93       1.0  0.25813  0.55433  0.4937  1.0000
  O   O94       1.0  0.74187  0.4937  0.44567  1.0000
  O   O95       1.0  0.25813  0.44567  0.5063  1.0000
  O   O96       1.0  0.5063  0.55433  0.74187  1.0000
  O   O97       1.0  0.5543300000000001  0.4937  0.25813  1.0000
  O   O98       1.0  0.4937  0.44567  0.74187  1.0000
  O   O99       1.0  0.44567  0.5063  0.25813  1.0000
  O   O100      1.0  0.4937  0.55433  0.25813  1.0000
  O   O101      1.0  0.94613  0.49355999999999994  0.15621999999999994  1.0000
  O   O102      1.0  0.44567  0.4937  0.74187  1.0000
  O   O103      1.0  0.5063  0.44567  0.25813  1.0000
  O   O104      1.0  0.5543300000000001  0.5063  0.74187  1.0000
  O   O105      1.0  0.05387  0.84378  0.49356000000000005  1.0000
  O   O106      1.0  0.49356  0.05386999999999999  0.84378  1.0000
  O   O107      1.0  0.94613  0.50644  0.84378  1.0000
  O   O108      1.0  0.49356  0.94613  0.15621999999999994  1.0000
  O   O109      1.0  0.05387  0.49355999999999994  0.84378  1.0000
  O   O110      1.0  0.50644  0.05386999999999999  0.15621999999999994  1.0000
  O   O111      1.0  0.99356  0.65622  0.94613  1.0000
  O   O112      1.0  0.05387  0.34378  0.99356  1.0000
  O   O113      1.0  0.00644  0.65622  0.05387  1.0000
  O   O114      1.0  0.94613  0.34378  0.006439999999999999  1.0000
  O   O115      1.0  0.99356  0.34378  0.05387  1.0000
  O   O116      1.0  0.50644  0.15622  0.05387  1.0000
  O   O117      1.0  0.05387  0.65622  0.006439999999999999  1.0000
  O   O118      1.0  0.006440000000000001  0.34378  0.94613  1.0000
  O   O119      1.0  0.94613  0.65622  0.99356  1.0000
  O   O120      1.0  0.34378  0.94613  0.006439999999999999  1.0000
  O   O121      1.0  0.65622  0.99356  0.94613  1.0000
  O   O122      1.0  0.34378  0.05386999999999999  0.99356  1.0000
  O   O123      1.0  0.65622  0.00644  0.05387  1.0000
  O   O124      1.0  0.65622  0.05386999999999999  0.006439999999999999  1.0000
  O   O125      1.0  0.34378  0.00644  0.94613  1.0000
  O   O126      1.0  0.65622  0.94613  0.99356  1.0000
  O   O127      1.0  0.94613  0.84378  0.5064399999999998  1.0000
  O   O128      1.0  0.34378  0.99356  0.05387  1.0000
  O   O129      1.0  0.05387  0.00644  0.65622  1.0000
  O   O130      1.0  0.0064399999999999995  0.94613  0.34378  1.0000
  O   O131      1.0  0.94613  0.99356  0.65622  1.0000
  O   O132      1.0  0.99356  0.05386999999999999  0.34378  1.0000
  O   O133      1.0  0.94613  0.00644  0.34378  1.0000
  O   O134      1.0  0.99356  0.94613  0.65622  1.0000
  O   O135      1.0  0.05387  0.99356  0.34378  1.0000
  O   O136      1.0  0.00644  0.05386999999999999  0.65622  1.0000
  O   O137      1.0  0.99356  0.15622  0.44613  1.0000
  O   O138      1.0  0.49356  0.84378  0.05387  1.0000
  O   O139      1.0  0.55387  0.84378  0.99356  1.0000
  O   O140      1.0  0.00644  0.15622  0.55387  1.0000
  O   O141      1.0  0.44613  0.84378  0.006439999999999999  1.0000
  O   O142      1.0  0.99356  0.84378  0.55387  1.0000
  O   O143      1.0  0.55387  0.15622  0.006439999999999999  1.0000
  O   O144      1.0  0.00644  0.84378  0.44613  1.0000
  O   O145      1.0  0.44613  0.15622  0.99356  1.0000
  O   O146      1.0  0.84378  0.44613  0.006439999999999999  1.0000
  O   O147      1.0  0.15622  0.99356  0.44613  1.0000
  O   O148      1.0  0.84378  0.55387  0.99356  1.0000
  O   O149      1.0  0.05387  0.15622  0.5064399999999998  1.0000
  O   O150      1.0  0.15622  0.00644  0.55387  1.0000
  O   O151      1.0  0.15622  0.55387  0.006439999999999999  1.0000
  O   O152      1.0  0.84378  0.00644  0.44613  1.0000
  O   O153      1.0  0.15622  0.44613  0.99356  1.0000
  O   O154      1.0  0.84378  0.99356  0.55387  1.0000
  O   O155      1.0  0.55387  0.00644  0.15621999999999994  1.0000
  O   O156      1.0  0.0064399999999999995  0.44613  0.84378  1.0000
  O   O157      1.0  0.44613  0.99356  0.15621999999999994  1.0000
  O   O158      1.0  0.99356  0.55387  0.84378  1.0000
  O   O159      1.0  0.44613  0.00644  0.84378  1.0000
  O   O160      1.0  0.50644  0.84378  0.94613  1.0000
  O   O161      1.0  0.99356  0.44613  0.15621999999999994  1.0000
  O   O162      1.0  0.55387  0.99356  0.84378  1.0000
  O   O163      1.0  0.006440000000000003  0.55387  0.15621999999999994  1.0000
  O   O164      1.0  0.49356  0.65622  0.44613  1.0000
  O   O165      1.0  0.55387  0.34378  0.49356000000000005  1.0000
  O   O166      1.0  0.50644  0.65622  0.55387  1.0000
  O   O167      1.0  0.44613  0.34378  0.5064399999999998  1.0000
  O   O168      1.0  0.49356  0.34378  0.55387  1.0000
  O   O169      1.0  0.55387  0.65622  0.5064399999999998  1.0000
  O   O170      1.0  0.50644  0.34378  0.44613  1.0000
  O   O171      1.0  0.94613  0.15622  0.49356000000000005  1.0000
  O   O172      1.0  0.44613  0.65622  0.49356000000000005  1.0000
  O   O173      1.0  0.34378  0.44613  0.5064399999999998  1.0000
  O   O174      1.0  0.65622  0.49355999999999994  0.44613  1.0000
  O   O175      1.0  0.34378  0.55387  0.49356000000000005  1.0000
  O   O176      1.0  0.65622  0.50644  0.55387  1.0000
  O   O177      1.0  0.65622  0.55387  0.5064399999999998  1.0000
  O   O178      1.0  0.34378  0.50644  0.44613  1.0000
  O   O179      1.0  0.65622  0.44613  0.49356000000000005  1.0000
  O   O180      1.0  0.34378  0.49355999999999994  0.55387  1.0000
  O   O181      1.0  0.55387  0.50644  0.65622  1.0000
  O   O182      1.0  0.84378  0.94613  0.5064399999999998  1.0000
  O   O183      1.0  0.50644  0.44613  0.34378  1.0000
  O   O184      1.0  0.44613  0.49355999999999994  0.65622  1.0000
  O   O185      1.0  0.49356  0.55387  0.34378  1.0000
  O   O186      1.0  0.44613  0.50644  0.34378  1.0000
  O   O187      1.0  0.49356  0.44613  0.65622  1.0000
  O   O188      1.0  0.55387  0.49355999999999994  0.34378  1.0000
  O   O189      1.0  0.50644  0.55387  0.65622  1.0000
  O   O190      1.0  0.44567  0.24187  0.9936999999999999  1.0000
  O   O191      1.0  0.006300000000000001  0.75813  0.44567  1.0000
  O   O192      1.0  0.5543300000000001  0.24187  0.006299999999999998  1.0000
  Zn  Zn1       1.0  0.53199  0.19994  0.96801  1.0000
  Zn  Zn2       1.0  0.19994  0.53199  0.96801  1.0000
  Zn  Zn3       1.0  0.80006  0.03199  0.5319899999999999  1.0000
  Zn  Zn4       1.0  0.19994  0.46800999999999987  0.03199  1.0000
  Zn  Zn5       1.0  0.19994  0.031990000000000005  0.46800999999999987  1.0000
  Zn  Zn6       1.0  0.80006  0.46800999999999987  0.96801  1.0000
  Zn  Zn7       1.0  0.19994  0.96801  0.5319899999999999  1.0000
  Zn  Zn8       1.0  0.80006  0.53199  0.03199  1.0000
  Zn  Zn9       1.0  0.03199  0.46800999999999987  0.19994  1.0000
  Zn  Zn10      1.0  0.46801  0.96801  0.80006  1.0000
  Zn  Zn11      1.0  0.96801  0.53199  0.19994  1.0000
  Zn  Zn12      1.0  0.03198999999999999  0.80006  0.5319899999999999  1.0000
  Zn  Zn13      1.0  0.53199  0.03199  0.80006  1.0000
  Zn  Zn14      1.0  0.96801  0.46800999999999987  0.80006  1.0000
  Zn  Zn15      1.0  0.53199  0.96801  0.19994  1.0000
  Zn  Zn16      1.0  0.03199  0.53199  0.80006  1.0000
  Zn  Zn17      1.0  0.46801  0.03199  0.19994  1.0000
  Zn  Zn18      1.0  0.03199  0.69994  0.96801  1.0000
  Zn  Zn19      1.0  0.03199  0.30006  0.03199  1.0000
  Zn  Zn20      1.0  0.96801  0.69994  0.03199  1.0000
  Zn  Zn21      1.0  0.96801  0.30006  0.96801  1.0000
  Zn  Zn22      1.0  0.30006  0.96801  0.96801  1.0000
  Zn  Zn23      1.0  0.46801  0.19994  0.03199  1.0000
  Zn  Zn24      1.0  0.69994  0.03199  0.96801  1.0000
  Zn  Zn25      1.0  0.30006  0.03199  0.03199  1.0000
  Zn  Zn26      1.0  0.69994  0.96801  0.03199  1.0000
  Zn  Zn27      1.0  0.03199  0.96801  0.69994  1.0000
  Zn  Zn28      1.0  0.96801  0.96801  0.3000599999999999  1.0000
  Zn  Zn29      1.0  0.96801  0.03199  0.69994  1.0000
  Zn  Zn30      1.0  0.03199  0.03199  0.3000599999999999  1.0000
  Zn  Zn31      1.0  0.53199  0.69994  0.46800999999999987  1.0000
  Zn  Zn32      1.0  0.53199  0.30006  0.5319899999999999  1.0000
  Zn  Zn33      1.0  0.46801  0.69994  0.5319899999999999  1.0000
  Zn  Zn34      1.0  0.96801  0.80006  0.46800999999999987  1.0000
  Zn  Zn35      1.0  0.46801  0.30006  0.46800999999999987  1.0000
  Zn  Zn36      1.0  0.30006  0.46800999999999987  0.46800999999999987  1.0000
  Zn  Zn37      1.0  0.69994  0.53199  0.46800999999999987  1.0000
  Zn  Zn38      1.0  0.30006  0.53199  0.5319899999999999  1.0000
  Zn  Zn39      1.0  0.69994  0.46800999999999987  0.5319899999999999  1.0000
  Zn  Zn40      1.0  0.53199  0.46800999999999987  0.69994  1.0000
  Zn  Zn41      1.0  0.46801  0.46800999999999987  0.3000599999999999  1.0000
  Zn  Zn42      1.0  0.46801  0.53199  0.69994  1.0000
  Zn  Zn43      1.0  0.53199  0.53199  0.3000599999999999  1.0000
  Zn  Zn44      1.0  0.53199  0.80006  0.03199  1.0000
  Zn  Zn45      1.0  0.03199  0.19994  0.46800999999999987  1.0000
  Zn  Zn46      1.0  0.46801  0.80006  0.96801  1.0000
  Zn  Zn47      1.0  0.96801  0.19994  0.5319899999999999  1.0000
  Zn  Zn48      1.0  0.80006  0.96801  0.46800999999999987  1.0000
