data_image0
_chemical_formula_structural       C152H8O52Zn16NHCH3NHCH3NHCH3NHCH3NHCH3NHCH3NHCH3NHCH3NHCH3NHCH3NHCH3NHCH3NHCH3NHCH3NHCH3NHCH3SO3HSO3HSO3HSO3HSO3HSO3HSO3HSO3HSO3HSO3HSO3HSO3HSO3HSO3HSO3HSO3HSO3HSO3HSO3HSO3HSO3HSO3HSO3HSO3HSO3HSO3HSO3HSO3HSO3HSO3HSO3HSO3HSO3HSO3HSO3HSO3HSO3HSO3HSO3HSO3HSO3HSO3HSO3HSO3HSO3HSO3HSO3HSO3HNHCH3NHCH3NHCH3NHCH3NHCH3NHCH3NHCH3NHCH3
_chemical_formula_sum              "C176 H152 O196 Zn16 N24 S48"
_cell_length_a       18.92712
_cell_length_b       18.949959999999997
_cell_length_c       34.23526999999999
_cell_angle_alpha    89.83129000000001
_cell_angle_beta     90.2254
_cell_angle_gamma    90.13935

_space_group_name_H-M_alt    "P 1"
_space_group_IT_number       1

loop_
  _space_group_symop_operation_xyz
  'x, y, z'

loop_
  _atom_site_type_symbol
  _atom_site_label
  _atom_site_symmetry_multiplicity
  _atom_site_fract_x
  _atom_site_fract_y
  _atom_site_fract_z
  _atom_site_occupancy
  C   C1        1.0  5.9999999999999785e-05  0.49914  0.8942  1.0000
  C   C2        1.0  0.49971  0.00029000000000000027  0.89418  1.0000
  C   C3        1.0  0.49994  0.0009999999999999998  0.39412  1.0000
  C   C4        1.0  0.00065  0.50069  0.39416  1.0000
  C   C5        1.0  0.56847  0.012590000000000002  0.78955  1.0000
  C   C6        1.0  0.01107  0.56398  0.78903  1.0000
  C   C7        1.0  0.43709999999999993  0.9908699999999999  0.78879  1.0000
  C   C8        1.0  0.0011800000000000003  0.4344100000000001  0.78885  1.0000
  C   C9        1.0  0.07584999999999999  0.51455  0.28961  1.0000
  C   C10       1.0  0.48838  0.06801  0.2885  1.0000
  C   C11       1.0  0.94375  0.51131  0.28846  1.0000
  C   C12       1.0  0.51287  0.9397300000000001  0.28866  1.0000
  C   C13       1.0  0.50315  0.0009500000000000003  0.76958  1.0000
  C   C14       1.0  0.006819999999999999  0.4994  0.76892  1.0000
  C   C15       1.0  0.00988  0.51024  0.26927  1.0000
  C   C16       1.0  0.50124  0.00404  0.26882  1.0000
  C   C17       1.0  0.6270099999999998  0.03837  0.76563  1.0000
  C   C18       1.0  0.01996  0.6267  0.76663  1.0000
  C   C19       1.0  0.3799  0.96181  0.7651199999999999  1.0000
  C   C20       1.0  0.9940999999999999  0.37213  0.76614  1.0000
  C   C21       1.0  0.13736  0.53212  0.26521  1.0000
  C   C22       1.0  0.46898999999999996  0.12773  0.2648  1.0000
  C   C23       1.0  0.88146  0.50759  0.265  1.0000
  C   C24       1.0  0.52664  0.87896  0.26538  1.0000
  C   C25       1.0  0.12487  0.55722  0.22668  1.0000
  C   C26       1.0  0.43803  0.1141  0.22816  1.0000
  C   C27       1.0  0.88642  0.4683399999999999  0.2306  1.0000
  C   C28       1.0  0.5612799999999999  0.89142  0.22983  1.0000
  C   C29       1.0  0.6103999999999999  0.06879  0.72896  1.0000
  C   C30       1.0  0.99461  0.62772  0.7281  1.0000
  C   C31       1.0  0.39809999999999995  0.92846  0.72981  1.0000
  C   C32       1.0  0.022710000000000004  0.37254  0.72844  1.0000
  C   C33       1.0  0.06509  0.53281  0.20666  1.0000
  C   C34       1.0  0.46399999999999997  0.05591  0.20721  1.0000
  C   C35       1.0  0.94886  0.4767700000000001  0.2091  1.0000
  C   C36       1.0  0.53769  0.94976  0.20808  1.0000
  C   C37       1.0  0.55334  0.03998  0.70814  1.0000
  C   C38       1.0  0.9933699999999999  0.56341  0.70745  1.0000
  C   C39       1.0  0.45416999999999996  0.9575399999999998  0.70862  1.0000
  C   C40       1.0  0.019489999999999997  0.43639  0.70739  1.0000
  C   C41       1.0  0.00887  0.50529  0.22826  1.0000
  C   C42       1.0  0.50143  0.00369  0.22789  1.0000
  C   C43       1.0  0.50367  0.99938  0.72863  1.0000
  C   C44       1.0  0.00673  0.49978  0.72782  1.0000
  C   C45       1.0  0.05852  0.5358400000000001  0.16592  1.0000
  C   C46       1.0  0.45716999999999997  0.04881  0.16684  1.0000
  C   C47       1.0  0.9512299999999999  0.46596  0.16885  1.0000
  C   C48       1.0  0.54373  0.9538900000000001  0.16767  1.0000
  C   C49       1.0  0.5454399999999999  0.04671  0.66765  1.0000
  C   C50       1.0  0.98328  0.56049  0.66712  1.0000
  C   C51       1.0  0.46008  0.9511  0.66812  1.0000
  C   C52       1.0  0.02392  0.43884000000000006  0.66676  1.0000
  C   C53       1.0  0.00374  0.4996499999999999  0.14735  1.0000
  C   C54       1.0  0.50041  0.0009100000000000002  0.14722  1.0000
  C   C55       1.0  0.50182  0.9993700000000001  0.64768  1.0000
  C   C56       1.0  0.0014299999999999998  0.49934  0.64704  1.0000
  C   C57       1.0  0.0002600000000000003  0.49984  0.10523  1.0000
  C   C58       1.0  0.50012  0.99998  0.10521  1.0000
  C   C59       1.0  0.50032  0.9998700000000001  0.60534  1.0000
  C   C60       1.0  0.00024000000000000025  0.4997400000000001  0.60513  1.0000
  C   C61       1.0  0.8597799999999999  0.63999  0.00016  1.0000
  C   C62       1.0  0.36069  0.85993  0.00053  1.0000
  C   C63       1.0  0.13952  0.3599  0.00023000000000000003  1.0000
  C   C64       1.0  0.6404399999999999  0.13919  0.99999  1.0000
  C   C65       1.0  0.13909999999999997  0.64084  0.9992000000000001  1.0000
  C   C66       1.0  0.63891  0.85951  0.00081  1.0000
  C   C67       1.0  0.8600699999999999  0.35994  0.99973  1.0000
  C   C68       1.0  0.36058  0.14044  0.00051  1.0000
  C   C69       1.0  0.36049999999999993  0.14053  0.49993  1.0000
  C   C70       1.0  0.85964  0.36077  0.4996999999999999  1.0000
  C   C71       1.0  0.6395699999999999  0.85952  0.5001  1.0000
  C   C72       1.0  0.14036  0.6393200000000001  0.49992  1.0000
  C   C73       1.0  0.63942  0.14034  0.49935999999999997  1.0000
  C   C74       1.0  0.13966  0.36013  0.5005  1.0000
  C   C75       1.0  0.3602  0.8598400000000002  0.49952  1.0000
  C   C76       1.0  0.86052  0.63998  0.50052  1.0000
  C   C77       1.0  0.23421999999999998  0.71823  0.96665  1.0000
  C   C78       1.0  0.30431  0.25498  0.97696  1.0000
  C   C79       1.0  0.76173  0.28685  0.96766  1.0000
  C   C80       1.0  0.69307  0.7466  0.9766500000000001  1.0000
  C   C81       1.0  0.74649  0.69792  0.975  1.0000
  C   C82       1.0  0.7139699999999999  0.23256  0.9676700000000001  1.0000
  C   C83       1.0  0.25153  0.30434  0.97613  1.0000
  C   C84       1.0  0.28975  0.76496  0.96819  1.0000
  C   C85       1.0  0.73769  0.21278  0.46638  1.0000
  C   C86       1.0  0.803  0.7509  0.47592  1.0000
  C   C87       1.0  0.25956  0.78923  0.46737999999999996  1.0000
  C   C88       1.0  0.19593  0.24843999999999997  0.47640999999999994  1.0000
  C   C89       1.0  0.24895  0.19964  0.47491000000000005  1.0000
  C   C90       1.0  0.21126999999999999  0.73523  0.46747  1.0000
  C   C91       1.0  0.74979  0.79946  0.4745  1.0000
  C   C92       1.0  0.78851  0.26464  0.46682  1.0000
  C   C93       1.0  0.19543  0.6968  0.9998199999999999  1.0000
  C   C94       1.0  0.30483  0.19646  0.00197  1.0000
  C   C95       1.0  0.80321  0.3048  0.00049  1.0000
  C   C96       1.0  0.69254  0.80232  0.00311  1.0000
  C   C97       1.0  0.8028899999999999  0.69534  0.0019  1.0000
  C   C98       1.0  0.69761  0.19326  0.00084  1.0000
  C   C99       1.0  0.1941  0.30323  0.00145  1.0000
  C   C100      1.0  0.30578  0.80372  0.0017  1.0000
  C   C101      1.0  0.69539  0.1963  0.49915999999999994  1.0000
  C   C102      1.0  0.805  0.69544  0.50243  1.0000
  C   C103      1.0  0.30326999999999993  0.8048  0.49983999999999995  1.0000
  C   C104      1.0  0.19542  0.30479  0.50225  1.0000
  C   C105      1.0  0.30577  0.19775  0.5011  1.0000
  C   C106      1.0  0.19726  0.69373  0.50038  1.0000
  C   C107      1.0  0.6945  0.80235  0.50145  1.0000
  C   C108      1.0  0.80292  0.30605  0.49985999999999997  1.0000
  C   C109      1.0  0.21462  0.73052  0.03545  1.0000
  C   C110      1.0  0.24704999999999996  0.19254000000000002  0.02861  1.0000
  C   C111      1.0  0.78887  0.26613  0.03519  1.0000
  C   C112      1.0  0.747  0.80163  0.03201  1.0000
  C   C113      1.0  0.8014  0.74899  0.03158  1.0000
  C   C114      1.0  0.73883  0.20891  0.03519  1.0000
  C   C115      1.0  0.19235  0.24484999999999998  0.0284  1.0000
  C   C116      1.0  0.26613  0.78639  0.03608  1.0000
  C   C117      1.0  0.7090699999999998  0.2361  0.53349  1.0000
  C   C118      1.0  0.7491599999999999  0.69387  0.5305  1.0000
  C   C119      1.0  0.29057  0.76441  0.53419  1.0000
  C   C120      1.0  0.25281999999999993  0.30724  0.52947  1.0000
  C   C121      1.0  0.30735  0.25459  0.52894  1.0000
  C   C122      1.0  0.24045999999999995  0.70746  0.53415  1.0000
  C   C123      1.0  0.6945799999999999  0.74654  0.53004  1.0000
  C   C124      1.0  0.75965  0.29251  0.53351  1.0000
  C   C125      1.0  0.2943  0.77431  0.92453  1.0000
  C   C126      1.0  0.28032  0.34129  0.94077  1.0000
  C   C127      1.0  0.70509  0.23206000000000002  0.92398  1.0000
  C   C128      1.0  0.7190199999999999  0.66869  0.9369800000000001  1.0000
  C   C129      1.0  0.65364  0.71864  0.94188  1.0000
  C   C130      1.0  0.75601  0.29808  0.92414  1.0000
  C   C131      1.0  0.34757999999999994  0.29401  0.94741  1.0000
  C   C132      1.0  0.23014999999999997  0.72082  0.92251  1.0000
  C   C133      1.0  0.80578  0.25729  0.42391  1.0000
  C   C134      1.0  0.7733099999999999  0.82684  0.4356  1.0000
  C   C135      1.0  0.19519  0.74042  0.42448  1.0000
  C   C136      1.0  0.22338999999999998  0.17184  0.43643  1.0000
  C   C137      1.0  0.15762  0.22054  0.44155  1.0000
  C   C138      1.0  0.25016  0.80274  0.42394  1.0000
  C   C139      1.0  0.8391  0.77762  0.44014  1.0000
  C   C140      1.0  0.74793  0.19744  0.42339  1.0000
  C   C141      1.0  0.43599  0.00455  0.8299  1.0000
  C   C142      1.0  0.00282  0.43349000000000004  0.83033  1.0000
  C   C143      1.0  0.56773  0.0011700000000000005  0.8311  1.0000
  C   C144      1.0  0.0031099999999999995  0.56422  0.83022  1.0000
  C   C145      1.0  0.94127  0.51455  0.3295  1.0000
  C   C146      1.0  0.50808  0.93787  0.32991  1.0000
  C   C147      1.0  0.07247  0.50347  0.3316  1.0000
  C   C148      1.0  0.49224999999999997  0.06828  0.33015  1.0000
  C   C149      1.0  0.5012  0.0016000000000000012  0.85091  1.0000
  C   C150      1.0  0.0010199999999999996  0.49882000000000004  0.85091  1.0000
  C   C151      1.0  0.00487  0.50436  0.35094  1.0000
  C   C152      1.0  0.50005  0.0025300000000000006  0.35076  1.0000
  H   H1        1.0  0.09706  0.56177  0.14783  1.0000
  H   H2        1.0  0.42327  0.08315  0.14997  1.0000
  H   H3        1.0  0.90918  0.43879  0.15354  1.0000
  H   H4        1.0  0.57617  0.91702  0.15167  1.0000
  H   H5        1.0  0.57636  0.08364  0.65087  1.0000
  H   H6        1.0  0.9663299999999999  0.60623  0.65062  1.0000
  H   H7        1.0  0.42821  0.9144  0.65172  1.0000
  H   H8        1.0  0.03939  0.39309000000000005  0.65001  1.0000
  O   O1        1.0  0.0  0.5  0.99999  1.0000
  O   O2        1.0  0.5  0.0  0.99999  1.0000
  O   O3        1.0  0.5  0.0  0.49999  1.0000
  O   O4        1.0  0.0  0.5  0.49999  1.0000
  O   O5        1.0  0.06074  0.5  0.91256  1.0000
  O   O6        1.0  0.5  0.06074000000000001  0.91256  1.0000
  O   O7        1.0  0.93926  0.5  0.91256  1.0000
  O   O8        1.0  0.5  0.93926  0.91256  1.0000
  O   O9        1.0  0.56074  0.0  0.41256  1.0000
  O   O10       1.0  0.0  0.56074  0.41256  1.0000
  O   O11       1.0  0.43925999999999993  0.0  0.41256  1.0000
  O   O12       1.0  0.0  0.43926000000000004  0.41256  1.0000
  O   O13       1.0  1.833055928188554e-19  0.56068  0.08742  1.0000
  O   O14       1.0  0.43931999999999993  0.0  0.08742  1.0000
  O   O15       1.0  0.0  0.43932  0.08742  1.0000
  O   O16       1.0  0.56068  0.0  0.08742  1.0000
  O   O17       1.0  0.5  0.060680000000000005  0.58742  1.0000
  O   O18       1.0  0.93932  0.5  0.58742  1.0000
  O   O19       1.0  0.5  0.93932  0.58742  1.0000
  O   O20       1.0  0.06068  0.5  0.58742  1.0000
  O   O21       1.0  0.85384  0.58543  0.97707  1.0000
  O   O22       1.0  0.41456999999999994  0.8538400000000002  0.97707  1.0000
  O   O23       1.0  0.14616  0.41457  0.97707  1.0000
  O   O24       1.0  0.58543  0.14616  0.97707  1.0000
  O   O25       1.0  0.14616  0.58543  0.97707  1.0000
  O   O26       1.0  0.58543  0.8538400000000002  0.97707  1.0000
  O   O27       1.0  0.85384  0.41457  0.97707  1.0000
  O   O28       1.0  0.41456999999999994  0.14616  0.97707  1.0000
  O   O29       1.0  0.35384  0.08543  0.47707  1.0000
  O   O30       1.0  0.91457  0.35384  0.47707  1.0000
  O   O31       1.0  0.6461599999999998  0.91457  0.47707  1.0000
  O   O32       1.0  0.08543000000000002  0.64616  0.47707  1.0000
  O   O33       1.0  0.6461599999999998  0.08543  0.47707  1.0000
  O   O34       1.0  0.08543  0.35384  0.47707  1.0000
  O   O35       1.0  0.35384  0.91457  0.47707  1.0000
  O   O36       1.0  0.91457  0.64616  0.47707  1.0000
  O   O37       1.0  0.08545  0.35382  0.02291  1.0000
  O   O38       1.0  0.64618  0.08545  0.02291  1.0000
  O   O39       1.0  0.91455  0.64618  0.02291  1.0000
  O   O40       1.0  0.35382  0.91455  0.02291  1.0000
  O   O41       1.0  0.91455  0.35382  0.02291  1.0000
  O   O42       1.0  0.35382  0.08545  0.02291  1.0000
  O   O43       1.0  0.08545  0.64618  0.02291  1.0000
  O   O44       1.0  0.64618  0.91455  0.02291  1.0000
  O   O45       1.0  0.58545  0.8538200000000001  0.52291  1.0000
  O   O46       1.0  0.14618  0.58545  0.52291  1.0000
  O   O47       1.0  0.41455  0.14618  0.52291  1.0000
  O   O48       1.0  0.85382  0.41455  0.52291  1.0000
  O   O49       1.0  0.41455  0.8538200000000001  0.52291  1.0000
  O   O50       1.0  0.85382  0.58545  0.52291  1.0000
  O   O51       1.0  0.58545  0.14618  0.52291  1.0000
  O   O52       1.0  0.14618  0.41455  0.52291  1.0000
  Zn  Zn1       1.0  0.0  0.58673  0.03274  1.0000
  Zn  Zn2       1.0  0.41327  0.0  0.03274  1.0000
  Zn  Zn3       1.0  0.0  0.41327  0.03274  1.0000
  Zn  Zn4       1.0  0.5867299999999999  0.0  0.03274  1.0000
  Zn  Zn5       1.0  0.5  0.08673  0.53274  1.0000
  Zn  Zn6       1.0  0.9132699999999999  0.5  0.53274  1.0000
  Zn  Zn7       1.0  0.4999999999999999  0.91327  0.53274  1.0000
  Zn  Zn8       1.0  0.08673  0.5  0.53274  1.0000
  Zn  Zn9       1.0  0.9132499999999999  0.5  0.96724  1.0000
  Zn  Zn10      1.0  0.5000000000000001  0.91325  0.96724  1.0000
  Zn  Zn11      1.0  0.08674999999999998  0.5  0.96724  1.0000
  Zn  Zn12      1.0  0.5  0.08675  0.96724  1.0000
  Zn  Zn13      1.0  0.41325  0.0  0.46724  1.0000
  Zn  Zn14      1.0  0.0  0.41325  0.46724  1.0000
  Zn  Zn15      1.0  0.58675  0.0  0.46724  1.0000
  Zn  Zn16      1.0  1.833055928188554e-19  0.58675  0.46724  1.0000
  N   N1        1.0  0.18763  0.70314  0.07127  1.0000
  H   H9        1.0  0.22567  0.68617  0.09073  1.0000
  C   C153      1.0  0.12997  0.7411  0.0892  1.0000
  H   H10       1.0  0.09371999999999998  0.70281  0.10341  1.0000
  H   H11       1.0  0.09918  0.77178  0.06724  1.0000
  H   H12       1.0  0.15073  0.77691  0.11217  1.0000
  N   N2        1.0  0.24309  0.1352  0.05555  1.0000
  H   H13       1.0  0.21212  0.09299  0.0472  1.0000
  C   C154      1.0  0.24448  0.15090000000000003  0.09691  1.0000
  H   H14       1.0  0.28247  0.11505  0.11172  1.0000
  H   H15       1.0  0.19126  0.14204  0.10965  1.0000
  H   H16       1.0  0.2611  0.20631  0.1025  1.0000
  N   N3        1.0  0.81778  0.29125  0.07114  1.0000
  H   H17       1.0  0.78158  0.31167  0.09041  1.0000
  C   C155      1.0  0.8736  0.25041  0.08914  1.0000
  H   H18       1.0  0.90977  0.28653  0.10509  1.0000
  H   H19       1.0  0.90494  0.2216  0.0669  1.0000
  H   H20       1.0  0.8509  0.21291000000000002  0.11072  1.0000
  N   N4        1.0  0.7473199999999999  0.85434  0.06162  1.0000
  H   H21       1.0  0.7786  0.8979900000000001  0.05658  1.0000
  C   C156      1.0  0.74054  0.83207  0.10194  1.0000
  H   H22       1.0  0.70055  0.86548  0.11657  1.0000
  H   H23       1.0  0.7919  0.83874  0.11734  1.0000
  H   H24       1.0  0.72344  0.77602  0.10419  1.0000
  N   N5        1.0  0.8526  0.75095  0.062169999999999996  1.0000
  H   H25       1.0  0.86304  0.70385  0.07611  1.0000
  C   C157      1.0  0.9131199999999999  0.79602  0.05518  1.0000
  H   H26       1.0  0.94824  0.79542  0.08123  1.0000
  H   H27       1.0  0.89592  0.85118  0.04989  1.0000
  H   H28       1.0  0.94339  0.77747  0.02949  1.0000
  N   N6        1.0  0.73202  0.16783  0.06992  1.0000
  H   H29       1.0  0.68087  0.15827  0.07867  1.0000
  C   C158      1.0  0.77747  0.10617  0.07191  1.0000
  H   H30       1.0  0.77756  0.08471  0.10213  1.0000
  H   H31       1.0  0.83256  0.11950000000000001  0.06379  1.0000
  H   H32       1.0  0.75921  0.06416  0.05183  1.0000
  N   N7        1.0  0.13662  0.23643999999999998  0.05586  1.0000
  H   H33       1.0  0.12507  0.27956  0.07293  1.0000
  C   C159      1.0  0.07666  0.19579000000000002  0.04224  1.0000
  H   H34       1.0  0.03853  0.18867  0.06649  1.0000
  H   H35       1.0  0.09399  0.14281  0.03238  1.0000
  H   H36       1.0  0.04983  0.22318  0.01761  1.0000
  N   N8        1.0  0.27662999999999993  0.82402  0.07167  1.0000
  H   H37       1.0  0.32851  0.83416  0.07899  1.0000
  C   C160      1.0  0.22972  0.8835999999999999  0.07756  1.0000
  H   H38       1.0  0.22400999999999996  0.89355  0.10933  1.0000
  H   H39       1.0  0.17646  0.87373  0.06498  1.0000
  H   H40       1.0  0.25115  0.9321  0.06385  1.0000
  N   N9        1.0  0.67901  0.21280000000000002  0.56949  1.0000
  H   H41       1.0  0.71461  0.1937  0.58972  1.0000
  C   C161      1.0  0.62202  0.25406  0.58566  1.0000
  H   H42       1.0  0.58368  0.21810999999999997  0.60006  1.0000
  H   H43       1.0  0.5935199999999999  0.28409  0.56256  1.0000
  H   H44       1.0  0.64307  0.29063  0.60818  1.0000
  N   N10       1.0  0.7453899999999999  0.63677  0.55768  1.0000
  H   H45       1.0  0.7195499999999999  0.59201  0.54816  1.0000
  C   C162      1.0  0.74087  0.65177  0.59905  1.0000
  H   H46       1.0  0.77706  0.61603  0.61521  1.0000
  H   H47       1.0  0.68618  0.64193  0.60945  1.0000
  H   H48       1.0  0.75616  0.70722  0.6055  1.0000
  N   N11       1.0  0.32113  0.7876900000000001  0.5701  1.0000
  H   H49       1.0  0.28601  0.80834  0.5899  1.0000
  C   C163      1.0  0.37681  0.74532  0.58714  1.0000
  H   H50       1.0  0.41512  0.78047  0.60219  1.0000
  H   H51       1.0  0.40578  0.71529  0.56442  1.0000
  H   H52       1.0  0.35435  0.70878  0.60928  1.0000
  N   N12       1.0  0.25816  0.36515  0.55585  1.0000
  H   H53       1.0  0.28358  0.40958  0.5455099999999999  1.0000
  C   C164      1.0  0.26432  0.35134  0.59735  1.0000
  H   H54       1.0  0.22852999999999998  0.38732  0.61335  1.0000
  H   H55       1.0  0.31935  0.36171  0.60723  1.0000
  H   H56       1.0  0.24958999999999998  0.296  0.60457  1.0000
  N   N13       1.0  0.36406  0.26248  0.55603  1.0000
  H   H57       1.0  0.37617  0.21932  0.57311  1.0000
  C   C165      1.0  0.42338  0.30377  0.54224  1.0000
  H   H58       1.0  0.46174  0.31138  0.56646  1.0000
  H   H59       1.0  0.40534  0.35653  0.53218  1.0000
  H   H60       1.0  0.45018  0.27661  0.51774  1.0000
  N   N14       1.0  0.23460999999999999  0.66558  0.56869  1.0000
  H   H61       1.0  0.18393  0.65679  0.57842  1.0000
  C   C166      1.0  0.27977  0.60368  0.57007  1.0000
  H   H62       1.0  0.28486  0.58515  0.60075  1.0000
  H   H63       1.0  0.33331999999999995  0.6155  0.55874  1.0000
  H   H64       1.0  0.25768  0.55998  0.55242  1.0000
  N   N15       1.0  0.63963  0.74  0.55812  1.0000
  H   H65       1.0  0.62814  0.78432  0.57421  1.0000
  C   C167      1.0  0.5797  0.69767  0.54606  1.0000
  H   H66       1.0  0.54222  0.69237  0.57075  1.0000
  H   H67       1.0  0.59727  0.64404  0.53751  1.0000
  H   H68       1.0  0.552  0.72262  0.52095  1.0000
  N   N16       1.0  0.76638  0.33355  0.56813  1.0000
  H   H69       1.0  0.8172099999999999  0.34203  0.57795  1.0000
  C   C168      1.0  0.72093  0.39514  0.57016  1.0000
  H   H70       1.0  0.7153699999999998  0.4117  0.6010699999999999  1.0000
  H   H71       1.0  0.66753  0.38384  0.55816  1.0000
  H   H72       1.0  0.74316  0.44002  0.55337  1.0000
  S   S1        1.0  0.27922  0.86471  0.9098  1.0000
  O   O53       1.0  0.24375999999999998  0.86669  0.87055  1.0000
  O   O54       1.0  0.23529999999999998  0.90424  0.9390500000000002  1.0000
  O   O55       1.0  0.35704  0.90599  0.90569  1.0000
  H   H73       1.0  0.3622  0.9328499999999998  0.93022  1.0000
  S   S2        1.0  0.22090999999999997  0.32239  0.89991  1.0000
  O   O56       1.0  0.22685999999999998  0.2503  0.88249  1.0000
  O   O57       1.0  0.14757  0.32766  0.91549  1.0000
  O   O58       1.0  0.23150999999999997  0.38235  0.86384  1.0000
  H   H74       1.0  0.18794  0.4114  0.86377  1.0000
  S   S3        1.0  0.73628  0.15097  0.90343  1.0000
  O   O59       1.0  0.81235  0.13422  0.91177  1.0000
  O   O60       1.0  0.6927  0.09249  0.92041  1.0000
  O   O61       1.0  0.7227899999999999  0.15609  0.85479  1.0000
  H   H75       1.0  0.6720999999999999  0.14431  0.85051  1.0000
  S   S4        1.0  0.78153  0.68787  0.89854  1.0000
  O   O62       1.0  0.8000399999999999  0.76462  0.89391  1.0000
  O   O63       1.0  0.84747  0.6508  0.91  1.0000
  O   O64       1.0  0.7534799999999999  0.65445  0.85549  1.0000
  H   H76       1.0  0.7750699999999999  0.60657  0.85386  1.0000
  S   S5        1.0  0.6408999999999999  0.78239  0.9035399999999999  1.0000
  O   O65       1.0  0.5688  0.81425  0.90514  1.0000
  O   O66       1.0  0.69445  0.83977  0.90927  1.0000
  O   O67       1.0  0.6503  0.74581  0.85919  1.0000
  H   H77       1.0  0.61149  0.76514  0.84283  1.0000
  S   S6        1.0  0.84183  0.2889  0.90244  1.0000
  O   O68       1.0  0.87733  0.35949  0.90028  1.0000
  O   O69       1.0  0.8885099999999999  0.24148  0.9265099999999998  1.0000
  O   O70       1.0  0.8326599999999997  0.25611  0.85722  1.0000
  H   H78       1.0  0.7954499999999999  0.28562  0.84499  1.0000
  S   S7        1.0  0.37542  0.24198000000000003  0.90676  1.0000
  O   O71       1.0  0.45032  0.21871  0.91197  1.0000
  O   O72       1.0  0.3291  0.17807  0.90499  1.0000
  O   O73       1.0  0.36901  0.28821  0.86488  1.0000
  H   H79       1.0  0.39716  0.26125  0.84569  1.0000
  S   S8        1.0  0.14624  0.75549  0.90734  1.0000
  O   O74       1.0  0.09066  0.70408  0.91925  1.0000
  O   O75       1.0  0.12843  0.82448  0.92635  1.0000
  O   O76       1.0  0.14731  0.76441  0.85846  1.0000
  H   H80       1.0  0.12156  0.80885  0.85286  1.0000
  S   S9        1.0  0.78865  0.33725  0.39663  1.0000
  O   O77       1.0  0.76163  0.32141  0.35633  1.0000
  O   O78       1.0  0.7369  0.38374  0.41754  1.0000
  O   O79       1.0  0.8642600000000001  0.38143  0.39127  1.0000
  H   H81       1.0  0.87295  0.4013  0.41739  1.0000
  S   S10       1.0  0.70676  0.80541  0.39935  1.0000
  O   O80       1.0  0.6988299999999998  0.72844  0.39032  1.0000
  O   O81       1.0  0.63807  0.82865  0.41589  1.0000
  O   O82       1.0  0.72275  0.85033  0.3577  1.0000
  H   H82       1.0  0.6895  0.89071  0.35762  1.0000
  S   S11       1.0  0.21403  0.66026  0.39901  1.0000
  O   O83       1.0  0.28866  0.63499  0.40327  1.0000
  O   O84       1.0  0.16657  0.6044  0.41552  1.0000
  O   O85       1.0  0.19444999999999998  0.67251  0.35147  1.0000
  H   H83       1.0  0.14919  0.6473  0.34701  1.0000
  S   S12       1.0  0.28735  0.19343  0.39921  1.0000
  O   O86       1.0  0.30049  0.27053  0.39255  1.0000
  O   O87       1.0  0.35488  0.16316  0.4136  1.0000
  O   O88       1.0  0.26528  0.15437  0.35664  1.0000
  H   H84       1.0  0.29625  0.11247000000000001  0.35444  1.0000
  S   S13       1.0  0.1445  0.28436  0.40338  1.0000
  O   O89       1.0  0.07175  0.31448  0.40379  1.0000
  O   O90       1.0  0.19613  0.34313  0.41022  1.0000
  O   O91       1.0  0.15741  0.24782  0.35924  1.0000
  H   H85       1.0  0.12458  0.27225  0.34117  1.0000
  S   S14       1.0  0.33285  0.78825  0.40033  1.0000
  O   O92       1.0  0.37403  0.85579  0.40203  1.0000
  O   O93       1.0  0.37598  0.73286  0.42092  1.0000
  O   O94       1.0  0.31856  0.7649700000000001  0.3537  1.0000
  H   H86       1.0  0.3089  0.8098  0.33964  1.0000
  S   S15       1.0  0.85081  0.71217  0.40287  1.0000
  O   O95       1.0  0.92494  0.685  0.4024  1.0000
  O   O96       1.0  0.8021399999999999  0.65152  0.41152  1.0000
  O   O97       1.0  0.83316  0.74668  0.35852  1.0000
  H   H87       1.0  0.8718400000000001  0.73072  0.34131  1.0000
  S   S16       1.0  0.6678999999999999  0.21501999999999996  0.39751  1.0000
  O   O98       1.0  0.61472  0.1618  0.41083  1.0000
  O   O99       1.0  0.6382899999999999  0.28688  0.40559  1.0000
  O   O100      1.0  0.68339  0.20574  0.34942  1.0000
  H   H88       1.0  0.6624399999999999  0.15985  0.34196  1.0000
  S   S17       1.0  0.37733  0.74395  0.90443  1.0000
  O   O101      1.0  0.37188  0.74029  0.86059  1.0000
  O   O102      1.0  0.4360299999999999  0.79404  0.91338  1.0000
  O   O103      1.0  0.39899000000000007  0.66448  0.9228  1.0000
  H   H89       1.0  0.39828  0.6706  0.95158  1.0000
  S   S18       1.0  0.29198  0.43533  0.9442  1.0000
  O   O104      1.0  0.35318  0.45774000000000004  0.91924  1.0000
  O   O105      1.0  0.22701999999999997  0.4698399999999999  0.9277  1.0000
  O   O106      1.0  0.30481  0.46426  0.99013  1.0000
  H   H90       1.0  0.25711  0.47412999999999994  0.00064  1.0000
  S   S19       1.0  0.61587  0.24414  0.90651  1.0000
  O   O107      1.0  0.61691  0.27869  0.86687  1.0000
  O   O108      1.0  0.57998  0.17411  0.90176  1.0000
  O   O109      1.0  0.56868  0.29295  0.9376900000000001  1.0000
  H   H91       1.0  0.59421  0.29077  0.96348  1.0000
  S   S20       1.0  0.7036599999999998  0.57578  0.9377800000000001  1.0000
  O   O110      1.0  0.6469599999999999  0.55551  0.90909  1.0000
  O   O111      1.0  0.77057  0.54177  0.9244899999999999  1.0000
  O   O112      1.0  0.68315  0.54558  0.9826999999999999  1.0000
  H   H92       1.0  0.7272799999999999  0.54973  0.99827  1.0000
  S   S21       1.0  0.5709399999999999  0.67936  0.9578400000000001  1.0000
  O   O113      1.0  0.58208  0.63396  0.99333  1.0000
  O   O114      1.0  0.51882  0.7351600000000001  0.96892  1.0000
  O   O115      1.0  0.53565  0.63036  0.92189  1.0000
  H   H93       1.0  0.53614  0.66124  0.89848  1.0000
  S   S22       1.0  0.7187299999999999  0.38475  0.91385  1.0000
  O   O116      1.0  0.6405  0.39036  0.90696  1.0000
  O   O117      1.0  0.7326  0.42681  0.9500599999999999  1.0000
  O   O118      1.0  0.75696  0.42034000000000005  0.87365  1.0000
  H   H94       1.0  0.79753  0.4491  0.88262  1.0000
  S   S23       1.0  0.42085  0.33241  0.97447  1.0000
  O   O119      1.0  0.3947  0.36991  0.01021  1.0000
  O   O120      1.0  0.46875  0.2747  0.9886499999999999  1.0000
  O   O121      1.0  0.46671999999999997  0.38983  0.94682  1.0000
  H   H95       1.0  0.46273999999999993  0.37177  0.91973  1.0000
  S   S24       1.0  0.24605999999999997  0.63385  0.90183  1.0000
  O   O122      1.0  0.29413  0.63326  0.86703  1.0000
  O   O123      1.0  0.27949  0.59085  0.93376  1.0000
  O   O124      1.0  0.17145999999999997  0.59515  0.88609  1.0000
  H   H96       1.0  0.14203999999999997  0.59112  0.90942  1.0000
  S   S25       1.0  0.8943099999999999  0.22826  0.4155  1.0000
  O   O125      1.0  0.90102  0.20085  0.3745  1.0000
  O   O126      1.0  0.9461399999999999  0.28699  0.41888  1.0000
  O   O127      1.0  0.9132899999999999  0.16557000000000002  0.4489  1.0000
  H   H97       1.0  0.90343  0.18706  0.47463  1.0000
  S   S26       1.0  0.78912  0.9192399999999998  0.43518  1.0000
  O   O128      1.0  0.8455599999999999  0.93778  0.40623  1.0000
  O   O129      1.0  0.72218  0.95331  0.42191  1.0000
  O   O130      1.0  0.81114  0.94977  0.47977  1.0000
  H   H98       1.0  0.76807  0.9462100000000001  0.49588  1.0000
  S   S27       1.0  0.10582  0.76408  0.41422  1.0000
  O   O131      1.0  0.10071  0.79685  0.37423  1.0000
  O   O132      1.0  0.05833  0.70103  0.41363  1.0000
  O   O133      1.0  0.08137999999999998  0.82121  0.44923  1.0000
  H   H99       1.0  0.09277  0.79843  0.47451  1.0000
  S   S28       1.0  0.20866  0.07937  0.43553  1.0000
  O   O134      1.0  0.15133  0.06112  0.40688  1.0000
  O   O135      1.0  0.27556  0.04671  0.42115  1.0000
  O   O136      1.0  0.18885  0.04671  0.48000000000000004  1.0000
  H   H100      1.0  0.23315999999999998  0.0481  0.49534999999999996  1.0000
  S   S29       1.0  0.07667  0.17988  0.45834  1.0000
  O   O137      1.0  0.08988  0.13143  0.49227  1.0000
  O   O138      1.0  0.02736  0.23528  0.47287  1.0000
  O   O139      1.0  0.03833  0.13421  0.4219  1.0000
  H   H101      1.0  0.045709999999999994  0.16290000000000002  0.39807  1.0000
  S   S30       1.0  0.21927000000000002  0.89232  0.41341  1.0000
  O   O140      1.0  0.14257  0.90679  0.40631  1.0000
  O   O141      1.0  0.2373  0.9324600000000001  0.4493  1.0000
  O   O142      1.0  0.25973  0.9244700000000001  0.3733  1.0000
  H   H102      1.0  0.3018  0.95063  0.3821  1.0000
  S   S31       1.0  0.9217100000000001  0.8176100000000001  0.45463  1.0000
  O   O143      1.0  0.9133899999999999  0.8683600000000001  0.48777000000000004  1.0000
  O   O144      1.0  0.9699199999999999  0.7611400000000001  0.46917  1.0000
  O   O145      1.0  0.95879  0.8594000000000002  0.41641  1.0000
  H   H103      1.0  0.95898  0.82448  0.39497  1.0000
  S   S32       1.0  0.7741499999999999  0.10597999999999999  0.41484  1.0000
  O   O146      1.0  0.84605  0.09124  0.39878  1.0000
  O   O147      1.0  0.77066  0.06997  0.45365  1.0000
  O   O148      1.0  0.71944  0.06836  0.38213  1.0000
  H   H104      1.0  0.67552  0.057620000000000005  0.39623  1.0000
  S   S33       1.0  0.35976  0.03946  0.854  1.0000
  O   O149      1.0  0.34557  0.11091  0.83658  1.0000
  O   O150      1.0  0.29679  0.99283  0.8485  1.0000
  O   O151      1.0  0.36829999999999996  0.049879999999999994  0.9024799999999998  1.0000
  H   H105      1.0  0.31978  0.0463  0.9131799999999999  1.0000
  S   S34       1.0  0.02052  0.35186  0.85497  1.0000
  O   O152      1.0  0.9676  0.29639  0.84454  1.0000
  O   O153      1.0  0.09126  0.32603  0.8416  1.0000
  O   O154      1.0  0.0198  0.35965  0.9039  1.0000
  H   H106      1.0  0.00999  0.31169  0.91409  1.0000
  S   S35       1.0  0.64362  0.9711  0.85761  1.0000
  O   O155      1.0  0.6587  0.8985600000000001  0.84252  1.0000
  O   O156      1.0  0.70687  0.01685  0.85142  1.0000
  O   O157      1.0  0.6328  0.96564  0.90628  1.0000
  H   H107      1.0  0.6809599999999999  0.9649900000000001  0.91766  1.0000
  S   S36       1.0  0.9765699999999999  0.64396  0.85349  1.0000
  O   O158      1.0  0.02268  0.70515  0.8432999999999999  1.0000
  O   O159      1.0  0.90367  0.66044  0.83881  1.0000
  O   O160      1.0  0.97689  0.63729  0.90236  1.0000
  H   H108      1.0  0.9673  0.68569  0.91186  1.0000
  S   S37       1.0  0.85732  0.52563  0.35306  1.0000
  O   O161      1.0  0.8283399999999999  0.59652  0.34279  1.0000
  O   O162      1.0  0.8067999999999999  0.4708  0.33787  1.0000
  O   O163      1.0  0.8598999999999999  0.5218  0.40208  1.0000
  H   H109      1.0  0.81017  0.51499  0.41024  1.0000
  S   S38       1.0  0.51473  0.85473  0.35462  1.0000
  O   O164      1.0  0.45347999999999994  0.8091  0.34373  1.0000
  O   O165      1.0  0.58037  0.81773  0.34148  1.0000
  O   O166      1.0  0.5137299999999999  0.8614900000000001  0.40355  1.0000
  H   H110      1.0  0.5028  0.8134500000000001  0.41332  1.0000
  S   S39       1.0  0.14676  0.47389999999999993  0.35948  1.0000
  O   O167      1.0  0.16467999999999997  0.40253  0.34374  1.0000
  O   O168      1.0  0.2089  0.52196  0.3554  1.0000
  O   O169      1.0  0.13297  0.46596  0.40783  1.0000
  H   H111      1.0  0.17979  0.47184  0.42047  1.0000
  S   S40       1.0  0.47990999999999995  0.14907  0.35608  1.0000
  O   O170      1.0  0.53778  0.20019  0.3473  1.0000
  O   O171      1.0  0.41191  0.18161  0.34258  1.0000
  O   O172      1.0  0.48025999999999996  0.13892  0.40484  1.0000
  H   H112      1.0  0.48463000000000006  0.18729  0.41557  1.0000
  S   S41       1.0  0.71925  0.0165  0.76861  1.0000
  O   O173      1.0  0.73318  0.94672  0.7877  1.0000
  O   O174      1.0  0.74922  0.010799999999999999  0.72819  1.0000
  O   O175      1.0  0.7634299999999999  0.08154000000000002  0.79149  1.0000
  H   H113      1.0  0.8138299999999999  0.07418  0.78498  1.0000
  S   S42       1.0  0.09885  0.67658  0.77313  1.0000
  O   O176      1.0  0.14057  0.64884  0.80728  1.0000
  O   O177      1.0  0.14387  0.67019  0.73718  1.0000
  O   O178      1.0  0.07961999999999998  0.76241  0.78013  1.0000
  H   H114      1.0  0.08312  0.78512  0.75405  1.0000
  S   S43       1.0  0.28767  0.98345  0.76579  1.0000
  O   O179      1.0  0.27337  0.05553  0.78174  1.0000
  O   O180      1.0  0.25921999999999995  0.98394  0.72473  1.0000
  O   O181      1.0  0.24297  0.92125  0.79084  1.0000
  H   H115      1.0  0.19282  0.9274199999999999  0.78312  1.0000
  S   S44       1.0  0.9113299999999999  0.32764  0.76781  1.0000
  O   O182      1.0  0.8651899999999999  0.36014  0.79854  1.0000
  O   O183      1.0  0.8745499999999999  0.33509000000000005  0.72899  1.0000
  O   O184      1.0  0.92376  0.24111000000000002  0.77709  1.0000
  H   H116      1.0  0.88591  0.21617  0.7625099999999999  1.0000
  S   S45       1.0  0.23048999999999997  0.51921  0.27365999999999996  1.0000
  O   O185      1.0  0.24755  0.45171  0.2944  1.0000
  O   O186      1.0  0.26855  0.51477  0.23537  1.0000
  O   O187      1.0  0.2641  0.58901  0.29767  1.0000
  H   H117      1.0  0.31593  0.58187  0.2977  1.0000
  S   S46       1.0  0.52441  0.20375  0.26288  1.0000
  O   O188      1.0  0.59566  0.18686000000000003  0.27981  1.0000
  O   O189      1.0  0.53622  0.2263  0.22128  1.0000
  O   O190      1.0  0.4870999999999999  0.27132  0.28703  1.0000
  H   H118      1.0  0.48141  0.30967  0.26757  1.0000
  S   S47       1.0  0.83168  0.58642  0.25802  1.0000
  O   O191      1.0  0.8693599999999999  0.64791  0.2764  1.0000
  O   O192      1.0  0.82395  0.60293  0.21526  1.0000
  O   O193      1.0  0.75062  0.57756  0.27748  1.0000
  H   H119      1.0  0.71938  0.56325  0.25556  1.0000
  S   S48       1.0  0.45554  0.81826  0.25904  1.0000
  O   O194      1.0  0.39021  0.84553  0.27872  1.0000
  O   O195      1.0  0.43878  0.80928  0.21637  1.0000
  O   O196      1.0  0.47807  0.73908  0.27749  1.0000
  H   H120      1.0  0.4395200000000001  0.70681  0.26934  1.0000
  N   N17       1.0  0.16638  0.61426  0.21132  1.0000
  H   H121      1.0  0.18751  0.64796  0.23192  1.0000
  C   C169      1.0  0.21169  0.60279  0.17784  1.0000
  H   H122      1.0  0.26707  0.6173  0.18521  1.0000
  H   H123      1.0  0.19428  0.63743  0.15352999999999997  1.0000
  H   H124      1.0  0.21090000000000003  0.54682  0.16821  1.0000
  N   N18       1.0  0.38464  0.16012  0.21308  1.0000
  H   H125      1.0  0.35435  0.18408  0.23422  1.0000
  C   C170      1.0  0.40105  0.20634  0.18051  1.0000
  H   H126      1.0  0.40122  0.26217  0.19035  1.0000
  H   H127      1.0  0.35979999999999995  0.20015  0.15767  1.0000
  H   H128      1.0  0.45323  0.19466  0.1674  1.0000
  N   N19       1.0  0.82748  0.42806  0.21698  1.0000
  H   H129      1.0  0.79838  0.405  0.23904  1.0000
  C   C171      1.0  0.78368  0.45708999999999994  0.18608  1.0000
  H   H130      1.0  0.7332199999999999  0.47674000000000005  0.19838  1.0000
  H   H131      1.0  0.7715199999999999  0.41482  0.16469  1.0000
  H   H132      1.0  0.80993  0.501  0.17027  1.0000
  N   N20       1.0  0.61288  0.8434499999999999  0.2154  1.0000
  H   H133      1.0  0.6463  0.82468  0.23689  1.0000
  C   C172      1.0  0.58862  0.78768  0.18979  1.0000
  H   H134      1.0  0.56933  0.74218  0.20733  1.0000
  H   H135      1.0  0.63353  0.76978  0.1716  1.0000
  H   H136      1.0  0.54594  0.8058  0.1699  1.0000
  N   N21       1.0  0.65066  0.12738  0.71443  1.0000
  H   H137      1.0  0.67332  0.1586  0.73574  1.0000
  C   C173      1.0  0.69454  0.11899  0.68008  1.0000
  H   H138      1.0  0.75062  0.13046  0.68749  1.0000
  H   H139      1.0  0.67751  0.15728000000000003  0.65738  1.0000
  H   H140      1.0  0.6915399999999999  0.06468  0.66801  1.0000
  N   N22       1.0  0.97588  0.69355  0.71021  1.0000
  H   H141      1.0  0.95761  0.73139  0.72928  1.0000
  C   C174      1.0  0.02121  0.72174  0.67977  1.0000
  H   H142      1.0  0.04453  0.77283  0.68912  1.0000
  H   H143      1.0  0.9889799999999999  0.7318  0.65318  1.0000
  H   H144      1.0  0.06481999999999999  0.6850200000000001  0.67234  1.0000
  N   N23       1.0  0.36261  0.86509  0.71806  1.0000
  H   H145      1.0  0.34334  0.83503  0.74086  1.0000
  C   C175      1.0  0.31675  0.8653800000000001  0.68402  1.0000
  H   H146      1.0  0.262  0.85109  0.69269  1.0000
  H   H147      1.0  0.33564  0.82531  0.66294  1.0000
  H   H148      1.0  0.31505  0.9177800000000002  0.66943  1.0000
  N   N24       1.0  0.04869999999999999  0.3085  0.71186  1.0000
  H   H149      1.0  0.07258999999999999  0.27496  0.7317  1.0000
  C   C176      1.0  0.00464  0.27163  0.68374  1.0000
  H   H150      1.0  0.98198  0.22329  0.69727  1.0000
  H   H151      1.0  0.03775  0.25565  0.65856  1.0000
  H   H152      1.0  0.9606999999999999  0.30503  0.67269  1.0000
