data_image0
_chemical_formula_structural       C384H96O288Zn48
_chemical_formula_sum              "C384 H96 O288 Zn48"
_cell_length_a       26.69543
_cell_length_b       26.71443
_cell_length_c       26.714490000000005
_cell_angle_alpha    89.98825
_cell_angle_beta     89.99808000000002
_cell_angle_gamma    89.97304

_space_group_name_H-M_alt    "P 1"
_space_group_IT_number       1

loop_
  _space_group_symop_operation_xyz
  'x, y, z'

loop_
  _atom_site_type_symbol
  _atom_site_label
  _atom_site_symmetry_multiplicity
  _atom_site_fract_x
  _atom_site_fract_y
  _atom_site_fract_z
  _atom_site_occupancy
  C   C1        1.0  0.56957  0.29855  0.29855  1.0000
  C   C2        1.0  0.4305399999999999  0.29866  0.29862  1.0000
  C   C3        1.0  0.17405  0.89056  0.3259  1.0000
  C   C4        1.0  0.32631  0.10912  0.82616  1.0000
  C   C5        1.0  0.67418  0.89052  0.1742  1.0000
  C   C6        1.0  0.17829  0.1152  0.32036  1.0000
  C   C7        1.0  0.82611  0.89092  0.6736899999999999  1.0000
  C   C8        1.0  0.6741  0.8906  0.82588  1.0000
  C   C9        1.0  0.3258499999999999  0.10945  0.17418  1.0000
  C   C10       1.0  0.82169  0.88478  0.32034  1.0000
  C   C11       1.0  0.17407  0.10935  0.67407  1.0000
  C   C12       1.0  0.3259  0.89062  0.17409  1.0000
  C   C13       1.0  0.70149  0.7015  0.43036  1.0000
  C   C14       1.0  0.6740899999999999  0.10938  0.82591  1.0000
  C   C15       1.0  0.17368  0.89088  0.6738299999999999  1.0000
  C   C16       1.0  0.82586  0.10944000000000001  0.32583999999999996  1.0000
  C   C17       1.0  0.89065  0.8259600000000001  0.67399  1.0000
  C   C18       1.0  0.1082  0.17318  0.32682999999999995  1.0000
  C   C19       1.0  0.891  0.32635  0.82616  1.0000
  C   C20       1.0  0.10926  0.6740900000000001  0.17404999999999998  1.0000
  C   C21       1.0  0.8906399999999999  0.17409  0.32591  1.0000
  C   C22       1.0  0.10895  0.82616  0.6736899999999999  1.0000
  C   C23       1.0  0.88479  0.67958  0.17824  1.0000
  C   C24       1.0  0.29855  0.29853  0.56957  1.0000
  C   C25       1.0  0.10936  0.32591  0.8259  1.0000
  C   C26       1.0  0.10932  0.17406  0.67406  1.0000
  C   C27       1.0  0.89176  0.82677  0.3268  1.0000
  C   C28       1.0  0.10933  0.67407  0.82594  1.0000
  C   C29       1.0  0.89067  0.32592  0.17406  1.0000
  C   C30       1.0  0.10928  0.8259  0.32593  1.0000
  C   C31       1.0  0.8906399999999999  0.17409  0.67409  1.0000
  C   C32       1.0  0.10895  0.32616  0.17368  1.0000
  C   C33       1.0  0.8906399999999999  0.6740900000000001  0.8259  1.0000
  C   C34       1.0  0.17407  0.32592  0.8906299999999999  1.0000
  C   C35       1.0  0.43043999999999993  0.70145  0.29855  1.0000
  C   C36       1.0  0.82725  0.67294  0.10781999999999999  1.0000
  C   C37       1.0  0.67412  0.17412  0.8906  1.0000
  C   C38       1.0  0.32588  0.82588  0.1094  1.0000
  C   C39       1.0  0.82591  0.6740900000000001  0.89062  1.0000
  C   C40       1.0  0.17397000000000004  0.32594  0.1093  1.0000
  C   C41       1.0  0.32591  0.82591  0.8906299999999999  1.0000
  C   C42       1.0  0.6741  0.17411  0.10939  1.0000
  C   C43       1.0  0.82589  0.32588  0.1094  1.0000
  C   C44       1.0  0.1741  0.6741  0.89062  1.0000
  C   C45       1.0  0.32592  0.17409  0.10938  1.0000
  C   C46       1.0  0.56956  0.29855  0.70145  1.0000
  C   C47       1.0  0.6740899999999999  0.8259  0.89061  1.0000
  C   C48       1.0  0.17367  0.67387  0.10904999999999998  1.0000
  C   C49       1.0  0.82593  0.32596  0.8905899999999999  1.0000
  C   C50       1.0  0.6741  0.8259  0.1094  1.0000
  C   C51       1.0  0.32603  0.17406  0.8906999999999999  1.0000
  C   C52       1.0  0.17402  0.6093900000000001  0.17404999999999998  1.0000
  C   C53       1.0  0.82595  0.39072  0.82591  1.0000
  C   C54       1.0  0.81991  0.61549  0.17813  1.0000
  C   C55       1.0  0.1741  0.3906  0.82588  1.0000
  C   C56       1.0  0.82588  0.60941  0.82587  1.0000
  C   C57       1.0  0.29856  0.70146  0.56955  1.0000
  C   C58       1.0  0.17369  0.39087000000000005  0.17384  1.0000
  C   C59       1.0  0.17409  0.60937  0.82592  1.0000
  C   C60       1.0  0.82589  0.3906  0.17410999999999996  1.0000
  C   C61       1.0  0.39068  0.82594  0.17404999999999998  1.0000
  C   C62       1.0  0.60932  0.17406  0.82595  1.0000
  C   C63       1.0  0.39068  0.82594  0.82595  1.0000
  C   C64       1.0  0.60933  0.17407  0.17407  1.0000
  C   C65       1.0  0.39105  0.17383999999999997  0.82632  1.0000
  C   C66       1.0  0.60942  0.82586  0.17416  1.0000
  C   C67       1.0  0.39059  0.17414  0.17415  1.0000
  C   C68       1.0  0.70144  0.29855  0.4304299999999999  1.0000
  C   C69       1.0  0.60936  0.8259  0.8259  1.0000
  C   C70       1.0  0.17366  0.82612  0.39094  1.0000
  C   C71       1.0  0.8259  0.17411  0.60939  1.0000
  C   C72       1.0  0.17829  0.17965  0.3848  1.0000
  C   C73       1.0  0.82587  0.8259  0.60933  1.0000
  C   C74       1.0  0.82588  0.17413  0.39058  1.0000
  C   C75       1.0  0.17397000000000004  0.82594  0.6093  1.0000
  C   C76       1.0  0.82166  0.82029  0.38475  1.0000
  C   C77       1.0  0.17411  0.17411  0.6094  1.0000
  C   C78       1.0  0.67405  0.60928  0.6740799999999999  1.0000
  C   C79       1.0  0.70146  0.4304  0.7014699999999999  1.0000
  C   C80       1.0  0.32595  0.39072  0.32592  1.0000
  C   C81       1.0  0.32593  0.60942  0.67405  1.0000
  C   C82       1.0  0.67411  0.39059  0.32587  1.0000
  C   C83       1.0  0.32587  0.60942  0.32586  1.0000
  C   C84       1.0  0.67412  0.39058  0.67413  1.0000
  C   C85       1.0  0.67415  0.60944  0.32586  1.0000
  C   C86       1.0  0.32593  0.39059  0.67403  1.0000
  C   C87       1.0  0.39101  0.32616999999999996  0.67363  1.0000
  C   C88       1.0  0.6094  0.67413  0.32589  1.0000
  C   C89       1.0  0.3909599999999999  0.32631  0.32613  1.0000
  C   C90       1.0  0.29854  0.5696  0.29853  1.0000
  C   C91       1.0  0.60899  0.67364  0.67382  1.0000
  C   C92       1.0  0.39064  0.6740900000000001  0.32591  1.0000
  C   C93       1.0  0.60935  0.32592  0.67409  1.0000
  C   C94       1.0  0.39098  0.6738500000000001  0.67367  1.0000
  C   C95       1.0  0.60936  0.32591  0.3259  1.0000
  C   C96       1.0  0.6740899999999999  0.3259  0.39061999999999997  1.0000
  C   C97       1.0  0.32595  0.6741  0.60929  1.0000
  C   C98       1.0  0.67422  0.67422  0.39049  1.0000
  C   C99       1.0  0.32592  0.32588  0.60931  1.0000
  C   C100      1.0  0.32588999999999996  0.67411  0.39059999999999995  1.0000
  C   C101      1.0  0.70146  0.5696  0.29853  1.0000
  C   C102      1.0  0.67411  0.32589  0.6094  1.0000
  C   C103      1.0  0.3259  0.32592999999999994  0.39056  1.0000
  C   C104      1.0  0.67407  0.67404  0.60941  1.0000
  C   C105      1.0  0.69415  0.12953  0.12953  1.0000
  C   C106      1.0  0.30589  0.87051  0.8705  1.0000
  C   C107      1.0  0.8705299999999999  0.12949  0.6941  1.0000
  C   C108      1.0  0.12957  0.87034  0.30574  1.0000
  C   C109      1.0  0.30639  0.12919999999999998  0.87078  1.0000
  C   C110      1.0  0.69416  0.87044  0.12957  1.0000
  C   C111      1.0  0.12888  0.12907  0.30689  1.0000
  C   C112      1.0  0.43055  0.70137  0.7013299999999999  1.0000
  C   C113      1.0  0.29856  0.43038  0.7014699999999999  1.0000
  C   C114      1.0  0.8709199999999999  0.871  0.69339  1.0000
  C   C115      1.0  0.69412  0.8704799999999999  0.87048  1.0000
  C   C116      1.0  0.30588  0.12953  0.12953  1.0000
  C   C117      1.0  0.8711099999999999  0.87091  0.30688  1.0000
  C   C118      1.0  0.12941  0.12943  0.69402  1.0000
  C   C119      1.0  0.30581  0.87044  0.12956  1.0000
  C   C120      1.0  0.69418  0.12955  0.8704499999999998  1.0000
  C   C121      1.0  0.12881  0.87098  0.69341  1.0000
  C   C122      1.0  0.8705  0.12953  0.30587  1.0000
  C   C123      1.0  0.87101  0.30655  0.8708799999999999  1.0000
  C   C124      1.0  0.29855  0.56963  0.7014699999999999  1.0000
  C   C125      1.0  0.12922  0.6940199999999999  0.12932  1.0000
  C   C126      1.0  0.87124  0.69294  0.1287  1.0000
  C   C127      1.0  0.12945  0.30594  0.87053  1.0000
  C   C128      1.0  0.12946  0.69408  0.8705199999999998  1.0000
  C   C129      1.0  0.87054  0.30591  0.12948  1.0000
  C   C130      1.0  0.12933  0.3059200000000001  0.12934  1.0000
  C   C131      1.0  0.87055  0.69405  0.87053  1.0000
  C   C132      1.0  0.19348  0.62914  0.12904  1.0000
  C   C133      1.0  0.80573  0.37041999999999997  0.87035  1.0000
  C   C134      1.0  0.85441  0.64534  0.20472  1.0000
  C   C135      1.0  0.70145  0.43041  0.29854  1.0000
  C   C136      1.0  0.12951  0.37047  0.80585  1.0000
  C   C137      1.0  0.80586  0.62953  0.87047  1.0000
  C   C138      1.0  0.19360999999999998  0.3708  0.12922  1.0000
  C   C139      1.0  0.12944  0.62947  0.80595  1.0000
  C   C140      1.0  0.87054  0.37051  0.19406  1.0000
  C   C141      1.0  0.1941  0.37049  0.8704899999999999  1.0000
  C   C142      1.0  0.80742  0.62866  0.12824  1.0000
  C   C143      1.0  0.8707299999999999  0.37079  0.80604  1.0000
  C   C144      1.0  0.12952  0.62961  0.1942  1.0000
  C   C145      1.0  0.8058199999999999  0.37044  0.12956  1.0000
  C   C146      1.0  0.29857  0.43045  0.29855  1.0000
  C   C147      1.0  0.19415  0.62952  0.87048  1.0000
  C   C148      1.0  0.12882  0.37097  0.19342  1.0000
  C   C149      1.0  0.87048  0.62954  0.80586  1.0000
  C   C150      1.0  0.37057  0.87055  0.19403  1.0000
  C   C151      1.0  0.62942  0.12945  0.80598  1.0000
  C   C152      1.0  0.37054  0.80591  0.8705199999999998  1.0000
  C   C153      1.0  0.62947  0.1941  0.12949  1.0000
  C   C154      1.0  0.37118999999999996  0.12902  0.80659  1.0000
  C   C155      1.0  0.62964  0.8703300000000002  0.19429  1.0000
  C   C156      1.0  0.37053  0.19407  0.12949  1.0000
  C   C157      1.0  0.70144  0.56955  0.70146  1.0000
  C   C158      1.0  0.6294799999999999  0.8059  0.8705  1.0000
  C   C159      1.0  0.62944  0.12946  0.19405  1.0000
  C   C160      1.0  0.37059  0.87057  0.80598  1.0000
  C   C161      1.0  0.62947  0.1941  0.8705  1.0000
  C   C162      1.0  0.37054  0.80591  0.12949  1.0000
  C   C163      1.0  0.6294899999999999  0.8704799999999999  0.80587  1.0000
  C   C164      1.0  0.37038  0.12964  0.19427  1.0000
  C   C165      1.0  0.62946  0.80595  0.12949  1.0000
  C   C166      1.0  0.37068  0.19408  0.87066  1.0000
  C   C167      1.0  0.12922  0.806  0.37068  1.0000
  C   C168      1.0  0.06955  0.79854  0.29855  1.0000
  C   C169      1.0  0.87052  0.19409  0.6295  1.0000
  C   C170      1.0  0.20473  0.14472  0.35527  1.0000
  C   C171      1.0  0.80588  0.87058  0.62934  1.0000
  C   C172      1.0  0.8705299999999999  0.19407  0.37051  1.0000
  C   C173      1.0  0.12934  0.80591  0.62935  1.0000
  C   C174      1.0  0.79523  0.85523  0.35522999999999993  1.0000
  C   C175      1.0  0.19415  0.12953  0.62953  1.0000
  C   C176      1.0  0.87041  0.80579  0.62955  1.0000
  C   C177      1.0  0.12888  0.19314  0.37093  1.0000
  C   C178      1.0  0.80586  0.12954  0.62954  1.0000
  C   C179      1.0  0.93044  0.20145  0.70145  1.0000
  C   C180      1.0  0.19348  0.87082  0.37094  1.0000
  C   C181      1.0  0.12947  0.19411  0.6295  1.0000
  C   C182      1.0  0.87105  0.80675  0.37086  1.0000
  C   C183      1.0  0.1936  0.87081  0.62921  1.0000
  C   C184      1.0  0.80578  0.12961  0.37039  1.0000
  C   C185      1.0  0.69427  0.62959  0.62966  1.0000
  C   C186      1.0  0.30575  0.37041999999999997  0.37035999999999997  1.0000
  C   C187      1.0  0.37098  0.62915  0.69347  1.0000
  C   C188      1.0  0.62951  0.37047  0.30586  1.0000
  C   C189      1.0  0.30582  0.62957  0.37043  1.0000
  C   C190      1.0  0.70144  0.79855  0.06958  1.0000
  C   C191      1.0  0.69417  0.37043  0.62957  1.0000
  C   C192      1.0  0.62946  0.62948  0.30596  1.0000
  C   C193      1.0  0.37103  0.3709  0.69339  1.0000
  C   C194      1.0  0.69413  0.37045999999999996  0.37046  1.0000
  C   C195      1.0  0.30575  0.62966  0.6295899999999999  1.0000
  C   C196      1.0  0.37073  0.37079  0.30605  1.0000
  C   C197      1.0  0.62924  0.62918  0.69394  1.0000
  C   C198      1.0  0.30569  0.37031  0.62962  1.0000
  C   C199      1.0  0.6942999999999999  0.62966  0.37033999999999995  1.0000
  C   C200      1.0  0.6294899999999999  0.37049  0.6941099999999999  1.0000
  C   C201      1.0  0.29855  0.20146  0.93041  1.0000
  C   C202      1.0  0.37049999999999994  0.62952  0.30587  1.0000
  C   C203      1.0  0.37092  0.30646  0.3708  1.0000
  C   C204      1.0  0.62899  0.69344  0.62912  1.0000
  C   C205      1.0  0.37072  0.69397  0.62922  1.0000
  C   C206      1.0  0.62946  0.30593  0.37052  1.0000
  C   C207      1.0  0.62961  0.69425  0.37037  1.0000
  C   C208      1.0  0.37072  0.30602  0.62922  1.0000
  C   C209      1.0  0.62947  0.30593  0.6295  1.0000
  C   C210      1.0  0.37054  0.69406  0.37052  1.0000
  C   C211      1.0  0.7314299999999999  0.10032  0.10033  1.0000
  C   C212      1.0  0.93041  0.79856  0.70145  1.0000
  C   C213      1.0  0.26867  0.89976  0.89975  1.0000
  C   C214      1.0  0.89984  0.10018999999999999  0.73122  1.0000
  C   C215      1.0  0.10053999999999999  0.89939  0.26819  1.0000
  C   C216      1.0  0.26892  0.1001  0.89963  1.0000
  C   C217      1.0  0.73137  0.89967  0.10033  1.0000
  C   C218      1.0  0.09679  0.09631000000000002  0.27552  1.0000
  C   C219      1.0  0.9000999999999999  0.90039  0.73036  1.0000
  C   C220      1.0  0.7313  0.8997200000000001  0.89973  1.0000
  C   C221      1.0  0.26874  0.10026000000000002  0.10025  1.0000
  C   C222      1.0  0.90321  0.9037  0.27554  1.0000
  C   C223      1.0  0.70145  0.29854  0.56959  1.0000
  C   C224      1.0  0.06861  0.20079  0.29921  1.0000
  C   C225      1.0  0.10002  0.10006  0.731  1.0000
  C   C226      1.0  0.26845  0.8996  0.1004  1.0000
  C   C227      1.0  0.7315  0.10036  0.89963  1.0000
  C   C228      1.0  0.09956  0.89999  0.7306299999999999  1.0000
  C   C229      1.0  0.89979  0.10027  0.26871  1.0000
  C   C230      1.0  0.90038  0.26948  0.89999  1.0000
  C   C231      1.0  0.09997999999999999  0.73125  0.1001  1.0000
  C   C232      1.0  0.9040799999999999  0.72431  0.0967  1.0000
  C   C233      1.0  0.10009  0.26891  0.8998599999999999  1.0000
  C   C234      1.0  0.10013999999999999  0.7312  0.8998  1.0000
  C   C235      1.0  0.29856  0.79855  0.93042  1.0000
  C   C236      1.0  0.89985  0.26879  0.1002  1.0000
  C   C237      1.0  0.10026  0.26847  0.10025999999999999  1.0000
  C   C238      1.0  0.8998999999999999  0.73108  0.8998599999999999  1.0000
  C   C239      1.0  0.23061  0.60005  0.09972  1.0000
  C   C240      1.0  0.76811  0.39938  0.89936  1.0000
  C   C241      1.0  0.85559  0.64347  0.26029  1.0000
  C   C242      1.0  0.10027999999999998  0.39968  0.7685999999999998  1.0000
  C   C243      1.0  0.76865  0.6003  0.8997199999999999  1.0000
  C   C244      1.0  0.23106  0.39991  0.10035  1.0000
  C   C245      1.0  0.1001  0.60015  0.7689  1.0000
  C   C246      1.0  0.70145  0.20146  0.06958  1.0000
  C   C247      1.0  0.89988  0.39979  0.23114  1.0000
  C   C248      1.0  0.23126  0.39975  0.89976  1.0000
  C   C249      1.0  0.77627  0.5959  0.09583  1.0000
  C   C250      1.0  0.90003  0.40005  0.7689  1.0000
  C   C251      1.0  0.10048  0.60052  0.23167999999999997  1.0000
  C   C252      1.0  0.76848  0.39962  0.10039  1.0000
  C   C253      1.0  0.23141  0.6003  0.8997  1.0000
  C   C254      1.0  0.09956  0.39998  0.23064  1.0000
  C   C255      1.0  0.89972  0.6003200000000001  0.76863  1.0000
  C   C256      1.0  0.39994  0.8999  0.23103  1.0000
  C   C257      1.0  0.06955  0.20144  0.70144  1.0000
  C   C258      1.0  0.6000299999999998  0.10009  0.7689899999999998  1.0000
  C   C259      1.0  0.39984  0.76875  0.8997899999999999  1.0000
  C   C260      1.0  0.60018  0.23127  0.10023  1.0000
  C   C261      1.0  0.40044  0.10002  0.76936  1.0000
  C   C262      1.0  0.6006100000000001  0.89935  0.23183999999999996  1.0000
  C   C263      1.0  0.39989  0.2311  0.10014999999999999  1.0000
  C   C264      1.0  0.60019  0.76877  0.89977  1.0000
  C   C265      1.0  0.6001  0.10014  0.23112  1.0000
  C   C266      1.0  0.39996  0.89992  0.76897  1.0000
  C   C267      1.0  0.60018  0.23127  0.89976  1.0000
  C   C268      1.0  0.93137  0.7992  0.2992  1.0000
  C   C269      1.0  0.39986  0.7688  0.1002  1.0000
  C   C270      1.0  0.6002099999999999  0.89974  0.7687  1.0000
  C   C271      1.0  0.39944  0.1006  0.23179  1.0000
  C   C272      1.0  0.60007  0.7689800000000001  0.10012  1.0000
  C   C273      1.0  0.39975  0.23152  0.89974  1.0000
  C   C274      1.0  0.09996  0.76884  0.39993  1.0000
  C   C275      1.0  0.89981  0.23122  0.6002199999999999  1.0000
  C   C276      1.0  0.26034  0.1429  0.35706  1.0000
  C   C277      1.0  0.7684  0.89968  0.60028  1.0000
  C   C278      1.0  0.89988  0.23111  0.39983  1.0000
  C   C279      1.0  0.70145  0.20146  0.93041  1.0000
  C   C280      1.0  0.10028999999999999  0.7684199999999999  0.6003  1.0000
  C   C281      1.0  0.7396099999999999  0.85699  0.35697  1.0000
  C   C282      1.0  0.23144  0.10031  0.60035  1.0000
  C   C283      1.0  0.89953  0.76831  0.6005  1.0000
  C   C284      1.0  0.0968  0.22456  0.40368  1.0000
  C   C285      1.0  0.76862  0.10033  0.6003299999999999  1.0000
  C   C286      1.0  0.23059  0.89989  0.40027  1.0000
  C   C287      1.0  0.10019  0.23129  0.60024  1.0000
  C   C288      1.0  0.90305  0.77514  0.40351  1.0000
  C   C289      1.0  0.23103  0.89993  0.6003299999999999  1.0000
  C   C290      1.0  0.29855  0.79854  0.06959  1.0000
  C   C291      1.0  0.7683799999999998  0.10051  0.39952  1.0000
  C   C292      1.0  0.73192  0.6006400000000001  0.60067  1.0000
  C   C293      1.0  0.26819  0.39943  0.39941  1.0000
  C   C294      1.0  0.40033  0.60005  0.73058  1.0000
  C   C295      1.0  0.60026  0.39970000000000006  0.26863  1.0000
  C   C296      1.0  0.26851  0.6004  0.39960999999999997  1.0000
  C   C297      1.0  0.73148  0.3996  0.60039  1.0000
  C   C298      1.0  0.6000299999999998  0.6000799999999998  0.26904  1.0000
  C   C299      1.0  0.40045  0.40006  0.73036  1.0000
  C   C300      1.0  0.7313499999999998  0.39968  0.39969  1.0000
  C   C301      1.0  0.93044  0.20145  0.29855  1.0000
  C   C302      1.0  0.26816  0.60065  0.60062  1.0000
  C   C303      1.0  0.4000699999999999  0.40008999999999995  0.26898  1.0000
  C   C304      1.0  0.5999  0.59989  0.7310199999999999  1.0000
  C   C305      1.0  0.26797  0.39927  0.60071  1.0000
  C   C306      1.0  0.73177  0.6005700000000002  0.39942999999999995  1.0000
  C   C307      1.0  0.60018  0.39976  0.73125  1.0000
  C   C308      1.0  0.39978  0.60027  0.26871  1.0000
  C   C309      1.0  0.40017  0.2692  0.39981  1.0000
  C   C310      1.0  0.59961  0.73052  0.6000099999999999  1.0000
  C   C311      1.0  0.40004  0.7310700000000001  0.5999399999999999  1.0000
  C   C312      1.0  0.06944  0.79862  0.70135  1.0000
  C   C313      1.0  0.6001199999999999  0.26886  0.39983  1.0000
  C   C314      1.0  0.60048  0.73167  0.39947  1.0000
  C   C315      1.0  0.40001999999999993  0.26887  0.59997  1.0000
  C   C316      1.0  0.60015  0.26885  0.60019  1.0000
  C   C317      1.0  0.39989  0.73109  0.39984  1.0000
  C   C318      1.0  0.29856  0.20145  0.06957  1.0000
  C   C319      1.0  0.29855  0.70146  0.43042  1.0000
  C   C320      1.0  0.70144  0.79855  0.93042  1.0000
  C   C321      1.0  0.20133  0.70137  0.06947  1.0000
  C   C322      1.0  0.79856  0.29853  0.93038  1.0000
  C   C323      1.0  0.20134  0.93047  0.7013999999999999  1.0000
  C   C324      1.0  0.7985399999999999  0.0696  0.29853  1.0000
  C   C325      1.0  0.20144  0.29856  0.93043  1.0000
  C   C326      1.0  0.79932  0.70075  0.06851  1.0000
  C   C327      1.0  0.20317  0.072  0.29653  1.0000
  C   C328      1.0  0.79863  0.93052  0.70135  1.0000
  C   C329      1.0  0.7985499999999999  0.29854  0.06959  1.0000
  C   C330      1.0  0.43056  0.29864  0.70132  1.0000
  C   C331      1.0  0.20145  0.70145  0.93042  1.0000
  C   C332      1.0  0.7985499999999999  0.06958  0.70146  1.0000
  C   C333      1.0  0.20147  0.93037  0.29854  1.0000
  C   C334      1.0  0.79856  0.70145  0.93043  1.0000
  C   C335      1.0  0.20145  0.29854  0.06959  1.0000
  C   C336      1.0  0.79683  0.92799  0.29653  1.0000
  C   C337      1.0  0.20142999999999997  0.06956  0.70144  1.0000
  C   C338      1.0  0.29856  0.93042  0.20145  1.0000
  C   C339      1.0  0.70144  0.06957  0.79855  1.0000
  C   C340      1.0  0.06944  0.29862  0.20135  1.0000
  C   C341      1.0  0.56957  0.70146  0.29854  1.0000
  C   C342      1.0  0.93043  0.70145  0.79855  1.0000
  C   C343      1.0  0.70144  0.06957  0.20145  1.0000
  C   C344      1.0  0.29857  0.93044  0.79856  1.0000
  C   C345      1.0  0.92793  0.70347  0.20320999999999997  1.0000
  C   C346      1.0  0.06957  0.29855  0.79855  1.0000
  C   C347      1.0  0.70145  0.93042  0.79854  1.0000
  C   C348      1.0  0.29853  0.06961  0.20148  1.0000
  C   C349      1.0  0.9305599999999999  0.29868  0.79864  1.0000
  C   C350      1.0  0.06954  0.70145  0.20144  1.0000
  C   C351      1.0  0.29865  0.06954  0.7986  1.0000
  C   C352      1.0  0.29854  0.29852  0.43036  1.0000
  C   C353      1.0  0.70148  0.93038  0.20149  1.0000
  C   C354      1.0  0.06955  0.70144  0.79856  1.0000
  C   C355      1.0  0.93045  0.29856  0.20144  1.0000
  C   C356      1.0  0.56957  0.79855  0.79855  1.0000
  C   C357      1.0  0.43041  0.20147  0.20147  1.0000
  C   C358      1.0  0.20145  0.79854  0.56959  1.0000
  C   C359      1.0  0.7985499999999999  0.20147  0.43041  1.0000
  C   C360      1.0  0.43045  0.79856  0.20144  1.0000
  C   C361      1.0  0.56955  0.20144  0.79856  1.0000
  C   C362      1.0  0.79681  0.79651  0.42797  1.0000
  C   C363      1.0  0.70145  0.70147  0.56963  1.0000
  C   C364      1.0  0.20145  0.20146  0.56959  1.0000
  C   C365      1.0  0.56955  0.20144  0.20144  1.0000
  C   C366      1.0  0.43045  0.79857  0.79856  1.0000
  C   C367      1.0  0.20317  0.20347  0.4279899999999999  1.0000
  C   C368      1.0  0.7985399999999999  0.79853  0.56958  1.0000
  C   C369      1.0  0.43056  0.20137  0.79866  1.0000
  C   C370      1.0  0.56959  0.79853  0.20147  1.0000
  C   C371      1.0  0.7985499999999999  0.20146  0.56958  1.0000
  C   C372      1.0  0.20133  0.79862  0.43053  1.0000
  C   C373      1.0  0.20135  0.43046  0.2014  1.0000
  C   C374      1.0  0.56944  0.70132  0.7013599999999999  1.0000
  C   C375      1.0  0.7985399999999999  0.56959  0.79854  1.0000
  C   C376      1.0  0.20144  0.56957  0.79855  1.0000
  C   C377      1.0  0.7985499999999999  0.43042  0.20146  1.0000
  C   C378      1.0  0.79649  0.57202  0.20308  1.0000
  C   C379      1.0  0.20145  0.43041  0.79854  1.0000
  C   C380      1.0  0.79856  0.43045  0.79854  1.0000
  C   C381      1.0  0.20145  0.56961  0.20145  1.0000
  C   C382      1.0  0.6740899999999999  0.10937  0.17409  1.0000
  C   C383      1.0  0.32593999999999995  0.8906600000000001  0.82594  1.0000
  C   C384      1.0  0.8259  0.10939  0.6741099999999999  1.0000
  H   H1        1.0  0.71867  0.07306  0.07308  1.0000
  H   H2        1.0  0.28163  0.07307  0.07298  1.0000
  H   H3        1.0  0.9314  0.92695  0.29324  1.0000
  H   H4        1.0  0.0728  0.07287  0.71799  1.0000
  H   H5        1.0  0.28114  0.92689  0.07313  1.0000
  H   H6        1.0  0.71878  0.07309  0.92689  1.0000
  H   H7        1.0  0.10913999999999999  0.89819  0.77008  1.0000
  H   H8        1.0  0.92711  0.07308  0.28156  1.0000
  H   H9        1.0  0.8907  0.23004  0.89861  1.0000
  H   H10       1.0  0.07277  0.71848  0.07279  1.0000
  H   H11       1.0  0.9274799999999999  0.7066399999999999  0.06859  1.0000
  H   H12       1.0  0.2815  0.9270599999999999  0.92693  1.0000
  H   H13       1.0  0.07281  0.28187  0.92703  1.0000
  H   H14       1.0  0.07285  0.71832  0.92699  1.0000
  H   H15       1.0  0.92712  0.28168  0.07299  1.0000
  H   H16       1.0  0.07283  0.28104  0.07306  1.0000
  H   H17       1.0  0.92713  0.7181  0.92707  1.0000
  H   H18       1.0  0.27009  0.60159  0.10933  1.0000
  H   H19       1.0  0.78054  0.42672  0.92668  1.0000
  H   H20       1.0  0.8872  0.62708  0.27983  1.0000
  H   H21       1.0  0.07296  0.42692  0.78136  1.0000
  H   H22       1.0  0.78148  0.57312  0.9270399999999999  1.0000
  H   H23       1.0  0.9270899999999999  0.07295  0.71833  1.0000
  H   H24       1.0  0.27055  0.39044000000000006  0.10263999999999998  1.0000
  H   H25       1.0  0.07285  0.57297  0.7818399999999999  1.0000
  H   H26       1.0  0.9272699999999999  0.42685000000000006  0.21822  1.0000
  H   H27       1.0  0.21839  0.42696  0.92702  1.0000
  H   H28       1.0  0.73799  0.58683  0.1058  1.0000
  H   H29       1.0  0.92739  0.42716000000000004  0.78176  1.0000
  H   H30       1.0  0.07324  0.57313  0.21913  1.0000
  H   H31       1.0  0.78119  0.42691  0.07312  1.0000
  H   H32       1.0  0.21862999999999996  0.57307  0.92698  1.0000
  H   H33       1.0  0.10921  0.39826  0.27008  1.0000
  H   H34       1.0  0.07316  0.92668  0.28066  1.0000
  H   H35       1.0  0.92704  0.57309  0.78141  1.0000
  H   H36       1.0  0.42719  0.92707  0.21802999999999997  1.0000
  H   H37       1.0  0.57275  0.07296  0.78201  1.0000
  H   H38       1.0  0.42713  0.78161  0.92698  1.0000
  H   H39       1.0  0.57289  0.21844  0.07303  1.0000
  H   H40       1.0  0.3908  0.10175  0.72992  1.0000
  H   H41       1.0  0.57319  0.92662  0.21938  1.0000
  H   H42       1.0  0.42711  0.21814  0.07293  1.0000
  H   H43       1.0  0.57292  0.78165  0.92699  1.0000
  H   H44       1.0  0.57284  0.07296  0.21817999999999999  1.0000
  H   H45       1.0  0.22945  0.1096  0.8973799999999997  1.0000
  H   H46       1.0  0.42718  0.92712  0.78195  1.0000
  H   H47       1.0  0.57288  0.21843000000000004  0.92695  1.0000
  H   H48       1.0  0.42714  0.78168  0.07301  1.0000
  H   H49       1.0  0.57292  0.92696  0.78153  1.0000
  H   H50       1.0  0.42684  0.07333  0.21929  1.0000
  H   H51       1.0  0.57286  0.78201  0.07291  1.0000
  H   H52       1.0  0.42718  0.21893  0.92694  1.0000
  H   H53       1.0  0.07274  0.78167  0.42722  1.0000
  H   H54       1.0  0.9270899999999999  0.21835  0.57302  1.0000
  H   H55       1.0  0.28199  0.16716  0.33272  1.0000
  H   H56       1.0  0.71854  0.92688  0.07304  1.0000
  H   H57       1.0  0.78097  0.9271500000000001  0.57315  1.0000
  H   H58       1.0  0.9271699999999999  0.21815  0.42699  1.0000
  H   H59       1.0  0.07287  0.78096  0.57308  1.0000
  H   H60       1.0  0.71801  0.83268  0.33266  1.0000
  H   H61       1.0  0.21869  0.07292  0.57323  1.0000
  H   H62       1.0  0.9269  0.78086  0.57325  1.0000
  H   H63       1.0  0.06855  0.20693  0.42693  1.0000
  H   H64       1.0  0.7814099999999999  0.07308  0.57308  1.0000
  H   H65       1.0  0.27003  0.89864  0.39044  1.0000
  H   H66       1.0  0.0729  0.21847  0.57304  1.0000
  H   H67       1.0  0.06858  0.07304  0.29319  1.0000
  H   H68       1.0  0.93133  0.7926200000000001  0.42683999999999994  1.0000
  H   H69       1.0  0.27051  0.8904200000000001  0.60253  1.0000
  H   H70       1.0  0.78103  0.0733  0.4269  1.0000
  H   H71       1.0  0.71951  0.5733  0.57334  1.0000
  H   H72       1.0  0.28069  0.42677  0.42669999999999997  1.0000
  H   H73       1.0  0.39065  0.60152  0.7700199999999999  1.0000
  H   H74       1.0  0.57295  0.42693  0.28141  1.0000
  H   H75       1.0  0.28125  0.57313  0.42689  1.0000
  H   H76       1.0  0.71875  0.42687  0.57311  1.0000
  H   H77       1.0  0.57281  0.57293  0.28211  1.0000
  H   H78       1.0  0.89857  0.89092  0.76985  1.0000
  H   H79       1.0  0.39083  0.39872  0.76982  1.0000
  H   H80       1.0  0.71854  0.42692  0.42695  1.0000
  H   H81       1.0  0.28063  0.57333  0.57329  1.0000
  H   H82       1.0  0.42739  0.42721  0.2819  1.0000
  H   H83       1.0  0.57252  0.57283  0.7180999999999998  1.0000
  H   H84       1.0  0.28032  0.42664  0.57337  1.0000
  H   H85       1.0  0.7191799999999999  0.57323  0.42669  1.0000
  H   H86       1.0  0.57285  0.42693  0.71839  1.0000
  H   H87       1.0  0.42708  0.57305  0.28155  1.0000
  H   H88       1.0  0.3905  0.22977  0.39809  1.0000
  H   H89       1.0  0.71844  0.92697  0.9269699999999998  1.0000
  H   H90       1.0  0.60932  0.76995  0.60134  1.0000
  H   H91       1.0  0.42743  0.71818  0.57285  1.0000
  H   H92       1.0  0.57283  0.2818  0.427  1.0000
  H   H93       1.0  0.5731  0.71907  0.42669999999999997  1.0000
  H   H94       1.0  0.42739  0.28171  0.57285  1.0000
  H   H95       1.0  0.57288  0.28177  0.573  1.0000
  H   H96       1.0  0.42714  0.71813  0.42704  1.0000
  O   O1        1.0  0.55379  0.25633  0.31465  1.0000
  O   O2        1.0  0.44621  0.25633  0.31465  1.0000
  O   O3        1.0  0.81465  0.74367  0.94621  1.0000
  O   O4        1.0  0.94621  0.25633  0.18535  1.0000
  O   O5        1.0  0.05379  0.74367  0.81465  1.0000
  O   O6        1.0  0.81465  0.25633  0.94621  1.0000
  O   O7        1.0  0.18534999999999996  0.74367  0.05379  1.0000
  O   O8        1.0  0.05379  0.74367  0.18535  1.0000
  O   O9        1.0  0.94621  0.25633  0.81465  1.0000
  O   O10       1.0  0.18534999999999996  0.74367  0.94621  1.0000
  O   O11       1.0  0.81465  0.25633  0.05379  1.0000
  O   O12       1.0  0.94621  0.74367  0.81465  1.0000
  O   O13       1.0  0.68535  0.74367  0.44621  1.0000
  O   O14       1.0  0.05379  0.25633  0.18535  1.0000
  O   O15       1.0  0.81465  0.74367  0.05379  1.0000
  O   O16       1.0  0.18534999999999996  0.25633  0.94621  1.0000
  O   O17       1.0  0.7436699999999999  0.18535  0.05379  1.0000
  O   O18       1.0  0.25633  0.81465  0.94621  1.0000
  O   O19       1.0  0.7436699999999999  0.9462099999999999  0.18535  1.0000
  O   O20       1.0  0.25633  0.05379  0.81465  1.0000
  O   O21       1.0  0.7436699999999999  0.81465  0.94621  1.0000
  O   O22       1.0  0.25633  0.18535  0.05379  1.0000
  O   O23       1.0  0.7436699999999999  0.05379  0.81465  1.0000
  O   O24       1.0  0.31464999999999993  0.25633  0.55379  1.0000
  O   O25       1.0  0.25633  0.9462099999999999  0.18535  1.0000
  O   O26       1.0  0.25633  0.81465  0.05379  1.0000
  O   O27       1.0  0.7436699999999999  0.18535  0.94621  1.0000
  O   O28       1.0  0.25633  0.05379  0.18535  1.0000
  O   O29       1.0  0.7436699999999999  0.9462099999999999  0.81465  1.0000
  O   O30       1.0  0.25633  0.18535  0.94621  1.0000
  O   O31       1.0  0.7436699999999999  0.81465  0.05379  1.0000
  O   O32       1.0  0.25633  0.9462099999999999  0.81465  1.0000
  O   O33       1.0  0.7436699999999999  0.05379  0.18535  1.0000
  O   O34       1.0  0.81465  0.9462099999999999  0.74367  1.0000
  O   O35       1.0  0.44621  0.74367  0.31465  1.0000
  O   O36       1.0  0.18534999999999996  0.05379  0.25633  1.0000
  O   O37       1.0  0.05379  0.81465  0.74367  1.0000
  O   O38       1.0  0.94621  0.18535  0.25633  1.0000
  O   O39       1.0  0.18534999999999996  0.05379  0.74367  1.0000
  O   O40       1.0  0.81465  0.9462099999999999  0.25633  1.0000
  O   O41       1.0  0.94621  0.18535  0.74367  1.0000
  O   O42       1.0  0.05379  0.81465  0.25633  1.0000
  O   O43       1.0  0.18534999999999996  0.9462099999999999  0.25633  1.0000
  O   O44       1.0  0.81465  0.05379  0.74367  1.0000
  O   O45       1.0  0.94621  0.81465  0.25633  1.0000
  O   O46       1.0  0.55379  0.25633  0.68535  1.0000
  O   O47       1.0  0.05379  0.18535  0.74367  1.0000
  O   O48       1.0  0.81465  0.05379  0.25633  1.0000
  O   O49       1.0  0.18534999999999996  0.9462099999999999  0.74367  1.0000
  O   O50       1.0  0.05379  0.18535  0.25633  1.0000
  O   O51       1.0  0.94621  0.81465  0.74367  1.0000
  O   O52       1.0  0.55379  0.75633  0.81465  1.0000
  O   O53       1.0  0.44621  0.24367  0.18535  1.0000
  O   O54       1.0  0.18534999999999996  0.75633  0.55379  1.0000
  O   O55       1.0  0.81465  0.24367  0.44621  1.0000
  O   O56       1.0  0.44621  0.75633  0.18535  1.0000
  O   O57       1.0  0.31464999999999993  0.74367  0.55379  1.0000
  O   O58       1.0  0.55379  0.24367  0.81465  1.0000
  O   O59       1.0  0.81465  0.75633  0.44621  1.0000
  O   O60       1.0  0.18534999999999996  0.24367  0.55379  1.0000
  O   O61       1.0  0.55379  0.24367  0.18535  1.0000
  O   O62       1.0  0.44621  0.75633  0.81465  1.0000
  O   O63       1.0  0.18534999999999996  0.24367  0.44621  1.0000
  O   O64       1.0  0.81465  0.75633  0.55379  1.0000
  O   O65       1.0  0.44621  0.24367  0.81465  1.0000
  O   O66       1.0  0.55379  0.75633  0.18535  1.0000
  O   O67       1.0  0.81465  0.24367  0.55379  1.0000
  O   O68       1.0  0.68535  0.25633  0.44621  1.0000
  O   O69       1.0  0.18534999999999996  0.75633  0.44621  1.0000
  O   O70       1.0  0.24366999999999994  0.18535  0.55379  1.0000
  O   O71       1.0  0.7563300000000001  0.81465  0.44621  1.0000
  O   O72       1.0  0.24366999999999994  0.44621  0.18535  1.0000
  O   O73       1.0  0.7563300000000001  0.55379  0.81465  1.0000
  O   O74       1.0  0.24366999999999994  0.81465  0.44621  1.0000
  O   O75       1.0  0.7563300000000001  0.18535  0.55379  1.0000
  O   O76       1.0  0.24366999999999994  0.55379  0.81465  1.0000
  O   O77       1.0  0.7563300000000001  0.44621  0.18535  1.0000
  O   O78       1.0  0.7563300000000001  0.81465  0.55379  1.0000
  O   O79       1.0  0.7436699999999999  0.68535  0.55379  1.0000
  O   O80       1.0  0.24366999999999994  0.18535  0.44621  1.0000
  O   O81       1.0  0.7563300000000001  0.55379  0.18535  1.0000
  O   O82       1.0  0.24366999999999994  0.44621  0.81465  1.0000
  O   O83       1.0  0.7563300000000001  0.18535  0.44621  1.0000
  O   O84       1.0  0.24366999999999994  0.81465  0.55379  1.0000
  O   O85       1.0  0.7563300000000001  0.44621  0.81465  1.0000
  O   O86       1.0  0.24366999999999994  0.55379  0.18535  1.0000
  O   O87       1.0  0.81465  0.44621  0.24367  1.0000
  O   O88       1.0  0.18534999999999996  0.55379  0.75633  1.0000
  O   O89       1.0  0.55379  0.81465  0.24367  1.0000
  O   O90       1.0  0.25633  0.31465  0.44621  1.0000
  O   O91       1.0  0.44621  0.18535  0.75633  1.0000
  O   O92       1.0  0.18534999999999996  0.55379  0.24367  1.0000
  O   O93       1.0  0.81465  0.44621  0.75633  1.0000
  O   O94       1.0  0.44621  0.18535  0.24367  1.0000
  O   O95       1.0  0.55379  0.81465  0.75633  1.0000
  O   O96       1.0  0.18534999999999996  0.44621  0.75633  1.0000
  O   O97       1.0  0.81465  0.55379  0.24367  1.0000
  O   O98       1.0  0.44621  0.81465  0.75633  1.0000
  O   O99       1.0  0.55379  0.18535  0.24367  1.0000
  O   O100      1.0  0.81465  0.55379  0.75633  1.0000
  O   O101      1.0  0.7436699999999999  0.44621  0.68535  1.0000
  O   O102      1.0  0.18534999999999996  0.44621  0.24367  1.0000
  O   O103      1.0  0.55379  0.18535  0.75633  1.0000
  O   O104      1.0  0.44621  0.81465  0.24367  1.0000
  O   O105      1.0  0.77631  0.10671  0.10672  1.0000
  O   O106      1.0  0.22379  0.8934  0.89344  1.0000
  O   O107      1.0  0.89354  0.10647  0.77609  1.0000
  O   O108      1.0  0.10722  0.8928  0.22341  1.0000
  O   O109      1.0  0.28228  0.06484  0.92546  1.0000
  O   O110      1.0  0.77626  0.8933300000000001  0.10670999999999999  1.0000
  O   O111      1.0  0.10045  0.09672  0.22994  1.0000
  O   O112      1.0  0.44621  0.74367  0.68535  1.0000
  O   O113      1.0  0.25633  0.55379  0.31465  1.0000
  O   O114      1.0  0.92531  0.93593  0.7166  1.0000
  O   O115      1.0  0.77619  0.89338  0.8934  1.0000
  O   O116      1.0  0.22384  0.10654  0.10658  1.0000
  O   O117      1.0  0.89959  0.90332  0.22996  1.0000
  O   O118      1.0  0.1062  0.10623000000000002  0.7759  1.0000
  O   O119      1.0  0.2236  0.89315  0.10685  1.0000
  O   O120      1.0  0.77636  0.10679000000000001  0.8932  1.0000
  O   O121      1.0  0.06403  0.92539  0.71712  1.0000
  O   O122      1.0  0.89342  0.10656  0.22384999999999997  1.0000
  O   O123      1.0  0.93617  0.28308  0.92494  1.0000
  O   O124      1.0  0.7436699999999999  0.31465  0.44621  1.0000
  O   O125      1.0  0.10634  0.7761  0.10647999999999999  1.0000
  O   O126      1.0  0.9035799999999999  0.76989  0.10028  1.0000
  O   O127      1.0  0.10636  0.22402  0.89366  1.0000
  O   O128      1.0  0.10644999999999999  0.7760699999999999  0.89355  1.0000
  O   O129      1.0  0.89355  0.22392  0.10647  1.0000
  O   O130      1.0  0.10689  0.22367000000000004  0.10676  1.0000
  O   O131      1.0  0.89365  0.77597  0.89364  1.0000
  O   O132      1.0  0.217  0.57491  0.06409  1.0000
  O   O133      1.0  0.72331  0.39271  0.89271  1.0000
  O   O134      1.0  0.82007  0.65918  0.28442  1.0000
  O   O135      1.0  0.25633  0.68535  0.55379  1.0000
  O   O136      1.0  0.10669  0.39330999999999994  0.7237599999999998  1.0000
  O   O137      1.0  0.72376  0.6066300000000001  0.89333  1.0000
  O   O138      1.0  0.21769  0.43513  0.07449  1.0000
  O   O139      1.0  0.10637  0.60638  0.72401  1.0000
  O   O140      1.0  0.89352  0.39361  0.27602  1.0000
  O   O141      1.0  0.27616  0.39344  0.89343  1.0000
  O   O142      1.0  0.79302  0.58041  0.05622  1.0000
  O   O143      1.0  0.89367  0.39381  0.72403  1.0000
  O   O144      1.0  0.10703  0.6071000000000001  0.27647  1.0000
  O   O145      1.0  0.72362  0.39319  0.10681  1.0000
  O   O146      1.0  0.7436699999999999  0.55379  0.31465  1.0000
  O   O147      1.0  0.27629  0.60666  0.89331  1.0000
  O   O148      1.0  0.06394  0.42526  0.21715  1.0000
  O   O149      1.0  0.8933199999999999  0.60669  0.72378  1.0000
  O   O150      1.0  0.39372  0.89371  0.27593  1.0000
  O   O151      1.0  0.60626  0.10624  0.72409  1.0000
  O   O152      1.0  0.39351  0.72389  0.89352  1.0000
  O   O153      1.0  0.60652  0.27613  0.10651999999999999  1.0000
  O   O154      1.0  0.43604  0.0747  0.78285  1.0000
  O   O155      1.0  0.6073  0.89275  0.27662  1.0000
  O   O156      1.0  0.39364999999999994  0.27599  0.10638  1.0000
  O   O157      1.0  0.25633  0.44621  0.68535  1.0000
  O   O158      1.0  0.60652  0.72391  0.8934899999999999  1.0000
  O   O159      1.0  0.60636  0.10636  0.276  1.0000
  O   O160      1.0  0.39376  0.8937300000000001  0.72407  1.0000
  O   O161      1.0  0.60654  0.27613  0.8934599999999999  1.0000
  O   O162      1.0  0.39355  0.72393  0.10646  1.0000
  O   O163      1.0  0.6065799999999999  0.89343  0.7238399999999999  1.0000
  O   O164      1.0  0.39278  0.10716  0.27657  1.0000
  O   O165      1.0  0.60626  0.72408  0.10631  1.0000
  O   O166      1.0  0.39312  0.27632  0.89326  1.0000
  O   O167      1.0  0.10628999999999998  0.72398  0.39358999999999994  1.0000
  O   O168      1.0  0.25633  0.31465  0.55379  1.0000
  O   O169      1.0  0.89348  0.27609  0.6065  1.0000
  O   O170      1.0  0.28193  0.11441  0.3856  1.0000
  O   O171      1.0  0.7235699999999999  0.89306  0.60676  1.0000
  O   O172      1.0  0.89359  0.276  0.39362  1.0000
  O   O173      1.0  0.10695  0.72363  0.60683  1.0000
  O   O174      1.0  0.71798  0.88549  0.38546  1.0000
  O   O175      1.0  0.27631  0.10677999999999999  0.60668  1.0000
  O   O176      1.0  0.89295  0.72352  0.6070499999999999  1.0000
  O   O177      1.0  0.10048999999999998  0.27013  0.40326  1.0000
  O   O178      1.0  0.72374  0.10672  0.60671  1.0000
  O   O179      1.0  0.7436699999999999  0.68535  0.44621  1.0000
  O   O180      1.0  0.21703  0.92461  0.43622  1.0000
  O   O181      1.0  0.10653999999999998  0.27615  0.60654  1.0000
  O   O182      1.0  0.89925  0.72958  0.40294  1.0000
  O   O183      1.0  0.21765  0.93522  0.57457  1.0000
  O   O184      1.0  0.72354  0.10697  0.39298  1.0000
  O   O185      1.0  0.77671  0.60733  0.60733  1.0000
  O   O186      1.0  0.22338  0.39281  0.39282999999999996  1.0000
  O   O187      1.0  0.43608  0.575  0.71699  1.0000
  O   O188      1.0  0.60666  0.39335000000000003  0.22377999999999998  1.0000
  O   O189      1.0  0.22365  0.60683  0.39317  1.0000
  O   O190      1.0  0.25633  0.55379  0.68535  1.0000
  O   O191      1.0  0.7763499999999999  0.39317  0.60682  1.0000
  O   O192      1.0  0.6061899999999999  0.60621  0.22413  1.0000
  O   O193      1.0  0.43620999999999993  0.425  0.71664  1.0000
  O   O194      1.0  0.7762399999999999  0.39332  0.39332  1.0000
  O   O195      1.0  0.22335  0.60728  0.60728  1.0000
  O   O196      1.0  0.39378  0.39388  0.22408999999999998  1.0000
  O   O197      1.0  0.60624  0.60607  0.7759  1.0000
  O   O198      1.0  0.2232  0.39255  0.60746  1.0000
  O   O199      1.0  0.7766  0.60713  0.3929  1.0000
  O   O200      1.0  0.60654  0.39348  0.77612  1.0000
  O   O201      1.0  0.7436699999999999  0.44621  0.31465  1.0000
  O   O202      1.0  0.39342  0.60658  0.22384999999999997  1.0000
  O   O203      1.0  0.4358  0.28265  0.42506999999999995  1.0000
  O   O204      1.0  0.56378  0.71692  0.57511  1.0000
  O   O205      1.0  0.39367  0.77595  0.60616  1.0000
  O   O206      1.0  0.60642  0.22398  0.39362  1.0000
  O   O207      1.0  0.60706  0.77647  0.39298999999999995  1.0000
  O   O208      1.0  0.39364999999999994  0.224  0.60622  1.0000
  O   O209      1.0  0.60645  0.22397  0.60644  1.0000
  O   O210      1.0  0.39363  0.77598  0.39362  1.0000
  O   O211      1.0  0.25633  0.68535  0.44621  1.0000
  O   O212      1.0  0.68535  0.25633  0.55379  1.0000
  O   O213      1.0  0.7436699999999999  0.31465  0.55379  1.0000
  O   O214      1.0  0.25633  0.44621  0.31465  1.0000
  O   O215      1.0  0.7436699999999999  0.55379  0.68535  1.0000
  O   O216      1.0  0.31464999999999993  0.44621  0.74367  1.0000
  O   O217      1.0  0.68535  0.55379  0.25633  1.0000
  O   O218      1.0  0.55379  0.31465  0.74367  1.0000
  O   O219      1.0  0.44621  0.68535  0.25633  1.0000
  O   O220      1.0  0.68535  0.55379  0.74367  1.0000
  O   O221      1.0  0.31464999999999993  0.44621  0.25633  1.0000
  O   O222      1.0  0.44621  0.68535  0.74367  1.0000
  O   O223      1.0  0.31464999999999993  0.74367  0.44621  1.0000
  O   O224      1.0  0.55379  0.31465  0.25633  1.0000
  O   O225      1.0  0.68535  0.44621  0.25633  1.0000
  O   O226      1.0  0.31464999999999993  0.55379  0.74367  1.0000
  O   O227      1.0  0.44621  0.31465  0.25633  1.0000
  O   O228      1.0  0.55379  0.68535  0.74367  1.0000
  O   O229      1.0  0.31464999999999993  0.55379  0.25633  1.0000
  O   O230      1.0  0.68535  0.44621  0.74367  1.0000
  O   O231      1.0  0.55379  0.68535  0.25633  1.0000
  O   O232      1.0  0.44621  0.31465  0.74367  1.0000
  O   O233      1.0  0.05379  0.75633  0.31465  1.0000
  O   O234      1.0  0.44621  0.25633  0.68535  1.0000
  O   O235      1.0  0.94621  0.24367  0.68535  1.0000
  O   O236      1.0  0.68535  0.75633  0.05379  1.0000
  O   O237      1.0  0.31464999999999993  0.24367  0.94621  1.0000
  O   O238      1.0  0.94621  0.75633  0.68535  1.0000
  O   O239      1.0  0.05379  0.24367  0.31465  1.0000
  O   O240      1.0  0.31464999999999993  0.75633  0.94621  1.0000
  O   O241      1.0  0.68535  0.24367  0.05379  1.0000
  O   O242      1.0  0.05379  0.24367  0.68535  1.0000
  O   O243      1.0  0.94621  0.75633  0.31465  1.0000
  O   O244      1.0  0.68535  0.24367  0.94621  1.0000
  O   O245      1.0  0.55379  0.74367  0.31465  1.0000
  O   O246      1.0  0.31464999999999993  0.75633  0.05379  1.0000
  O   O247      1.0  0.94621  0.24367  0.31465  1.0000
  O   O248      1.0  0.05379  0.75633  0.68535  1.0000
  O   O249      1.0  0.31464999999999993  0.24367  0.05379  1.0000
  O   O250      1.0  0.68535  0.75633  0.94621  1.0000
  O   O251      1.0  0.24366999999999994  0.68535  0.05379  1.0000
  O   O252      1.0  0.7563300000000001  0.31465  0.94621  1.0000
  O   O253      1.0  0.24366999999999994  0.9462099999999999  0.68535  1.0000
  O   O254      1.0  0.7563300000000001  0.05379  0.31465  1.0000
  O   O255      1.0  0.24366999999999994  0.31465  0.94621  1.0000
  O   O256      1.0  0.31464999999999993  0.25633  0.44621  1.0000
  O   O257      1.0  0.7563300000000001  0.68535  0.05379  1.0000
  O   O258      1.0  0.24366999999999994  0.05379  0.31465  1.0000
  O   O259      1.0  0.7563300000000001  0.9462099999999999  0.68535  1.0000
  O   O260      1.0  0.7563300000000001  0.31465  0.05379  1.0000
  O   O261      1.0  0.24366999999999994  0.68535  0.94621  1.0000
  O   O262      1.0  0.7563300000000001  0.05379  0.68535  1.0000
  O   O263      1.0  0.24366999999999994  0.9462099999999999  0.31465  1.0000
  O   O264      1.0  0.7563300000000001  0.68535  0.94621  1.0000
  O   O265      1.0  0.24366999999999994  0.31465  0.05379  1.0000
  O   O266      1.0  0.7563300000000001  0.9462099999999999  0.31465  1.0000
  O   O267      1.0  0.68535  0.74367  0.55379  1.0000
  O   O268      1.0  0.24366999999999994  0.05379  0.68535  1.0000
  O   O269      1.0  0.31464999999999993  0.9462099999999999  0.24367  1.0000
  O   O270      1.0  0.68535  0.05379  0.75633  1.0000
  O   O271      1.0  0.05379  0.31465  0.24367  1.0000
  O   O272      1.0  0.94621  0.68535  0.75633  1.0000
  O   O273      1.0  0.68535  0.05379  0.24367  1.0000
  O   O274      1.0  0.31464999999999993  0.9462099999999999  0.75633  1.0000
  O   O275      1.0  0.94621  0.68535  0.24367  1.0000
  O   O276      1.0  0.05379  0.31465  0.75633  1.0000
  O   O277      1.0  0.68535  0.9462099999999999  0.75633  1.0000
  O   O278      1.0  0.55379  0.74367  0.68535  1.0000
  O   O279      1.0  0.31464999999999993  0.05379  0.24367  1.0000
  O   O280      1.0  0.94621  0.31465  0.75633  1.0000
  O   O281      1.0  0.05379  0.68535  0.24367  1.0000
  O   O282      1.0  0.31464999999999993  0.05379  0.75633  1.0000
  O   O283      1.0  0.68535  0.9462099999999999  0.24367  1.0000
  O   O284      1.0  0.05379  0.68535  0.75633  1.0000
  O   O285      1.0  0.94621  0.31465  0.24367  1.0000
  O   O286      1.0  0.05379  0.25633  0.81465  1.0000
  O   O287      1.0  0.94621  0.74367  0.18535  1.0000
  O   O288      1.0  0.18534999999999996  0.25633  0.05379  1.0000
  Zn  Zn1       1.0  0.5  0.21053  0.28947  1.0000
  Zn  Zn2       1.0  0.21053  0.28947  0.5  1.0000
  Zn  Zn3       1.0  0.78947  0.5  0.7105299999999999  1.0000
  Zn  Zn4       1.0  0.21053  0.5  0.28947  1.0000
  Zn  Zn5       1.0  0.78947  0.28947  0.5  1.0000
  Zn  Zn6       1.0  0.21053  0.71053  0.5  1.0000
  Zn  Zn7       1.0  0.78947  0.5  0.28947  1.0000
  Zn  Zn8       1.0  0.21053  0.5  0.7105299999999999  1.0000
  Zn  Zn9       1.0  0.28947  0.5  0.78947  1.0000
  Zn  Zn10      1.0  0.7105299999999999  0.5  0.21053  1.0000
  Zn  Zn11      1.0  0.5  0.28947  0.78947  1.0000
  Zn  Zn12      1.0  0.5  0.7894700000000001  0.7105299999999999  1.0000
  Zn  Zn13      1.0  0.5  0.71053  0.21053  1.0000
  Zn  Zn14      1.0  0.7105299999999999  0.5  0.78947  1.0000
  Zn  Zn15      1.0  0.28947  0.5  0.21053  1.0000
  Zn  Zn16      1.0  0.5  0.71053  0.78947  1.0000
  Zn  Zn17      1.0  0.5  0.28947  0.21053  1.0000
  Zn  Zn18      1.0  0.0  0.71053  0.28947  1.0000
  Zn  Zn19      1.0  0.0  0.28947  0.7105299999999999  1.0000
  Zn  Zn20      1.0  0.7105299999999999  0.71053  0.0  1.0000
  Zn  Zn21      1.0  0.28947  0.28947  0.0  1.0000
  Zn  Zn22      1.0  0.0  0.71053  0.7105299999999999  1.0000
  Zn  Zn23      1.0  0.7105299999999999  0.21053  0.5  1.0000
  Zn  Zn24      1.0  0.0  0.28947  0.28947  1.0000
  Zn  Zn25      1.0  0.28947  0.71053  0.0  1.0000
  Zn  Zn26      1.0  0.7105299999999999  0.28947  0.0  1.0000
  Zn  Zn27      1.0  0.28947  3.246791468165677e-20  0.7105299999999999  1.0000
  Zn  Zn28      1.0  0.7105299999999999  0.0  0.28947  1.0000
  Zn  Zn29      1.0  0.28947  0.0  0.28947  1.0000
  Zn  Zn30      1.0  0.7105299999999999  3.246791468165677e-20  0.7105299999999999  1.0000
  Zn  Zn31      1.0  0.0  0.21053  0.78947  1.0000
  Zn  Zn32      1.0  0.0  0.7894700000000001  0.21053  1.0000
  Zn  Zn33      1.0  0.21053  0.21053  0.0  1.0000
  Zn  Zn34      1.0  0.28947  0.7894700000000001  0.5  1.0000
  Zn  Zn35      1.0  0.78947  0.7894700000000001  0.0  1.0000
  Zn  Zn36      1.0  0.0  0.21053  0.21053  1.0000
  Zn  Zn37      1.0  0.0  0.7894700000000001  0.78947  1.0000
  Zn  Zn38      1.0  0.78947  0.21053  0.0  1.0000
  Zn  Zn39      1.0  0.21053  0.7894700000000001  0.0  1.0000
  Zn  Zn40      1.0  0.78947  0.0  0.21053  1.0000
  Zn  Zn41      1.0  0.21053  0.0  0.78947  1.0000
  Zn  Zn42      1.0  0.78947  0.0  0.78947  1.0000
  Zn  Zn43      1.0  0.21053  0.0  0.21053  1.0000
  Zn  Zn44      1.0  0.5  0.21053  0.7105299999999999  1.0000
  Zn  Zn45      1.0  0.5  0.7894700000000001  0.28947  1.0000
  Zn  Zn46      1.0  0.28947  0.21053  0.5  1.0000
  Zn  Zn47      1.0  0.7105299999999999  0.7894700000000001  0.5  1.0000
  Zn  Zn48      1.0  0.78947  0.71053  0.5  1.0000
