data_image0
_chemical_formula_structural       O8C4O8C4Cu8O16C32N4C4N4C4H4C28H4C16H4C8N8C24H4C12O8C4Cu4O8C4NO2NO2NO2NO2NO2NO2NO2NO2NO2NO2NO2NO2CO2HCO2HCO2HCO2HNO2NO2NO2NO2CO2HCO2HCO2HCO2HCO2HCO2HCO2HCO2HCO2HCO2HCO2HCO2HCO2HCO2HCO2HCO2HNO2NO2NO2NO2NO2NO2NO2NO2CO2HCO2HCO2HCO2HNO2NO2NO2NO2CO2HCO2HCO2HCO2HNO2NO2NO2NO2CO2HCO2HCO2HCO2HCO2HCO2HCO2HCO2HNO2NO2NO2NO2CO2HCO2HCO2HCO2HCO2HCO2HCO2HCO2HCO2HCO2HCO2HCO2HCO2HCO2HCO2HCO2HCO2HCO2HCO2HCO2HCO2HCO2HCO2HCO2HNO2NO2NO2NO2CO2HCO2HCO2HCO2HCO2HCO2HCO2HCO2HNO2NO2NO2NO2
_chemical_formula_sum              "O272 C212 Cu12 N60 H84"
_cell_length_a       31.95407
_cell_length_b       31.72949
_cell_length_c       25.15156
_cell_angle_alpha    90.14772
_cell_angle_beta     129.32709000000003
_cell_angle_gamma    89.80321

_space_group_name_H-M_alt    "P 1"
_space_group_IT_number       1

loop_
  _space_group_symop_operation_xyz
  'x, y, z'

loop_
  _atom_site_type_symbol
  _atom_site_label
  _atom_site_symmetry_multiplicity
  _atom_site_fract_x
  _atom_site_fract_y
  _atom_site_fract_z
  _atom_site_occupancy
  O   O1        1.0  0.8219699999999998  0.7691900000000003  0.50001  1.0000
  O   O2        1.0  0.17803  0.7691900000000003  0.49999  1.0000
  O   O3        1.0  0.32197  0.26919  0.50001  1.0000
  O   O4        1.0  0.67803  0.26919  0.49999  1.0000
  O   O5        1.0  0.7691799999999998  0.82195  0.50002  1.0000
  O   O6        1.0  0.23082  0.82195  0.4999799999999999  1.0000
  O   O7        1.0  0.26918  0.3219500000000001  0.50002  1.0000
  O   O8        1.0  0.73082  0.3219500000000001  0.4999799999999999  1.0000
  C   C1        1.0  0.8107299999999998  0.8089700000000002  0.50353  1.0000
  C   C2        1.0  0.19297999999999996  0.8090400000000002  0.5035999999999999  1.0000
  C   C3        1.0  0.30925  0.30911  0.50086  1.0000
  C   C4        1.0  0.68909  0.3091700000000001  0.4956  1.0000
  O   O9        1.0  0.72646  0.7236100000000002  0.4001399999999999  1.0000
  O   O10       1.0  0.27354  0.7236100000000002  0.59986  1.0000
  O   O11       1.0  0.22645999999999994  0.22361000000000006  0.4001399999999999  1.0000
  O   O12       1.0  0.77354  0.22361000000000006  0.59986  1.0000
  O   O13       1.0  0.67368  0.77638  0.40016  1.0000
  O   O14       1.0  0.32631999999999994  0.77638  0.5998399999999999  1.0000
  O   O15       1.0  0.17368  0.2763800000000001  0.40016  1.0000
  O   O16       1.0  0.82632  0.2763800000000001  0.5998399999999999  1.0000
  C   C5        1.0  0.68439  0.7504100000000002  0.36782999999999993  1.0000
  C   C6        1.0  0.3159499999999999  0.7499700000000001  0.6320799999999998  1.0000
  C   C7        1.0  0.18411  0.25015  0.36784  1.0000
  C   C8        1.0  0.81597  0.25004  0.63207  1.0000
  Cu  Cu1       1.0  0.7812499999999999  0.7187500000000002  0.4999999999999999  1.0000
  Cu  Cu2       1.0  0.21874999999999994  0.7187500000000002  0.4999999999999999  1.0000
  Cu  Cu3       1.0  0.28124999999999994  0.21875000000000006  0.4999999999999999  1.0000
  Cu  Cu4       1.0  0.7187499999999999  0.21875000000000006  0.4999999999999999  1.0000
  Cu  Cu5       1.0  0.71874  0.7812300000000002  0.50001  1.0000
  Cu  Cu6       1.0  0.2812599999999999  0.7812300000000002  0.49999  1.0000
  Cu  Cu7       1.0  0.21874  0.28123  0.50001  1.0000
  Cu  Cu8       1.0  0.78126  0.28123  0.49999  1.0000
  O   O17       1.0  0.7308  0.67803  0.49999  1.0000
  O   O18       1.0  0.2692  0.67803  0.50001  1.0000
  O   O19       1.0  0.2308  0.17803000000000005  0.49999  1.0000
  O   O20       1.0  0.7692  0.17803000000000005  0.50001  1.0000
  O   O21       1.0  0.6780199999999997  0.7308000000000002  0.4999999999999999  1.0000
  O   O22       1.0  0.32197999999999993  0.7308000000000002  0.4999999999999999  1.0000
  O   O23       1.0  0.17801999999999996  0.23080000000000006  0.4999999999999999  1.0000
  O   O24       1.0  0.82198  0.23080000000000006  0.4999999999999999  1.0000
  O   O25       1.0  0.82631  0.7236100000000002  0.59986  1.0000
  O   O26       1.0  0.17368999999999996  0.7236100000000002  0.4001399999999999  1.0000
  O   O27       1.0  0.32631  0.22361000000000006  0.59986  1.0000
  O   O28       1.0  0.67369  0.22361000000000006  0.4001399999999999  1.0000
  O   O29       1.0  0.77353  0.7763700000000002  0.59987  1.0000
  O   O30       1.0  0.22647  0.7763700000000002  0.40013  1.0000
  O   O31       1.0  0.27353  0.27637  0.59987  1.0000
  O   O32       1.0  0.72647  0.27637  0.40013  1.0000
  C   C9        1.0  0.69161  0.69076  0.50061  1.0000
  C   C10       1.0  0.30759999999999993  0.6906400000000003  0.49766999999999995  1.0000
  C   C11       1.0  0.19076999999999994  0.19071000000000005  0.49872  1.0000
  C   C12       1.0  0.8077  0.19061  0.49798  1.0000
  C   C13       1.0  0.81613  0.7500900000000003  0.63219  1.0000
  C   C14       1.0  0.18364999999999995  0.7503600000000002  0.3678799999999999  1.0000
  C   C15       1.0  0.31635  0.25033  0.63218  1.0000
  C   C16       1.0  0.6835099999999997  0.2505  0.36784  1.0000
  C   C17       1.0  0.6017499999999998  0.7793400000000003  0.25337999999999994  1.0000
  C   C18       1.0  0.40516999999999975  0.7707700000000002  0.7461999999999998  1.0000
  C   C19       1.0  0.10054000000000003  0.2783200000000001  0.25373  1.0000
  C   C20       1.0  0.89721  0.28009  0.74612  1.0000
  C   C21       1.0  0.5657  0.77943  0.18126  1.0000
  C   C22       1.0  0.44082  0.7719400000000002  0.8182899999999999  1.0000
  C   C23       1.0  0.06539  0.27961  0.18172  1.0000
  C   C24       1.0  0.93209  0.2815100000000001  0.8181  1.0000
  C   C25       1.0  0.57513  0.7532  0.14477  1.0000
  C   C26       1.0  0.42663  0.7526700000000002  0.85506  1.0000
  C   C27       1.0  0.07317999999999995  0.2521500000000001  0.14478999999999997  1.0000
  C   C28       1.0  0.9268999999999996  0.2519400000000001  0.8550499999999999  1.0000
  C   C29       1.0  0.62108  0.7268300000000002  0.18008  1.0000
  C   C30       1.0  0.37688999999999984  0.73144  0.8200999999999999  1.0000
  C   C31       1.0  0.11672999999999999  0.22339000000000006  0.17964999999999998  1.0000
  C   C32       1.0  0.88628  0.22085000000000002  0.8201999999999998  1.0000
  C   C33       1.0  0.65681  0.7256800000000002  0.25261  1.0000
  C   C34       1.0  0.34156  0.72874  0.74765  1.0000
  C   C35       1.0  0.15358  0.22294000000000005  0.25224  1.0000
  C   C36       1.0  0.84957  0.22024  0.74761  1.0000
  C   C37       1.0  0.64732  0.75174  0.29055  1.0000
  C   C38       1.0  0.3545399999999999  0.7496500000000003  0.7093499999999998  1.0000
  C   C39       1.0  0.14577  0.25037  0.29055  1.0000
  C   C40       1.0  0.85457  0.2500100000000001  0.70932  1.0000
  N   N1        1.0  0.51505  0.71655  0.03433  1.0000
  N   N2        1.0  0.48013999999999996  0.7164400000000002  0.9660799999999999  1.0000
  N   N3        1.0  0.9809699999999998  0.2518200000000001  0.03471  1.0000
  N   N4        1.0  0.9464599999999997  0.2519300000000001  0.96642  1.0000
  C   C41       1.0  0.46527  0.75307  0.93054  1.0000
  C   C42       1.0  0.53646  0.75329  0.06929  1.0000
  C   C43       1.0  0.9649  0.2533  0.9305299999999999  1.0000
  C   C44       1.0  0.03503  0.2533900000000001  0.06931  1.0000
  N   N5        1.0  0.4867  0.7898400000000002  0.96546  1.0000
  N   N6        1.0  0.52178  0.78994  0.03379  1.0000
  N   N7        1.0  0.018939999999999936  0.2552000000000001  0.9651299999999999  1.0000
  N   N8        1.0  0.05344  0.2554000000000001  0.03341  1.0000
  C   C45       1.0  0.8807599999999998  0.8223400000000002  0.48664  1.0000
  C   C46       1.0  0.10599999999999998  0.8262600000000002  0.48376  1.0000
  C   C47       1.0  0.38761  0.32324000000000014  0.49978999999999996  1.0000
  C   C48       1.0  0.6143499999999997  0.32466  0.50237  1.0000
  H   H1        1.0  0.85219  0.8177000000000002  0.43119999999999997  1.0000
  H   H2        1.0  0.1173499999999999  0.8106300000000002  0.5299999999999999  1.0000
  H   H3        1.0  0.36491  0.3140400000000001  0.44600999999999996  1.0000
  H   H4        1.0  0.6393999999999997  0.3173900000000001  0.55682  1.0000
  C   C49       1.0  0.92386  0.8543500000000003  0.4987699999999999  1.0000
  C   C50       1.0  0.06609999999999999  0.8628500000000002  0.46942  1.0000
  C   C51       1.0  0.43018  0.35698000000000013  0.5139  1.0000
  C   C52       1.0  0.5722799999999998  0.35848  0.48885  1.0000
  C   C53       1.0  0.80041  0.8729300000000002  0.4361999999999999  1.0000
  C   C54       1.0  0.1960199999999999  0.8590000000000002  0.5871399999999999  1.0000
  C   C55       1.0  0.30066  0.3686300000000001  0.42674999999999996  1.0000
  C   C56       1.0  0.70013  0.3713300000000001  0.56755  1.0000
  C   C57       1.0  0.8828  0.86603  0.57663  1.0000
  C   C58       1.0  0.14982000000000004  0.8790600000000002  0.45321  1.0000
  C   C59       1.0  0.3700299999999999  0.3716700000000001  0.56764  1.0000
  C   C60       1.0  0.62356  0.37096  0.4248799999999999  1.0000
  C   C61       1.0  0.8432  0.8423500000000003  0.50243  1.0000
  C   C62       1.0  0.16242999999999982  0.8433000000000003  0.5069799999999999  1.0000
  C   C63       1.0  0.34093  0.3430100000000001  0.4995099999999999  1.0000
  C   C64       1.0  0.6574  0.3437800000000001  0.49614  1.0000
  C   C65       1.0  0.9024099999999998  0.9018700000000002  0.49639999999999995  1.0000
  C   C66       1.0  0.10152  0.9063400000000003  0.5035999999999999  1.0000
  C   C67       1.0  0.40188  0.4030900000000001  0.4977  1.0000
  C   C68       1.0  0.59932  0.40475  0.50212  1.0000
  C   C69       1.0  0.83651  0.9042000000000002  0.42657999999999996  1.0000
  C   C70       1.0  0.15881999999999993  0.8973600000000003  0.58411  1.0000
  C   C71       1.0  0.33893  0.4001200000000001  0.4218  1.0000
  C   C72       1.0  0.6637  0.40433000000000013  0.57576  1.0000
  C   C73       1.0  0.90854  0.9042800000000002  0.5650499999999998  1.0000
  C   C74       1.0  0.11668  0.9149800000000002  0.45437  1.0000
  C   C75       1.0  0.39977  0.4079500000000001  0.56014  1.0000
  C   C76       1.0  0.59925  0.40999  0.43807999999999997  1.0000
  H   H5        1.0  0.9513399999999996  0.9039400000000002  0.60816  1.0000
  H   H6        1.0  0.07693999999999994  0.9159000000000003  0.40520999999999996  1.0000
  H   H7        1.0  0.44092999999999993  0.4069700000000001  0.6063399999999999  1.0000
  H   H8        1.0  0.55773  0.41377  0.39183999999999997  1.0000
  C   C77       1.0  0.84505  0.7750500000000002  0.74825  1.0000
  C   C78       1.0  0.15107999999999996  0.7796700000000002  0.25225999999999993  1.0000
  C   C79       1.0  0.34607  0.2768100000000001  0.74787  1.0000
  C   C80       1.0  0.6509399999999999  0.27889000000000014  0.25141  1.0000
  C   C81       1.0  0.8818299999999998  0.7741400000000003  0.82098  1.0000
  C   C82       1.0  0.11593999999999999  0.7777700000000002  0.17957999999999996  1.0000
  C   C83       1.0  0.38143999999999983  0.27485  0.8205399999999999  1.0000
  C   C84       1.0  0.61513  0.2767300000000001  0.17867  1.0000
  C   C85       1.0  0.92739  0.74738  0.85531  1.0000
  C   C86       1.0  0.07457999999999997  0.7472700000000002  0.14486999999999994  1.0000
  C   C87       1.0  0.42521999999999993  0.24626000000000006  0.8551199999999999  1.0000
  C   C88       1.0  0.57281  0.24703000000000006  0.14466  1.0000
  C   C89       1.0  0.93702  0.72322  0.8178299999999997  1.0000
  C   C90       1.0  0.06713999999999999  0.72042  0.18186  1.0000
  C   C91       1.0  0.43432  0.22112  0.81794  1.0000
  C   C92       1.0  0.56512  0.22116  0.18228999999999998  1.0000
  H   H9        1.0  0.9725099999999999  0.7030900000000002  0.8446  1.0000
  H   H10       1.0  0.03409999999999998  0.6979900000000002  0.15464  1.0000
  H   H11       1.0  0.46874  0.19986000000000007  0.84494  1.0000
  H   H12       1.0  0.53141  0.19934000000000004  0.15558  1.0000
  C   C93       1.0  0.90212  0.7242900000000002  0.74634  1.0000
  C   C94       1.0  0.10048999999999995  0.7221800000000003  0.25324  1.0000
  C   C95       1.0  0.40068  0.22304000000000004  0.74657  1.0000
  C   C96       1.0  0.59924  0.22300000000000006  0.2537  1.0000
  C   C97       1.0  0.8546899999999998  0.7499400000000003  0.7095  1.0000
  C   C98       1.0  0.1447  0.7509200000000003  0.29057  1.0000
  C   C99       1.0  0.35487  0.25036000000000014  0.70949  1.0000
  C   C100      1.0  0.64435  0.25097000000000014  0.29046  1.0000
  N   N9        1.0  0.019899999999999925  0.7456600000000002  0.9647799999999997  1.0000
  N   N10       1.0  0.98284  0.74081  0.03532  1.0000
  N   N11       1.0  0.5175199999999999  0.24238000000000007  0.9645199999999999  1.0000
  N   N12       1.0  0.48054999999999987  0.24246000000000006  0.03536999999999999  1.0000
  N   N13       1.0  0.05475  0.74561  0.03313  1.0000
  N   N14       1.0  0.94801  0.7409000000000002  0.96701  1.0000
  N   N15       1.0  0.55247  0.24257000000000006  0.03285  1.0000
  N   N16       1.0  0.4456  0.24233000000000005  0.96704  1.0000
  C   C101      1.0  0.03674  0.7439400000000003  0.06954  1.0000
  C   C102      1.0  0.9659  0.7441200000000002  0.93061  1.0000
  C   C103      1.0  0.53456  0.24336000000000005  0.0694  1.0000
  C   C104      1.0  0.46349  0.24305000000000004  0.93047  1.0000
  C   C105      1.0  0.6606399999999998  0.61369  0.46662999999999993  1.0000
  C   C106      1.0  0.35004999999999986  0.6181500000000002  0.5483099999999997  1.0000
  C   C107      1.0  0.14697999999999997  0.11742  0.44983999999999996  1.0000
  C   C108      1.0  0.8493999999999999  0.11747000000000003  0.5485399999999999  1.0000
  C   C109      1.0  0.61604  0.5818  0.45785999999999993  1.0000
  C   C110      1.0  0.3931799999999999  0.58564  0.5555899999999999  1.0000
  C   C111      1.0  0.09904000000000003  0.08959000000000003  0.43862  1.0000
  C   C112      1.0  0.89281  0.08481000000000002  0.55671  1.0000
  C   C113      1.0  0.67923  0.65106  0.57831  1.0000
  C   C114      1.0  0.30635999999999997  0.63976  0.41756999999999994  1.0000
  C   C115      1.0  0.19023000000000004  0.1433  0.57879  1.0000
  C   C116      1.0  0.80691  0.13991  0.41839999999999994  1.0000
  C   C117      1.0  0.59826  0.6729300000000003  0.44947  1.0000
  C   C118      1.0  0.39623  0.67472  0.52378  1.0000
  C   C119      1.0  0.10271999999999998  0.17811000000000005  0.47119999999999995  1.0000
  C   C120      1.0  0.8962599999999996  0.17463000000000006  0.5244699999999998  1.0000
  C   C121      1.0  0.6585099999999998  0.65675  0.49921999999999994  1.0000
  C   C122      1.0  0.33943999999999996  0.65573  0.4973199999999999  1.0000
  C   C123      1.0  0.15841999999999998  0.15669000000000005  0.4986499999999999  1.0000
  C   C124      1.0  0.8394999999999998  0.15560000000000004  0.49796999999999997  1.0000
  H   H13       1.0  0.6034299999999999  0.7014100000000002  0.4765999999999999  1.0000
  H   H14       1.0  0.3827599999999999  0.6953100000000002  0.48074  1.0000
  H   H15       1.0  0.11799999999999994  0.20318000000000006  0.50959  1.0000
  H   H16       1.0  0.88411  0.19411  0.48079999999999995  1.0000
  C   C125      1.0  0.59144  0.60067  0.49558  1.0000
  C   C126      1.0  0.40469  0.5973400000000002  0.50106  1.0000
  C   C127      1.0  0.09287999999999998  0.10115000000000003  0.49953999999999993  1.0000
  C   C128      1.0  0.9046399999999999  0.09677  0.5026099999999999  1.0000
  C   C129      1.0  0.6418399999999997  0.6141800000000002  0.57603  1.0000
  C   C130      1.0  0.34667  0.60546  0.41952  1.0000
  C   C131      1.0  0.15502  0.10543000000000002  0.5788  1.0000
  C   C132      1.0  0.8475299999999997  0.10576000000000003  0.4211499999999999  1.0000
  C   C133      1.0  0.55657  0.6448500000000003  0.4483799999999999  1.0000
  C   C134      1.0  0.43687  0.6418000000000003  0.53007  1.0000
  C   C135      1.0  0.06503  0.14947000000000005  0.47708  1.0000
  C   C136      1.0  0.93744  0.14117  0.53365  1.0000
  O   O33       1.0  0.07450000000000001  0.9544300000000002  0.55786  1.0000
  O   O34       1.0  0.9254999999999999  0.9544300000000002  0.44213999999999987  1.0000
  O   O35       1.0  0.5745  0.4544300000000001  0.55786  1.0000
  O   O36       1.0  0.4255  0.4544300000000001  0.44213999999999987  1.0000
  O   O37       1.0  0.016749999999999973  0.9544000000000002  0.44226999999999994  1.0000
  O   O38       1.0  0.9832499999999997  0.9544000000000002  0.55773  1.0000
  O   O39       1.0  0.51675  0.45440000000000014  0.44226999999999994  1.0000
  O   O40       1.0  0.48325  0.45440000000000014  0.55773  1.0000
  C   C137      1.0  0.06442  0.9428800000000003  0.50043  1.0000
  C   C138      1.0  0.9394300000000001  0.9383900000000002  0.49936  1.0000
  C   C139      1.0  0.5622199999999998  0.4404  0.5003099999999999  1.0000
  C   C140      1.0  0.4384999999999999  0.4395600000000001  0.49975  1.0000
  Cu  Cu9       1.0  0.53419  0.50001  0.5684499999999999  1.0000
  Cu  Cu10      1.0  0.46580999999999995  0.50001  0.43155  1.0000
  Cu  Cu11      1.0  0.0341899999999999  9.999999999999965e-06  0.5684499999999999  1.0000
  Cu  Cu12      1.0  0.96581  9.999999999999994e-06  0.43155  1.0000
  O   O41       1.0  0.48324  0.54559  0.55774  1.0000
  O   O42       1.0  0.51676  0.54559  0.44226  1.0000
  O   O43       1.0  0.9832400000000001  0.04559  0.55774  1.0000
  O   O44       1.0  0.016760000000000014  0.04559  0.44226  1.0000
  O   O45       1.0  0.42548  0.54556  0.44214999999999993  1.0000
  O   O46       1.0  0.57452  0.54556  0.55785  1.0000
  O   O47       1.0  0.9254799999999997  0.04556000000000001  0.44214999999999993  1.0000
  O   O48       1.0  0.07452  0.04556000000000001  0.55785  1.0000
  C   C141      1.0  0.44029999999999997  0.56164  0.5002499999999999  1.0000
  C   C142      1.0  0.55732  0.5637700000000002  0.49882999999999994  1.0000
  C   C143      1.0  0.93933  0.060580000000000016  0.50061  1.0000
  C   C144      1.0  0.05749999999999994  0.06423  0.5000299999999999  1.0000
  N   N17       1.0  0.59085  0.8075600000000002  0.2879  1.0000
  O   O49       1.0  0.6173499999999997  0.8428400000000003  0.31267  1.0000
  O   O50       1.0  0.54792  0.8021800000000002  0.28243  1.0000
  N   N18       1.0  0.4233899999999999  0.78829  0.7115899999999997  1.0000
  O   O51       1.0  0.4137  0.8277100000000002  0.69334  1.0000
  O   O52       1.0  0.4603099999999999  0.7685100000000002  0.7140999999999997  1.0000
  N   N19       1.0  0.08998  0.30662  0.28852  1.0000
  O   O53       1.0  0.09607000000000003  0.34697  0.28677  1.0000
  O   O54       1.0  0.06434  0.29304000000000013  0.30961  1.0000
  N   N20       1.0  0.90526  0.3104  0.71125  1.0000
  O   O55       1.0  0.89389  0.3498700000000001  0.7107299999999999  1.0000
  O   O56       1.0  0.9330499999999997  0.29997  0.6916399999999998  1.0000
  N   N21       1.0  0.82967  0.8938900000000002  0.36268  1.0000
  O   O57       1.0  0.81935  0.8563400000000002  0.33605  1.0000
  O   O58       1.0  0.8319899999999999  0.9236200000000002  0.3288099999999999  1.0000
  N   N22       1.0  0.14665000000000006  0.8855200000000002  0.63124  1.0000
  O   O59       1.0  0.12754  0.8487300000000002  0.62856  1.0000
  O   O60       1.0  0.16434  0.90789  0.68539  1.0000
  N   N23       1.0  0.34038999999999997  0.38684  0.3653899999999999  1.0000
  O   O61       1.0  0.33711  0.3477900000000001  0.34696999999999995  1.0000
  O   O62       1.0  0.34215  0.4150600000000001  0.32908999999999994  1.0000
  N   N24       1.0  0.66548  0.39073  0.63506  1.0000
  O   O63       1.0  0.66781  0.3515600000000001  0.65207  1.0000
  O   O64       1.0  0.66749  0.4181300000000001  0.67537  1.0000
  N   N25       1.0  0.8581999999999997  0.88067  0.60805  1.0000
  O   O65       1.0  0.88419  0.9084100000000003  0.65738  1.0000
  O   O66       1.0  0.8289299999999997  0.8549900000000002  0.61248  1.0000
  N   N26       1.0  0.20024  0.8967000000000003  0.46888  1.0000
  O   O67       1.0  0.23567  0.9177300000000003  0.52446  1.0000
  O   O68       1.0  0.20750999999999997  0.8955500000000002  0.42336999999999997  1.0000
  N   N27       1.0  0.33618  0.3904800000000001  0.58417  1.0000
  O   O69       1.0  0.36064999999999997  0.4069000000000001  0.6449399999999998  1.0000
  O   O70       1.0  0.28391999999999995  0.3932900000000001  0.5419699999999998  1.0000
  N   N28       1.0  0.6532899999999999  0.38538  0.4000899999999999  1.0000
  O   O71       1.0  0.63207  0.41542000000000007  0.35459  1.0000
  O   O72       1.0  0.6806599999999997  0.3584900000000001  0.3938299999999999  1.0000
  C   C145      1.0  0.92579  0.8357700000000002  0.63358  1.0000
  O   O73       1.0  0.91087  0.80337  0.64332  1.0000
  O   O74       1.0  0.97962  0.84809  0.68353  1.0000
  H   H17       1.0  0.0024799999999999198  0.8258300000000002  0.7201699999999998  1.0000
  C   C146      1.0  0.11654  0.8608900000000003  0.37894  1.0000
  O   O75       1.0  0.13579  0.8325200000000003  0.36738  1.0000
  O   O76       1.0  0.06654999999999997  0.8777300000000002  0.32311  1.0000
  H   H18       1.0  0.05063999999999999  0.8629600000000002  0.2781199999999999  1.0000
  C   C147      1.0  0.40953999999999985  0.3443  0.6322099999999999  1.0000
  O   O77       1.0  0.3911899999999999  0.3156800000000001  0.6444599999999999  1.0000
  O   O78       1.0  0.46438  0.3541700000000001  0.68184  1.0000
  H   H19       1.0  0.48435  0.3340200000000001  0.72227  1.0000
  C   C148      1.0  0.57957  0.3443200000000001  0.36229  1.0000
  O   O79       1.0  0.59287  0.3117900000000001  0.35015  1.0000
  O   O80       1.0  0.52785  0.3604400000000001  0.3110399999999999  1.0000
  H   H20       1.0  0.50431  0.3404200000000001  0.27081  1.0000
  N   N29       1.0  0.89332  0.9447400000000002  0.57497  1.0000
  O   O81       1.0  0.84282  0.9551600000000002  0.53856  1.0000
  O   O82       1.0  0.9292899999999995  0.9657600000000002  0.63114  1.0000
  N   N30       1.0  0.13520999999999997  0.9549700000000002  0.44857  1.0000
  O   O83       1.0  0.17309  0.9765200000000003  0.50165  1.0000
  O   O84       1.0  0.12764999999999999  0.9603800000000002  0.39158999999999994  1.0000
  N   N31       1.0  0.38432  0.4485500000000001  0.56846  1.0000
  O   O85       1.0  0.33397  0.45989000000000013  0.52695  1.0000
  O   O86       1.0  0.41661  0.4662400000000001  0.62899  1.0000
  N   N32       1.0  0.6224799999999998  0.44918  0.43904  1.0000
  O   O87       1.0  0.67445  0.4525700000000001  0.47863999999999995  1.0000
  O   O88       1.0  0.5936699999999997  0.4725800000000001  0.3841799999999999  1.0000
  C   C149      1.0  0.75897  0.8955100000000003  0.4415  1.0000
  O   O89       1.0  0.7119599999999998  0.9006700000000002  0.38953  1.0000
  O   O90       1.0  0.7703899999999999  0.9063700000000002  0.5029799999999998  1.0000
  H   H21       1.0  0.73855  0.9193700000000002  0.49692  1.0000
  C   C150      1.0  0.257  0.8698600000000002  0.62911  1.0000
  O   O91       1.0  0.2821199999999999  0.8837800000000002  0.6875999999999999  1.0000
  O   O92       1.0  0.28715  0.85844  0.60891  1.0000
  H   H22       1.0  0.32622999999999974  0.8678200000000003  0.6426999999999998  1.0000
  C   C151      1.0  0.25145  0.38922  0.41699  1.0000
  O   O93       1.0  0.2114899999999999  0.36758  0.3938299999999999  1.0000
  O   O94       1.0  0.24793  0.4317900000000001  0.42782  1.0000
  H   H23       1.0  0.21228999999999992  0.43969000000000014  0.41653999999999997  1.0000
  C   C152      1.0  0.7473299999999998  0.3913  0.57202  1.0000
  O   O95       1.0  0.79136  0.3975400000000001  0.6285  1.0000
  O   O96       1.0  0.7441299999999997  0.39989000000000013  0.51527  1.0000
  H   H24       1.0  0.77881  0.41182000000000013  0.52785  1.0000
  C   C153      1.0  0.8122999999999999  0.9482300000000002  0.40899999999999986  1.0000
  O   O97       1.0  0.8401099999999999  0.9774600000000002  0.41773999999999994  1.0000
  O   O98       1.0  0.75614  0.9538300000000002  0.3635599999999999  1.0000
  H   H25       1.0  0.74384  0.9841200000000002  0.35079999999999995  1.0000
  C   C154      1.0  0.19026  0.9399  0.61259  1.0000
  O   O99       1.0  0.17594  0.9668700000000002  0.63278  1.0000
  O   O100      1.0  0.23586  0.9485800000000002  0.61845  1.0000
  H   H26       1.0  0.25354  0.9766300000000002  0.63972  1.0000
  C   C155      1.0  0.31044  0.4420900000000001  0.39474  1.0000
  O   O101      1.0  0.3354  0.4743700000000001  0.41959  1.0000
  O   O102      1.0  0.25695  0.44348  0.33310999999999996  1.0000
  H   H27       1.0  0.23966  0.47227000000000013  0.3229  1.0000
  C   C156      1.0  0.6884899999999998  0.4497500000000001  0.5979  1.0000
  O   O103      1.0  0.66864  0.47593000000000013  0.61167  1.0000
  O   O104      1.0  0.7366099999999997  0.4612600000000001  0.6116499999999999  1.0000
  H   H28       1.0  0.7505799999999998  0.4900600000000001  0.63327  1.0000
  C   C157      1.0  0.7981899999999997  0.80398  0.7147  1.0000
  O   O105      1.0  0.75375  0.7901700000000003  0.6909199999999998  1.0000
  O   O106      1.0  0.80552  0.8471200000000002  0.7124  1.0000
  H   H29       1.0  0.7707099999999999  0.8637300000000002  0.6886399999999999  1.0000
  C   C158      1.0  0.19038  0.8148300000000003  0.28569999999999995  1.0000
  O   O107      1.0  0.23672  0.8094300000000002  0.30745  1.0000
  O   O108      1.0  0.17330999999999996  0.8545900000000002  0.28908999999999996  1.0000
  H   H30       1.0  0.20320999999999997  0.87635  0.31128999999999996  1.0000
  C   C159      1.0  0.30276  0.3091  0.71385  1.0000
  O   O109      1.0  0.25962999999999997  0.30153000000000013  0.7008699999999998  1.0000
  O   O110      1.0  0.3114699999999999  0.3479600000000001  0.69636  1.0000
  H   H31       1.0  0.2789199999999998  0.36734  0.6728799999999998  1.0000
  C   C160      1.0  0.6910900000000001  0.31354000000000004  0.28372  1.0000
  O   O111      1.0  0.7385899999999995  0.30622  0.31207  1.0000
  O   O112      1.0  0.67339  0.35502  0.27661  1.0000
  H   H32       1.0  0.70402  0.37614  0.29902  1.0000
  C   C161      1.0  0.87356  0.8024600000000002  0.86098  1.0000
  O   O113      1.0  0.91033  0.8252400000000002  0.9057699999999997  1.0000
  O   O114      1.0  0.8237499999999996  0.8030600000000002  0.8472199999999999  1.0000
  H   H33       1.0  0.8231399999999998  0.8236300000000002  0.87764  1.0000
  C   C162      1.0  0.12082999999999998  0.8092900000000002  0.14  1.0000
  O   O115      1.0  0.08125999999999999  0.82973  0.09430999999999999  1.0000
  O   O116      1.0  0.17074999999999996  0.8157000000000002  0.15542  1.0000
  H   H34       1.0  0.16895  0.83799  0.12521  1.0000
  C   C163      1.0  0.3745899999999999  0.3046900000000001  0.8603099999999999  1.0000
  O   O117      1.0  0.4123499999999999  0.32701  0.9045799999999998  1.0000
  O   O118      1.0  0.3250699999999999  0.3071700000000001  0.8470999999999997  1.0000
  H   H35       1.0  0.32548999999999995  0.32861  0.8773899999999999  1.0000
  C   C164      1.0  0.62084  0.3068500000000001  0.13825  1.0000
  O   O119      1.0  0.58179  0.32740000000000014  0.09188  1.0000
  O   O120      1.0  0.671  0.3118400000000001  0.15379  1.0000
  H   H36       1.0  0.6698  0.33328  0.12301999999999999  1.0000
  N   N33       1.0  0.51854  0.8060200000000002  0.14503  1.0000
  O   O121      1.0  0.4704899999999999  0.78975  0.10173  1.0000
  O   O122      1.0  0.5234499999999997  0.84644  0.15628999999999998  1.0000
  N   N34       1.0  0.49293999999999993  0.7914100000000002  0.8542399999999999  1.0000
  O   O123      1.0  0.5368999999999999  0.76984  0.8982099999999998  1.0000
  O   O124      1.0  0.49660999999999983  0.83043  0.8418599999999998  1.0000
  N   N35       1.0  0.02195  0.3098400000000001  0.14604999999999999  1.0000
  O   O125      1.0  0.98679  0.3109800000000001  0.15621999999999997  1.0000
  O   O126      1.0  0.018000000000000002  0.3368000000000001  0.10415  1.0000
  N   N36       1.0  0.9723999999999999  0.3140300000000001  0.85369  1.0000
  O   O127      1.0  0.007389999999999989  0.3187800000000001  0.84371  1.0000
  O   O128      1.0  0.9736599999999999  0.3394300000000001  0.8953799999999997  1.0000
  N   N37       1.0  0.91672  0.69924  0.71283  1.0000
  O   O129      1.0  0.92277  0.6587100000000002  0.7231  1.0000
  O   O130      1.0  0.9367099999999999  0.7175100000000002  0.68708  1.0000
  N   N38       1.0  0.08651999999999997  0.6955700000000002  0.28585999999999995  1.0000
  O   O131      1.0  0.07903999999999999  0.6555000000000002  0.27169  1.0000
  O   O132      1.0  0.06706  0.7125600000000002  0.31329  1.0000
  N   N39       1.0  0.41548999999999997  0.19777  0.7135099999999999  1.0000
  O   O133      1.0  0.42219999999999996  0.15736  0.7247299999999999  1.0000
  O   O134      1.0  0.43511  0.21596  0.68725  1.0000
  N   N40       1.0  0.58513  0.19731  0.28699  1.0000
  O   O135      1.0  0.57759  0.15709  0.27409  1.0000
  O   O136      1.0  0.5659799999999998  0.21521000000000007  0.31422  1.0000
  C   C165      1.0  0.7206199999999999  0.5969300000000002  0.5104299999999999  1.0000
  O   O137      1.0  0.74338  0.57806  0.56422  1.0000
  O   O138      1.0  0.7488900000000001  0.6009900000000002  0.48499  1.0000
  H   H37       1.0  0.7867099999999996  0.58856  0.51672  1.0000
  C   C166      1.0  0.2955299999999999  0.5973500000000003  0.5230499999999998  1.0000
  O   O139      1.0  0.27216  0.57043  0.4785099999999999  1.0000
  O   O140      1.0  0.27388  0.60762  0.55567  1.0000
  H   H38       1.0  0.23923  0.5919  0.53604  1.0000
  C   C167      1.0  0.1996999999999999  0.09200000000000003  0.48190999999999995  1.0000
  O   O141      1.0  0.21487999999999993  0.06405000000000002  0.52377  1.0000
  O   O142      1.0  0.22953  0.09906  0.45935  1.0000
  H   H39       1.0  0.26248  0.08011000000000003  0.48278  1.0000
  C   C168      1.0  0.79468  0.09659000000000002  0.52226  1.0000
  O   O143      1.0  0.7720299999999999  0.06934000000000003  0.4782899999999999  1.0000
  O   O144      1.0  0.77186  0.10723  0.55332  1.0000
  H   H40       1.0  0.73715  0.09144000000000002  0.5331699999999998  1.0000
  N   N41       1.0  0.6474799999999998  0.6192500000000002  0.39833  1.0000
  O   O145      1.0  0.6467499999999999  0.5856600000000002  0.36763  1.0000
  O   O146      1.0  0.6561199999999997  0.6545100000000003  0.3804599999999999  1.0000
  N   N42       1.0  0.37177  0.6334900000000002  0.6179  1.0000
  O   O147      1.0  0.38189  0.60574  0.66302  1.0000
  O   O148      1.0  0.3641099999999998  0.6718500000000002  0.6283199999999999  1.0000
  N   N43       1.0  0.13118999999999997  0.1302  0.38155999999999995  1.0000
  O   O149      1.0  0.11152000000000001  0.10202000000000003  0.33332  1.0000
  O   O150      1.0  0.15407999999999997  0.16181000000000006  0.3763599999999999  1.0000
  N   N44       1.0  0.87021  0.13228  0.61796  1.0000
  O   O151      1.0  0.8804899999999999  0.10397000000000003  0.6624799999999997  1.0000
  O   O152      1.0  0.85962  0.16978000000000004  0.62748  1.0000
  C   C169      1.0  0.56789  0.5697400000000002  0.38133999999999996  1.0000
  O   O153      1.0  0.54281  0.53727  0.36899  1.0000
  O   O154      1.0  0.55075  0.5942100000000002  0.3247  1.0000
  H   H41       1.0  0.51914  0.58154  0.2791  1.0000
  C   C170      1.0  0.44698  0.5813800000000001  0.63153  1.0000
  O   O155      1.0  0.47064999999999996  0.5473900000000003  0.65214  1.0000
  O   O156      1.0  0.46943  0.61457  0.67891  1.0000
  H   H42       1.0  0.5034  0.6062400000000002  0.7263099999999999  1.0000
  C   C171      1.0  0.04495999999999999  0.09515  0.36363  1.0000
  O   O157      1.0  0.01403999999999996  0.06524000000000003  0.33318999999999993  1.0000
  O   O158      1.0  0.030619999999999994  0.13290000000000005  0.32724  1.0000
  H   H43       1.0  0.99508  0.13117000000000006  0.27858999999999995  1.0000
  C   C172      1.0  0.94699  0.08115000000000003  0.63267  1.0000
  O   O159      1.0  0.97229  0.04790000000000001  0.6526499999999998  1.0000
  O   O160      1.0  0.96802  0.11410000000000002  0.6805  1.0000
  H   H44       1.0  0.00283000000000003  0.10628000000000003  0.72748  1.0000
  N   N45       1.0  0.64309  0.5413900000000003  0.48572  1.0000
  O   O161      1.0  0.66964  0.5271900000000003  0.46615  1.0000
  O   O162      1.0  0.62303  0.51399  0.50188  1.0000
  N   N46       1.0  0.37168000000000007  0.5436  0.54358  1.0000
  O   O163      1.0  0.35848  0.53124  0.5807  1.0000
  O   O164      1.0  0.3894  0.5157000000000003  0.52477  1.0000
  N   N47       1.0  0.11030999999999998  0.04505  0.43602  1.0000
  O   O165      1.0  0.12467000000000003  0.03625000000000001  0.39904  1.0000
  O   O166      1.0  0.08229999999999997  0.016180000000000007  0.43706999999999996  1.0000
  N   N48       1.0  0.8717199999999998  0.04244  0.5455899999999999  1.0000
  O   O167      1.0  0.85923  0.029650000000000006  0.58328  1.0000
  O   O168      1.0  0.8884199999999999  0.014580000000000003  0.52553  1.0000
  C   C173      1.0  0.7409799999999997  0.64096  0.63183  1.0000
  O   O169      1.0  0.7598  0.62563  0.68767  1.0000
  O   O170      1.0  0.7776099999999998  0.65577  0.6235599999999999  1.0000
  H   H45       1.0  0.8165399999999999  0.64865  0.6638599999999999  1.0000
  C   C174      1.0  0.24732999999999997  0.62292  0.3799699999999999  1.0000
  O   O171      1.0  0.22429999999999997  0.60225  0.32697999999999994  1.0000
  O   O172      1.0  0.21516999999999997  0.6374300000000003  0.39579999999999993  1.0000
  H   H46       1.0  0.17765999999999993  0.6245900000000002  0.36588999999999994  1.0000
  C   C175      1.0  0.25176  0.13095000000000007  0.62315  1.0000
  O   O173      1.0  0.27888999999999997  0.12736000000000006  0.6855199999999999  1.0000
  O   O174      1.0  0.27967  0.12891000000000005  0.59755  1.0000
  H   H47       1.0  0.31943  0.12176000000000002  0.63387  1.0000
  C   C176      1.0  0.74762  0.12329000000000002  0.3800199999999999  1.0000
  O   O175      1.0  0.7246400000000001  0.10309000000000003  0.32659  1.0000
  O   O176      1.0  0.7154  0.13727000000000006  0.39603  1.0000
  H   H48       1.0  0.6776599999999999  0.12484000000000003  0.3652599999999999  1.0000
  C   C177      1.0  0.67522  0.57482  0.6215  1.0000
  O   O177      1.0  0.70471  0.5559600000000002  0.6151399999999999  1.0000
  O   O178      1.0  0.67434  0.56084  0.6739199999999999  1.0000
  H   H49       1.0  0.7000199999999998  0.5365300000000002  0.70167  1.0000
  C   C178      1.0  0.3159499999999999  0.56319  0.3875399999999999  1.0000
  O   O179      1.0  0.29814  0.5447600000000002  0.41151999999999994  1.0000
  O   O180      1.0  0.3009499999999999  0.54807  0.32506  1.0000
  H   H50       1.0  0.27625999999999995  0.5228  0.30595999999999995  1.0000
  C   C179      1.0  0.18444999999999998  0.06286000000000003  0.6005899999999998  1.0000
  O   O181      1.0  0.16185999999999984  0.031870000000000016  0.5655399999999998  1.0000
  O   O182      1.0  0.23461999999999988  0.05760000000000001  0.6662699999999999  1.0000
  H   H51       1.0  0.24297999999999995  0.027760000000000007  0.68386  1.0000
  C   C180      1.0  0.8163999999999998  0.06398  0.3883299999999999  1.0000
  O   O183      1.0  0.79956  0.04540000000000002  0.41324999999999995  1.0000
  O   O184      1.0  0.79969  0.04949000000000001  0.32469  1.0000
  H   H52       1.0  0.77546  0.02384  0.30644999999999994  1.0000
  N   N49       1.0  0.57892  0.6929300000000003  0.38369  1.0000
  O   O185      1.0  0.57269  0.7337100000000002  0.37719  1.0000
  O   O186      1.0  0.56152  0.6717500000000002  0.32897  1.0000
  N   N50       1.0  0.4226  0.7047400000000003  0.58204  1.0000
  O   O187      1.0  0.42944999999999994  0.7436500000000003  0.57262  1.0000
  O   O188      1.0  0.4470999999999999  0.69248  0.6446699999999999  1.0000
  N   N51       1.0  0.0741  0.20551000000000005  0.40913  1.0000
  O   O189      1.0  0.053329999999999954  0.24085  0.40941999999999995  1.0000
  O   O190      1.0  0.08136  0.20233000000000007  0.36413  1.0000
  N   N52       1.0  0.92117  0.20584000000000005  0.58098  1.0000
  O   O191      1.0  0.93073  0.24378  0.57142  1.0000
  O   O192      1.0  0.93942  0.19572000000000006  0.64235  1.0000
  C   C181      1.0  0.50428  0.63554  0.3723699999999999  1.0000
  O   O193      1.0  0.4833199999999999  0.66339  0.32882  1.0000
  O   O194      1.0  0.47512999999999994  0.5982100000000002  0.3534199999999999  1.0000
  H   H53       1.0  0.44113  0.59765  0.30346  1.0000
  C   C182      1.0  0.49473999999999996  0.6436100000000002  0.6008099999999998  1.0000
  O   O195      1.0  0.51719  0.6778  0.62412  1.0000
  O   O196      1.0  0.52582  0.6076100000000002  0.63528  1.0000
  H   H54       1.0  0.56194  0.61394  0.6816899999999999  1.0000
  C   C183      1.0  0.005009999999999991  0.15310000000000007  0.4089  1.0000
  O   O197      1.0  0.98314  0.18769000000000005  0.38881  1.0000
  O   O198      1.0  0.97291  0.11819  0.3709  1.0000
  H   H55       1.0  0.93604  0.12613000000000005  0.32662  1.0000
  C   C184      1.0  0.9942299999999996  0.14192000000000005  0.60624  1.0000
  O   O199      1.0  0.013809999999999985  0.17512  0.63753  1.0000
  O   O200      1.0  0.028410000000000032  0.10687000000000003  0.6329  1.0000
  H   H56       1.0  0.06418999999999998  0.11204000000000003  0.68033  1.0000
  C   C185      1.0  0.63308  0.7015700000000002  0.14104  1.0000
  O   O201      1.0  0.63363  0.71864  0.09794  1.0000
  O   O202      1.0  0.64353  0.6583800000000002  0.15350999999999995  1.0000
  H   H57       1.0  0.6511  0.6448000000000003  0.12383  1.0000
  C   C186      1.0  0.36145  0.71236  0.85962  1.0000
  O   O203      1.0  0.36294000000000004  0.7336400000000002  0.90142  1.0000
  O   O204      1.0  0.34553999999999985  0.6701400000000002  0.8491799999999999  1.0000
  H   H58       1.0  0.33608999999999994  0.6609500000000003  0.8789999999999999  1.0000
  C   C187      1.0  0.12256  0.19254000000000004  0.13985  1.0000
  O   O205      1.0  0.16562  0.18918  0.15089999999999995  1.0000
  O   O206      1.0  0.07848999999999998  0.16759000000000004  0.0895  1.0000
  H   H59       1.0  0.0872  0.14812000000000006  0.06564  1.0000
  C   C188      1.0  0.88364  0.18774000000000005  0.85996  1.0000
  O   O207      1.0  0.84105  0.18073000000000006  0.84872  1.0000
  O   O208      1.0  0.9301499999999998  0.16482000000000005  0.91047  1.0000
  H   H60       1.0  0.9234599999999998  0.14348  0.9342699999999998  1.0000
  C   C189      1.0  0.5353899999999998  0.67939  0.47141  1.0000
  O   O209      1.0  0.49805  0.7023300000000002  0.42716999999999994  1.0000
  O   O210      1.0  0.56544  0.69403  0.53863  1.0000
  H   H61       1.0  0.54937  0.71982  0.54366  1.0000
  C   C190      1.0  0.4511  0.6563  0.48706999999999995  1.0000
  O   O211      1.0  0.44915999999999995  0.69371  0.47389999999999993  1.0000
  O   O212      1.0  0.46796  0.62661  0.46365  1.0000
  H   H62       1.0  0.4545599999999999  0.6344400000000002  0.4167  1.0000
  C   C191      1.0  0.06345999999999997  0.17424000000000006  0.5292299999999999  1.0000
  O   O213      1.0  0.052139999999999936  0.21196000000000007  0.5197699999999998  1.0000
  O   O214      1.0  0.07340999999999995  0.15615000000000007  0.58608  1.0000
  H   H63       1.0  0.07949  0.17796000000000006  0.61981  1.0000
  C   C192      1.0  0.9561699999999997  0.15455  0.49542999999999987  1.0000
  O   O215      1.0  0.9554099999999998  0.19139000000000006  0.4805299999999999  1.0000
  O   O216      1.0  0.9836599999999995  0.12492000000000003  0.4881899999999999  1.0000
  H   H64       1.0  0.9586599999999996  0.10955000000000002  0.44428999999999996  1.0000
  C   C193      1.0  0.6799999999999998  0.6935100000000002  0.61255  1.0000
  O   O217      1.0  0.7073899999999997  0.6955300000000002  0.67521  1.0000
  O   O218      1.0  0.65389  0.73074  0.57677  1.0000
  H   H65       1.0  0.65773  0.7543200000000002  0.60687  1.0000
  C   C194      1.0  0.28806  0.6770900000000002  0.36617  1.0000
  O   O219      1.0  0.26021  0.66964  0.30435  1.0000
  O   O220      1.0  0.30121  0.7191400000000002  0.38650999999999996  1.0000
  H   H66       1.0  0.28771  0.7388200000000003  0.34689  1.0000
  C   C195      1.0  0.19767999999999994  0.18478000000000006  0.6189699999999999  1.0000
  O   O221      1.0  0.23284  0.21007000000000006  0.63491  1.0000
  O   O222      1.0  0.16588  0.19488  0.63736  1.0000
  H   H67       1.0  0.17598  0.22277000000000005  0.66257  1.0000
  C   C196      1.0  0.7896300000000002  0.17706000000000005  0.36714  1.0000
  O   O223      1.0  0.76338  0.16935000000000006  0.30566  1.0000
  O   O224      1.0  0.80239  0.21913000000000005  0.38737  1.0000
  H   H68       1.0  0.79109  0.23847000000000004  0.34829  1.0000
  C   C197      1.0  0.6198399999999997  0.6286200000000002  0.61267  1.0000
  O   O225      1.0  0.57224  0.6244100000000002  0.58489  1.0000
  O   O226      1.0  0.65499  0.6409100000000002  0.68183  1.0000
  H   H69       1.0  0.6354599999999999  0.6492600000000002  0.6999599999999999  1.0000
  C   C198      1.0  0.35817  0.62007  0.36932  1.0000
  O   O227      1.0  0.36819  0.5944300000000002  0.34225  1.0000
  O   O228      1.0  0.3604799999999999  0.66253  0.356  1.0000
  H   H70       1.0  0.3676  0.6666800000000003  0.32235  1.0000
  C   C199      1.0  0.1594999999999999  0.11017000000000003  0.6443299999999997  1.0000
  O   O229      1.0  0.1274699999999999  0.0939  0.64897  1.0000
  O   O230      1.0  0.20714  0.12598  0.70549  1.0000
  H   H71       1.0  0.20683999999999989  0.12543000000000007  0.7455599999999999  1.0000
  C   C200      1.0  0.86071  0.12104000000000002  0.3730499999999999  1.0000
  O   O231      1.0  0.8666  0.09588  0.34126  1.0000
  O   O232      1.0  0.86738  0.16362000000000004  0.36538  1.0000
  H   H72       1.0  0.87419  0.16858000000000006  0.33162  1.0000
  C   C201      1.0  0.7056599999999997  0.6988500000000002  0.28724  1.0000
  O   O233      1.0  0.70451  0.6623600000000002  0.30178  1.0000
  O   O234      1.0  0.7527600000000001  0.7155100000000002  0.30293  1.0000
  H   H73       1.0  0.78353  0.6943400000000002  0.3268  1.0000
  C   C202      1.0  0.2913399999999999  0.7038600000000003  0.7140999999999997  1.0000
  O   O235      1.0  0.28727  0.66926  0.68965  1.0000
  O   O236      1.0  0.25044999999999995  0.71883  0.7146699999999999  1.0000
  H   H74       1.0  0.21871  0.6987400000000002  0.69145  1.0000
  C   C203      1.0  0.19905  0.19248000000000007  0.28633  1.0000
  O   O237      1.0  0.19107  0.15526000000000006  0.28954  1.0000
  O   O238      1.0  0.25056  0.20641000000000007  0.31327  1.0000
  H   H75       1.0  0.27821999999999997  0.18278  0.33504999999999996  1.0000
  C   C204      1.0  0.8076899999999999  0.18692000000000006  0.7134699999999999  1.0000
  O   O239      1.0  0.81929  0.15131  0.70798  1.0000
  O   O240      1.0  0.75543  0.19626000000000005  0.6891699999999997  1.0000
  H   H76       1.0  0.7304599999999998  0.17101000000000005  0.66712  1.0000
  N   N53       1.0  0.9016999999999997  0.7784500000000002  0.50914  1.0000
  O   O241      1.0  0.88795  0.7501000000000002  0.46301999999999993  1.0000
  O   O242      1.0  0.93029  0.7659900000000002  0.57253  1.0000
  N   N54       1.0  0.07981999999999999  0.7910000000000003  0.43345999999999996  1.0000
  O   O243      1.0  0.0704  0.7558  0.45075  1.0000
  O   O244      1.0  0.06441999999999998  0.79375  0.37184  1.0000
  N   N55       1.0  0.41234999999999994  0.28212  0.5346499999999998  1.0000
  O   O245      1.0  0.40885  0.25042  0.49898  1.0000
  O   O246      1.0  0.43546999999999997  0.27544000000000013  0.59883  1.0000
  N   N56       1.0  0.59053  0.2822500000000001  0.473  1.0000
  O   O247      1.0  0.59835  0.2522600000000001  0.5138  1.0000
  O   O248      1.0  0.56528  0.27243  0.40915  1.0000
  C   C205      1.0  0.98082  0.84212  0.56697  1.0000
  O   O249      1.0  0.99879  0.80671  0.57366  1.0000
  O   O250      1.0  0.015300000000000029  0.87086  0.61975  1.0000
  H   H77       1.0  0.05127000000000004  0.85806  0.65962  1.0000
  C   C206      1.0  0.01421  0.8637400000000002  0.39201  1.0000
  O   O251      1.0  0.98801  0.83132  0.36502  1.0000
  O   O252      1.0  0.99219  0.9007500000000003  0.35316  1.0000
  H   H78       1.0  0.95786  0.8957800000000002  0.30435  1.0000
  C   C207      1.0  0.48574999999999996  0.3513100000000001  0.5868199999999999  1.0000
  O   O253      1.0  0.5076799999999998  0.3167100000000001  0.6047999999999998  1.0000
  O   O254      1.0  0.51474  0.3850900000000001  0.63194  1.0000
  H   H79       1.0  0.54722  0.37585  0.67985  1.0000
  C   C208      1.0  0.5169  0.3522000000000001  0.41631999999999997  1.0000
  O   O255      1.0  0.49515  0.31764  0.39931  1.0000
  O   O256      1.0  0.48764  0.38557  0.37041  1.0000
  H   H80       1.0  0.4543799999999999  0.3761500000000001  0.32317  1.0000
  C   C209      1.0  0.9259899999999998  0.8459  0.44004  1.0000
  O   O257      1.0  0.92703  0.8096200000000002  0.42414999999999997  1.0000
  O   O258      1.0  0.92557  0.8787100000000002  0.40286  1.0000
  H   H81       1.0  0.91554  0.8688800000000002  0.3577699999999999  1.0000
  C   C210      1.0  0.041919999999999985  0.8509900000000002  0.50206  1.0000
  O   O259      1.0  0.03603999999999998  0.8139900000000002  0.5095  1.0000
  O   O260      1.0  0.022479999999999892  0.8822400000000002  0.5193799999999997  1.0000
  H   H82       1.0  0.049510000000000005  0.88988  0.56911  1.0000
  C   C211      1.0  0.44185  0.34610000000000013  0.46594  1.0000
  O   O261      1.0  0.44711999999999996  0.3092600000000001  0.45644999999999997  1.0000
  O   O262      1.0  0.44215999999999983  0.37724000000000013  0.42804999999999993  1.0000
  H   H83       1.0  0.4234599999999999  0.36666  0.37991  1.0000
  C   C212      1.0  0.56198  0.3480700000000001  0.5386  1.0000
  O   O263      1.0  0.55578  0.3113900000000001  0.5472  1.0000
  O   O264      1.0  0.56453  0.3789200000000001  0.57944  1.0000
  H   H84       1.0  0.58251  0.36747  0.62696  1.0000
  N   N57       1.0  0.76272  0.8476600000000002  0.37126  1.0000
  O   O265      1.0  0.7605399999999997  0.8067000000000002  0.37014999999999987  1.0000
  O   O266      1.0  0.72803  0.86695  0.3126799999999999  1.0000
  N   N58       1.0  0.20356  0.8231200000000002  0.6317  1.0000
  O   O267      1.0  0.20277999999999996  0.7840500000000002  0.61551  1.0000
  O   O268      1.0  0.2267899999999999  0.8298500000000002  0.6962999999999999  1.0000
  N   N59       1.0  0.27098  0.3395600000000001  0.36599999999999994  1.0000
  O   O269      1.0  0.2729799999999999  0.2986900000000001  0.3714  1.0000
  O   O270      1.0  0.23607999999999996  0.35532  0.3044499999999999  1.0000
  N   N60       1.0  0.73227  0.3430400000000001  0.62971  1.0000
  O   O271      1.0  0.7315799999999998  0.30211  0.62615  1.0000
  O   O272      1.0  0.76526  0.3595200000000001  0.6910999999999999  1.0000
