data_image0
_chemical_formula_structural       Zn16O52C96H4C40NO2NO2NO2NO2CO2HCO2HCO2HCO2HCO2HCO2HCO2HCO2HCO2HCO2HCO2HCO2HNO2NO2NO2NO2NO2NO2NO2NO2CO2HCO2HCO2HCO2HNO2NO2NO2NO2CO2HCO2HCO2HCO2HNO2NO2NO2NO2CO2HCO2HCO2HCO2HCO2HCO2HCO2HCO2HCO2HCO2HCO2HCO2HNO2NO2NO2NO2CO2HCO2HCO2HCO2HCO2HCO2HCO2HCO2HCO2HCO2HCO2HCO2HNO2NO2NO2NO2NO2NO2NO2NO2CO2HCO2HCO2HCO2HNO2NO2NO2NO2NO2NO2NO2NO2CO2HCO2HCO2HCO2HCO2HCO2HCO2HCO2HNO2NO2NO2NO2NO2NO2NO2NO2CO2HCO2HCO2HCO2HCO2HCO2HCO2HCO2HCO2HCO2HCO2HCO2H
_chemical_formula_sum              "Zn16 O284 C204 H72 N48"
_cell_length_a       35.64099
_cell_length_b       26.58226
_cell_length_c       22.22598
_cell_angle_alpha    90.09544
_cell_angle_beta     143.40806
_cell_angle_gamma    89.95561

_space_group_name_H-M_alt    "P 1"
_space_group_IT_number       1

loop_
  _space_group_symop_operation_xyz
  'x, y, z'

loop_
  _atom_site_type_symbol
  _atom_site_label
  _atom_site_symmetry_multiplicity
  _atom_site_fract_x
  _atom_site_fract_y
  _atom_site_fract_z
  _atom_site_occupancy
  Zn  Zn1       1.0  0.82455  0.7062200000000002  0.08753  1.0000
  Zn  Zn2       1.0  0.82455  0.29378  0.08753  1.0000
  Zn  Zn3       1.0  0.32455  0.20622  0.08753  1.0000
  Zn  Zn4       1.0  0.32455  0.79378  0.08753  1.0000
  Zn  Zn5       1.0  0.76298  0.7937600000000002  0.08756000000000003  1.0000
  Zn  Zn6       1.0  0.76298  0.20624  0.08756000000000003  1.0000
  Zn  Zn7       1.0  0.26298  0.29376  0.08756000000000003  1.0000
  Zn  Zn8       1.0  0.26298  0.7062400000000002  0.08756000000000003  1.0000
  Zn  Zn9       1.0  0.73701  0.79377  0.91246  1.0000
  Zn  Zn10      1.0  0.73701  0.20623  0.91246  1.0000
  Zn  Zn11      1.0  0.23701  0.2937700000000001  0.91246  1.0000
  Zn  Zn12      1.0  0.23701  0.7062300000000002  0.91246  1.0000
  Zn  Zn13      1.0  0.67544  0.7062300000000002  0.91246  1.0000
  Zn  Zn14      1.0  0.67544  0.2937700000000001  0.91246  1.0000
  Zn  Zn15      1.0  0.17544  0.20623  0.91246  1.0000
  Zn  Zn16      1.0  0.17544  0.79377  0.91246  1.0000
  O   O1        1.0  0.7499900000000002  0.7499900000000003  0.0  1.0000
  O   O2        1.0  0.7499900000000002  0.25001  0.0  1.0000
  O   O3        1.0  0.24999  0.24999000000000005  0.0  1.0000
  O   O4        1.0  0.24999  0.75001  0.0  1.0000
  O   O5        1.0  0.6371700000000001  0.71936  0.9387500000000001  1.0000
  O   O6        1.0  0.6371700000000001  0.28064  0.9387500000000001  1.0000
  O   O7        1.0  0.13717000000000004  0.21936000000000005  0.9387500000000001  1.0000
  O   O8        1.0  0.13717000000000004  0.7806400000000001  0.9387500000000001  1.0000
  O   O9        1.0  0.86281  0.71935  0.06124  1.0000
  O   O10       1.0  0.86281  0.28065  0.06124  1.0000
  O   O11       1.0  0.36281  0.21935000000000004  0.06124  1.0000
  O   O12       1.0  0.36281  0.7806500000000001  0.06124  1.0000
  O   O13       1.0  0.8453  0.78062  0.23371  1.0000
  O   O14       1.0  0.8453  0.21938  0.23371  1.0000
  O   O15       1.0  0.3453  0.28062000000000004  0.23371  1.0000
  O   O16       1.0  0.34530000000000005  0.7193800000000001  0.23371  1.0000
  O   O17       1.0  0.65469  0.7806400000000001  0.7663000000000001  1.0000
  O   O18       1.0  0.65469  0.21936000000000005  0.7663000000000001  1.0000
  O   O19       1.0  0.15469000000000005  0.28064  0.7663000000000001  1.0000
  O   O20       1.0  0.15469000000000005  0.71936  0.7663000000000001  1.0000
  O   O21       1.0  0.75908  0.8668400000000003  0.06129  1.0000
  O   O22       1.0  0.75908  0.13316  0.06129  1.0000
  O   O23       1.0  0.25908  0.36684  0.06129  1.0000
  O   O24       1.0  0.25908  0.63316  0.06129  1.0000
  O   O25       1.0  0.6978099999999999  0.6331400000000003  0.93872  1.0000
  O   O26       1.0  0.6978099999999999  0.36686  0.93872  1.0000
  O   O27       1.0  0.19780999999999993  0.13314  0.93872  1.0000
  O   O28       1.0  0.19780999999999993  0.86686  0.93872  1.0000
  O   O29       1.0  0.7409  0.8668500000000002  0.93874  1.0000
  O   O30       1.0  0.7409  0.13315  0.93874  1.0000
  O   O31       1.0  0.2409  0.36685  0.93874  1.0000
  O   O32       1.0  0.2409  0.6331500000000002  0.93874  1.0000
  O   O33       1.0  0.80218  0.6331400000000003  0.061250000000000006  1.0000
  O   O34       1.0  0.80218  0.36686  0.061250000000000006  1.0000
  O   O35       1.0  0.30218  0.13314  0.061250000000000006  1.0000
  O   O36       1.0  0.30218  0.86686  0.061250000000000006  1.0000
  O   O37       1.0  0.88839  0.71935  0.23369  1.0000
  O   O38       1.0  0.88839  0.28065  0.23369  1.0000
  O   O39       1.0  0.38839  0.21935000000000004  0.23369  1.0000
  O   O40       1.0  0.38839  0.7806500000000001  0.23369  1.0000
  O   O41       1.0  0.6116  0.7193700000000001  0.7663000000000001  1.0000
  O   O42       1.0  0.6116000000000001  0.28063  0.7663000000000001  1.0000
  O   O43       1.0  0.11160000000000003  0.21937000000000006  0.7663000000000001  1.0000
  O   O44       1.0  0.11160000000000003  0.78063  0.7663000000000001  1.0000
  O   O45       1.0  0.69844  0.78063  0.0613  1.0000
  O   O46       1.0  0.69844  0.21937000000000006  0.0613  1.0000
  O   O47       1.0  0.19844  0.28063  0.0613  1.0000
  O   O48       1.0  0.19844  0.7193700000000001  0.0613  1.0000
  O   O49       1.0  0.8015400000000003  0.78063  0.9387100000000002  1.0000
  O   O50       1.0  0.8015400000000001  0.21937000000000006  0.9387100000000002  1.0000
  O   O51       1.0  0.30154000000000014  0.28063  0.9387100000000002  1.0000
  O   O52       1.0  0.30154000000000014  0.7193700000000001  0.9387100000000002  1.0000
  C   C1        1.0  0.65075  0.7499800000000002  1.0000000000000003e-05  1.0000
  C   C2        1.0  0.6507400000000001  0.25002  0.9999500000000002  1.0000
  C   C3        1.0  0.15074  0.24999000000000005  0.99999  1.0000
  C   C4        1.0  0.15073999999999999  0.75004  0.99996  1.0000
  C   C5        1.0  0.84922  0.7499700000000002  3e-05  1.0000
  C   C6        1.0  0.84922  0.25001  0.99999  1.0000
  C   C7        1.0  0.34921  0.24995000000000006  0.0  1.0000
  C   C8        1.0  0.34923  0.75001  0.0  1.0000
  C   C9        1.0  0.89225  0.75068  0.28201  1.0000
  C   C10       1.0  0.89225  0.24917000000000006  0.28216  1.0000
  C   C11       1.0  0.39134  0.25026  0.2822  1.0000
  C   C12       1.0  0.39288  0.74848  0.28211  1.0000
  C   C13       1.0  0.60799  0.75122  0.71768  1.0000
  C   C14       1.0  0.6090300000000001  0.24980000000000005  0.7175100000000002  1.0000
  C   C15       1.0  0.10821000000000006  0.25095  0.7176400000000001  1.0000
  C   C16       1.0  0.10867000000000011  0.7496100000000002  0.7174200000000002  1.0000
  C   C17       1.0  0.75085  0.8910800000000002  0.00109  1.0000
  C   C18       1.0  0.74958  0.10872000000000002  0.99965  1.0000
  C   C19       1.0  0.25006  0.39107  0.00054  1.0000
  C   C20       1.0  0.24923  0.6087100000000002  0.99963  1.0000
  C   C21       1.0  0.75013  0.6089000000000002  0.00157  1.0000
  C   C22       1.0  0.75001  0.39128  0.00292  1.0000
  C   C23       1.0  0.25054  0.10883  0.00258  1.0000
  C   C24       1.0  0.2497  0.8912400000000003  0.00054  1.0000
  C   C25       1.0  0.67808  0.53142  0.89616  1.0000
  C   C26       1.0  0.67859  0.47019  0.89289  1.0000
  C   C27       1.0  0.18235000000000004  0.03144000000000001  0.89213  1.0000
  C   C28       1.0  0.18344  0.97071  0.88572  1.0000
  C   C29       1.0  0.77008  0.53256  0.09775000000000003  1.0000
  C   C30       1.0  0.7649800000000001  0.46998  0.09340000000000001  1.0000
  C   C31       1.0  0.26319  0.03126  0.09009  1.0000
  C   C32       1.0  0.2542  0.96895  0.0796  1.0000
  C   C33       1.0  0.80082  0.53073  0.01727  1.0000
  C   C34       1.0  0.80397  0.4689500000000001  0.02574  1.0000
  C   C35       1.0  0.30904  0.03042  0.03418  1.0000
  C   C36       1.0  0.31056  0.9686400000000002  0.04029  1.0000
  C   C37       1.0  0.75013  0.55137  0.00387  1.0000
  C   C38       1.0  0.74965  0.4493  0.00439  1.0000
  C   C39       1.0  0.25154  0.051060000000000015  0.00543  1.0000
  C   C40       1.0  0.24929000000000004  0.94903  0.00195  1.0000
  C   C41       1.0  0.49166  0.20684000000000005  0.95842  1.0000
  C   C42       1.0  0.50759  0.7972500000000002  0.99039  1.0000
  C   C43       1.0  0.01336  0.70255  0.00173  1.0000
  C   C44       1.0  0.006110000000000062  0.29719  0.9874800000000001  1.0000
  C   C45       1.0  0.94658  0.7255000000000001  0.91826  1.0000
  C   C46       1.0  0.94325  0.2681700000000001  0.91168  1.0000
  C   C47       1.0  0.43968  0.24603  0.90453  1.0000
  C   C48       1.0  0.44393000000000005  0.7692900000000003  0.9130000000000001  1.0000
  C   C49       1.0  0.88884  0.7499500000000002  0.00014  1.0000
  C   C50       1.0  0.8887699999999998  0.25001  0.9999700000000001  1.0000
  C   C51       1.0  0.38875999999999994  0.24983000000000002  0.9999700000000001  1.0000
  C   C52       1.0  0.38882  0.7499900000000003  7e-05  1.0000
  C   C53       1.0  0.61105  0.24999000000000005  0.99972  1.0000
  C   C54       1.0  0.61118  0.7499400000000002  3e-05  1.0000
  C   C55       1.0  0.11112999999999995  0.7501200000000001  0.99989  1.0000
  C   C56       1.0  0.11112  0.25001  0.99992  1.0000
  C   C57       1.0  0.029339999999999998  0.7271200000000002  0.08353  1.0000
  C   C58       1.0  0.025269999999999997  0.27897  0.07558  1.0000
  C   C59       1.0  0.51436  0.21055000000000004  0.05359  1.0000
  C   C60       1.0  0.52622  0.77784  0.07744  1.0000
  C   C61       1.0  0.9627399999999999  0.75007  6e-05  1.0000
  C   C62       1.0  0.9625899999999998  0.24995000000000006  0.9997700000000002  1.0000
  C   C63       1.0  0.46257  0.24975000000000006  0.99971  1.0000
  C   C64       1.0  0.46273999999999993  0.7498900000000001  5e-05  1.0000
  C   C65       1.0  0.55994  0.25349  0.09485000000000002  1.0000
  C   C66       1.0  0.55611  0.73054  0.08722  1.0000
  C   C67       1.0  0.05338  0.7747  0.08179  1.0000
  C   C68       1.0  0.05648  0.23184  0.08797  1.0000
  C   C69       1.0  0.5370700000000002  0.24978000000000003  0.9996800000000001  1.0000
  C   C70       1.0  0.53731  0.7499500000000002  0.00018000000000000007  1.0000
  C   C71       1.0  0.03722999999999997  0.7501300000000002  0.0  1.0000
  C   C72       1.0  0.03716000000000004  0.25006  0.9998800000000001  1.0000
  C   C73       1.0  0.9866000000000004  0.7976500000000002  0.9983200000000001  1.0000
  C   C74       1.0  0.9936200000000001  0.20283  0.01216  1.0000
  C   C75       1.0  0.50797  0.29268000000000005  0.04096000000000001  1.0000
  C   C76       1.0  0.49245  0.7026  0.009840000000000003  1.0000
  C   C77       1.0  0.48526000000000014  0.28897  0.9457900000000002  1.0000
  C   C78       1.0  0.47382  0.7220000000000002  0.92279  1.0000
  C   C79       1.0  0.9706200000000003  0.77308  0.9165400000000002  1.0000
  C   C80       1.0  0.9744599999999999  0.22104000000000004  0.92407  1.0000
  C   C81       1.0  0.92226  0.7499900000000003  0.00012  1.0000
  C   C82       1.0  0.9221300000000001  0.24997  0.9998600000000002  1.0000
  C   C83       1.0  0.42212  0.24977  0.99985  1.0000
  C   C84       1.0  0.42223000000000005  0.7499400000000002  6e-05  1.0000
  C   C85       1.0  0.5775900000000002  0.24989000000000006  0.9996600000000002  1.0000
  C   C86       1.0  0.57781  0.7499400000000002  0.00011  1.0000
  C   C87       1.0  0.07771999999999998  0.7501500000000002  0.99992  1.0000
  C   C88       1.0  0.07768999999999998  0.25004  0.9999  1.0000
  C   C89       1.0  0.49912000000000006  0.7097700000000002  0.55951  1.0000
  C   C90       1.0  0.49366  0.27859  0.56058  1.0000
  C   C91       1.0  0.99457  0.21712  0.56004  1.0000
  C   C92       1.0  0.0007900000000000119  0.79207  0.55928  1.0000
  C   C93       1.0  0.44176  0.7126  0.44051  1.0000
  C   C94       1.0  0.43523  0.27825000000000005  0.44171  1.0000
  C   C95       1.0  0.93671  0.22256000000000006  0.44168  1.0000
  C   C96       1.0  0.94799  0.7940500000000001  0.44077  1.0000
  H   H1        1.0  0.4040000000000001  0.73253  0.41564000000000006  1.0000
  H   H2        1.0  0.40535000000000004  0.25125000000000003  0.42378  1.0000
  H   H3        1.0  0.90733  0.25133  0.42560000000000003  1.0000
  H   H4        1.0  0.90373  0.78411  0.406  1.0000
  C   C97       1.0  0.5763  0.7339600000000001  0.56585  1.0000
  C   C98       1.0  0.57147  0.28086000000000005  0.56331  1.0000
  C   C99       1.0  0.07239999999999999  0.22457000000000005  0.56379  1.0000
  C   C100      1.0  0.07589  0.7624300000000003  0.56333  1.0000
  C   C101      1.0  0.51613  0.8065000000000002  0.55739  1.0000
  C   C102      1.0  0.5337  0.19148000000000007  0.55967  1.0000
  C   C103      1.0  0.023839999999999986  0.30881  0.55794  1.0000
  C   C104      1.0  0.01731000000000003  0.6934300000000002  0.55879  1.0000
  C   C105      1.0  0.5514  0.75079  0.60223  1.0000
  C   C106      1.0  0.55277  0.24986000000000005  0.60193  1.0000
  C   C107      1.0  0.051409999999999983  0.25052  0.6021  1.0000
  C   C108      1.0  0.051489999999999994  0.7488300000000002  0.60164  1.0000
  C   C109      1.0  0.45253999999999994  0.7495500000000002  0.3978  1.0000
  C   C110      1.0  0.45009000000000005  0.2503  0.3975100000000001  1.0000
  C   C111      1.0  0.95171  0.25017  0.39766  1.0000
  C   C112      1.0  0.95216  0.7494300000000003  0.39719  1.0000
  C   C113      1.0  0.51509  0.7316000000000001  0.44089  1.0000
  C   C114      1.0  0.50763  0.28017000000000003  0.43732  1.0000
  C   C115      1.0  0.010220000000000017  0.22233  0.43893  1.0000
  C   C116      1.0  0.015960000000000002  0.7568200000000002  0.43861  1.0000
  C   C117      1.0  0.46084  0.80644  0.4349300000000001  1.0000
  C   C118      1.0  0.46644  0.19133000000000006  0.43750000000000006  1.0000
  C   C119      1.0  0.96894  0.30846  0.43578  1.0000
  C   C120      1.0  0.9516099999999998  0.6967500000000002  0.43579  1.0000
  C   C121      1.0  0.78741  0.9693800000000001  0.11032  1.0000
  C   C122      1.0  0.7911200000000002  0.031120000000000005  0.11306  1.0000
  C   C123      1.0  0.3072  0.46866000000000013  0.12127  1.0000
  C   C124      1.0  0.30994000000000005  0.53092  0.12176000000000002  1.0000
  C   C125      1.0  0.67765  0.9683700000000001  0.90657  1.0000
  C   C126      1.0  0.67744  0.03028  0.91254  1.0000
  C   C127      1.0  0.18104000000000006  0.46873000000000004  0.9386200000000001  1.0000
  C   C128      1.0  0.1833  0.53062  0.94658  1.0000
  C   C129      1.0  0.7918  0.9682300000000003  0.99435  1.0000
  C   C130      1.0  0.7872799999999999  0.030380000000000004  0.98638  1.0000
  C   C131      1.0  0.2656000000000001  0.46866000000000013  0.9529  1.0000
  C   C132      1.0  0.2609800000000001  0.53008  0.94649  1.0000
  C   C133      1.0  0.75139  0.9486800000000001  0.00211  1.0000
  C   C134      1.0  0.75065  0.05080000000000001  0.00145  1.0000
  C   C135      1.0  0.25037  0.4486500000000001  0.002710000000000001  1.0000
  C   C136      1.0  0.25014  0.55078  0.002670000000000001  1.0000
  N   N1        1.0  0.63261  0.55007  0.88508  1.0000
  O   O53       1.0  0.5947800000000002  0.58762  0.8258500000000002  1.0000
  O   O54       1.0  0.62226  0.5266700000000002  0.92191  1.0000
  N   N2        1.0  0.62202  0.4520300000000001  0.85505  1.0000
  O   O55       1.0  0.56647  0.46814000000000006  0.7674400000000002  1.0000
  O   O56       1.0  0.62188  0.41622000000000003  0.89436  1.0000
  N   N3        1.0  0.13147  0.04706  0.87012  1.0000
  O   O57       1.0  0.09449000000000012  0.08489  0.8110700000000002  1.0000
  O   O58       1.0  0.11621000000000001  0.02081  0.89727  1.0000
  N   N4        1.0  0.12082000000000002  0.9516600000000002  0.82715  1.0000
  O   O59       1.0  0.07  0.9662400000000001  0.73386  1.0000
  O   O60       1.0  0.11219000000000005  0.9205700000000002  0.8600400000000001  1.0000
  C   C137      1.0  0.97233  0.8512400000000002  0.99635  1.0000
  O   O61       1.0  0.99477  0.8853400000000002  0.99528  1.0000
  O   O62       1.0  0.9336099999999999  0.86197  0.99568  1.0000
  H   H5        1.0  0.92759  0.8994300000000001  0.99431  1.0000
  C   C138      1.0  0.9873399999999999  0.14965000000000006  0.0259  1.0000
  O   O63       1.0  0.01497  0.11591000000000003  0.03504  1.0000
  O   O64       1.0  0.95008  0.13890000000000002  0.02808  1.0000
  H   H6        1.0  0.94959  0.10174  0.03759  1.0000
  C   C139      1.0  0.51797  0.3411000000000001  0.08735  1.0000
  O   O65       1.0  0.55588  0.37179  0.1171  1.0000
  O   O66       1.0  0.48408  0.3509500000000001  0.09627  1.0000
  H   H7        1.0  0.49496000000000007  0.38481000000000004  0.12859  1.0000
  C   C140      1.0  0.4847099999999999  0.6492600000000002  0.02068  1.0000
  O   O67       1.0  0.51136  0.6153900000000002  0.02789  1.0000
  O   O68       1.0  0.44723  0.63851  0.022420000000000002  1.0000
  H   H8        1.0  0.44573  0.6012300000000002  0.029930000000000002  1.0000
  C   C141      1.0  0.62684  0.25761  0.20214  1.0000
  O   O69       1.0  0.63789  0.26039  0.27024  1.0000
  O   O70       1.0  0.67604  0.25821000000000005  0.22381  1.0000
  H   H9        1.0  0.71885  0.26105  0.29881  1.0000
  C   C142      1.0  0.61849  0.7087600000000002  0.18547000000000002  1.0000
  O   O71       1.0  0.62662  0.6948100000000003  0.24772  1.0000
  O   O72       1.0  0.66686  0.70455  0.20547  1.0000
  H   H10       1.0  0.7065200000000001  0.68936  0.27417  1.0000
  C   C143      1.0  0.11269999999999998  0.8024100000000002  0.17398  1.0000
  O   O73       1.0  0.11898  0.82001  0.23254000000000002  1.0000
  O   O74       1.0  0.16035000000000002  0.80799  0.19255000000000005  1.0000
  H   H11       1.0  0.19789  0.8273300000000001  0.25702  1.0000
  C   C144      1.0  0.11944000000000002  0.21143000000000006  0.1874  1.0000
  O   O75       1.0  0.12793  0.19829  0.25036  1.0000
  O   O76       1.0  0.16795  0.20755000000000007  0.20768  1.0000
  H   H12       1.0  0.20802  0.19331000000000007  0.2772  1.0000
  C   C145      1.0  0.06330000000000002  0.7012900000000002  0.17769000000000001  1.0000
  O   O77       1.0  0.11620000000000004  0.6847100000000002  0.23736000000000004  1.0000
  O   O78       1.0  0.034539999999999994  0.69632  0.19687  1.0000
  H   H13       1.0  0.062240000000000004  0.67831  0.26274  1.0000
  C   C146      1.0  0.05476000000000002  0.3115600000000001  0.16103  1.0000
  O   O79       1.0  0.10488  0.3324300000000001  0.21527  1.0000
  O   O80       1.0  0.025040000000000007  0.3179  0.17833000000000002  1.0000
  H   H14       1.0  0.04962000000000004  0.34065  0.23811000000000002  1.0000
  C   C147      1.0  0.53159  0.16633  0.11429  1.0000
  O   O81       1.0  0.574  0.13829000000000002  0.15298  1.0000
  O   O82       1.0  0.49926000000000004  0.15737  0.12632  1.0000
  H   H15       1.0  0.5152  0.12643  0.16867000000000004  1.0000
  C   C148      1.0  0.55662  0.8092600000000002  0.16466  1.0000
  O   O83       1.0  0.6072999999999998  0.8293700000000003  0.22001  1.0000
  O   O84       1.0  0.52709  0.8153800000000002  0.18233  1.0000
  H   H16       1.0  0.5523  0.83732  0.24334  1.0000
  N   N5        1.0  0.52595  0.65802  0.59796  1.0000
  O   O85       1.0  0.52484  0.6266600000000002  0.55182  1.0000
  O   O86       1.0  0.53826  0.63889  0.6663  1.0000
  N   N6        1.0  0.50946  0.3315500000000001  0.59678  1.0000
  O   O87       1.0  0.50518  0.36745  0.55199  1.0000
  O   O88       1.0  0.51483  0.34502000000000005  0.65987  1.0000
  N   N7        1.0  0.012589999999999985  0.16372  0.59423  1.0000
  O   O89       1.0  0.006540000000000029  0.1286  0.54654  1.0000
  O   O90       1.0  0.022340000000000082  0.14869  0.6616600000000002  1.0000
  N   N8        1.0  0.03112000000000013  0.84246  0.6103700000000002  1.0000
  O   O91       1.0  0.036289999999999996  0.87771  0.57721  1.0000
  O   O92       1.0  0.03904000000000006  0.8573500000000002  0.6759700000000001  1.0000
  N   N9        1.0  0.47342  0.72025  0.58859  1.0000
  O   O93       1.0  0.50997  0.7286300000000001  0.68152  1.0000
  O   O94       1.0  0.41552  0.70868  0.5276  1.0000
  N   N10       1.0  0.47495  0.25329000000000007  0.59455  1.0000
  O   O95       1.0  0.51568  0.24704000000000007  0.68994  1.0000
  O   O96       1.0  0.41658999999999996  0.25515000000000004  0.53745  1.0000
  N   N11       1.0  0.9732699999999999  0.23554  0.59336  1.0000
  O   O97       1.0  0.013200000000000031  0.24642  0.68724  1.0000
  O   O98       1.0  0.9162  0.22569  0.53787  1.0000
  N   N12       1.0  0.96869  0.77962  0.57616  1.0000
  O   O99       1.0  0.001800000000000013  0.76933  0.66628  1.0000
  O   O100      1.0  0.91502  0.80132  0.51881  1.0000
  C   C149      1.0  0.40974  0.66105  0.39261  1.0000
  O   O101      1.0  0.40456  0.6400300000000002  0.33747  1.0000
  O   O102      1.0  0.38908  0.6362600000000002  0.41784  1.0000
  H   H17       1.0  0.37866  0.5996  0.39729  1.0000
  C   C150      1.0  0.38214000000000004  0.31772  0.38440000000000013  1.0000
  O   O103      1.0  0.3923  0.3627700000000001  0.40058000000000005  1.0000
  O   O104      1.0  0.32016  0.30114  0.31492  1.0000
  H   H18       1.0  0.28957  0.3298  0.28268  1.0000
  C   C151      1.0  0.89039  0.17834000000000005  0.38614  1.0000
  O   O105      1.0  0.89761  0.14018  0.36588  1.0000
  O   O106      1.0  0.8366400000000003  0.18291000000000004  0.3529900000000001  1.0000
  H   H19       1.0  0.80873  0.15198000000000006  0.31545  1.0000
  C   C152      1.0  0.92672  0.8469400000000002  0.39735  1.0000
  O   O107      1.0  0.95179  0.8710900000000001  0.3898  1.0000
  O   O108      1.0  0.88284  0.87042  0.37857  1.0000
  H   H20       1.0  0.88103  0.9081100000000001  0.37057  1.0000
  N   N13       1.0  0.60859  0.6841600000000002  0.60751  1.0000
  O   O109      1.0  0.63913  0.66932  0.6942700000000002  1.0000
  O   O110      1.0  0.63029  0.66717  0.58437  1.0000
  N   N14       1.0  0.5953  0.3318500000000001  0.61134  1.0000
  O   O111      1.0  0.592  0.36983000000000005  0.57049  1.0000
  O   O112      1.0  0.64288  0.33403  0.70947  1.0000
  N   N15       1.0  0.09763999999999999  0.17287000000000005  0.60342  1.0000
  O   O113      1.0  0.12532  0.16029000000000002  0.68874  1.0000
  O   O114      1.0  0.11697000000000006  0.14919  0.58023  1.0000
  N   N16       1.0  0.10524999999999998  0.8133  0.6055  1.0000
  O   O115      1.0  0.0894  0.8516200000000003  0.55224  1.0000
  O   O116      1.0  0.15947  0.81644  0.70259  1.0000
  C   C153      1.0  0.49829  0.68009  0.38994000000000006  1.0000
  O   O117      1.0  0.51838  0.63988  0.43351  1.0000
  O   O118      1.0  0.46082  0.67989  0.28966  1.0000
  H   H21       1.0  0.46667000000000003  0.6482500000000001  0.27235  1.0000
  C   C154      1.0  0.48756000000000005  0.33437000000000006  0.39501  1.0000
  O   O119      1.0  0.44226  0.3545900000000001  0.35967  1.0000
  O   O120      1.0  0.51892  0.35967  0.38861  1.0000
  H   H22       1.0  0.50164  0.39451000000000014  0.35845  1.0000
  C   C155      1.0  0.98523  0.16983  0.38665  1.0000
  O   O121      1.0  0.0015799999999999799  0.13026000000000001  0.43019  1.0000
  O   O122      1.0  0.94653  0.16739000000000004  0.28572  1.0000
  H   H23       1.0  0.9496100000000001  0.13363  0.26878  1.0000
  C   C156      1.0  0.011440000000000006  0.80125  0.38804  1.0000
  O   O123      1.0  0.9607400000000001  0.8195700000000002  0.30896  1.0000
  O   O124      1.0  0.06385000000000005  0.8128300000000003  0.4196700000000001  1.0000
  H   H24       1.0  0.054659999999999986  0.8398600000000003  0.37692  1.0000
  N   N17       1.0  0.55533  0.8520600000000003  0.59764  1.0000
  O   O125      1.0  0.61449  0.8518200000000002  0.65979  1.0000
  O   O126      1.0  0.52809  0.89583  0.56754  1.0000
  N   N18       1.0  0.58501  0.16837000000000002  0.58804  1.0000
  O   O127      1.0  0.58406  0.16659000000000002  0.5287  1.0000
  O   O128      1.0  0.6331700000000001  0.14645  0.67456  1.0000
  N   N19       1.0  0.06963  0.34945000000000004  0.60096  1.0000
  O   O129      1.0  0.12669999999999995  0.34203  0.65592  1.0000
  O   O130      1.0  0.049880000000000015  0.3958600000000001  0.57533  1.0000
  N   N20       1.0  0.06221000000000002  0.65473  0.5925  1.0000
  O   O131      1.0  0.05545000000000004  0.6305600000000002  0.53359  1.0000
  O   O132      1.0  0.10691999999999999  0.6378700000000003  0.68412  1.0000
  C   C157      1.0  0.64841  0.5530600000000001  0.79941  1.0000
  O   O133      1.0  0.67038  0.58908  0.8012500000000001  1.0000
  O   O134      1.0  0.58984  0.53457  0.70515  1.0000
  H   H25       1.0  0.57701  0.54757  0.64769  1.0000
  C   C158      1.0  0.66206  0.4497300000000001  0.80838  1.0000
  O   O135      1.0  0.6816400000000001  0.4686500000000001  0.7875400000000001  1.0000
  O   O136      1.0  0.61635  0.4126300000000001  0.74381  1.0000
  H   H26       1.0  0.59671  0.41475000000000006  0.6773  1.0000
  C   C159      1.0  0.16029000000000002  0.056590000000000015  0.8043900000000002  1.0000
  O   O137      1.0  0.18961999999999998  0.09039000000000001  0.81829  1.0000
  O   O138      1.0  0.10199000000000011  0.04295  0.7047300000000001  1.0000
  H   H27       1.0  0.09332000000000006  0.05988000000000002  0.6536200000000001  1.0000
  C   C160      1.0  0.18024  0.9507600000000003  0.81638  1.0000
  O   O139      1.0  0.18828  0.97663  0.78231  1.0000
  O   O140      1.0  0.16130000000000005  0.9013100000000002  0.7828000000000002  1.0000
  H   H28       1.0  0.15243  0.8959900000000002  0.72733  1.0000
  C   C161      1.0  0.49448  0.8171200000000002  0.5954  1.0000
  O   O141      1.0  0.53456  0.8282300000000002  0.6844  1.0000
  O   O142      1.0  0.43184000000000006  0.81432  0.53412  1.0000
  H   H29       1.0  0.4266  0.8226400000000001  0.57165  1.0000
  C   C162      1.0  0.5305  0.15515  0.60965  1.0000
  O   O143      1.0  0.51032  0.11249000000000003  0.57563  1.0000
  O   O144      1.0  0.55638  0.16669  0.69895  1.0000
  H   H30       1.0  0.54946  0.13930000000000003  0.7210000000000001  1.0000
  C   C163      1.0  0.002429999999999985  0.3271900000000001  0.59362  1.0000
  O   O145      1.0  0.04303000000000002  0.3376500000000001  0.68261  1.0000
  O   O146      1.0  0.9395400000000002  0.33049  0.53129  1.0000
  H   H31       1.0  0.9348700000000001  0.34299000000000013  0.56818  1.0000
  C   C164      1.0  0.0047799999999999935  0.6727700000000002  0.60662  1.0000
  O   O147      1.0  0.96842  0.6374700000000002  0.56651  1.0000
  O   O148      1.0  0.04408000000000001  0.68522  0.70545  1.0000
  H   H32       1.0  0.031240000000000052  0.6683800000000002  0.7279700000000001  1.0000
  C   C165      1.0  0.3989  0.8283300000000001  0.38162  1.0000
  O   O149      1.0  0.39861  0.8721500000000002  0.39843  1.0000
  O   O150      1.0  0.34254  0.8011  0.3115400000000001  1.0000
  H   H33       1.0  0.30641  0.8213100000000002  0.28248  1.0000
  C   C166      1.0  0.40825  0.17127  0.39951  1.0000
  O   O151      1.0  0.35737  0.16822  0.30883  1.0000
  O   O152      1.0  0.40923  0.16301000000000004  0.46298  1.0000
  H   H34       1.0  0.36689  0.15227000000000004  0.42517  1.0000
  C   C167      1.0  0.91096  0.33886  0.383  1.0000
  O   O153      1.0  0.9179100000000001  0.38349  0.40404  1.0000
  O   O154      1.0  0.85067  0.31788  0.31014  1.0000
  H   H35       1.0  0.8180700000000001  0.34291  0.28279  1.0000
  C   C168      1.0  0.88891  0.6967  0.39245  1.0000
  O   O155      1.0  0.83934  0.6875500000000002  0.3026  1.0000
  O   O156      1.0  0.88597  0.7069900000000002  0.45024  1.0000
  H   H36       1.0  0.8415799999999999  0.7054400000000002  0.40975  1.0000
  N   N21       1.0  0.47492999999999996  0.84204  0.40221  1.0000
  O   O157      1.0  0.53107  0.8553000000000001  0.45846  1.0000
  O   O158      1.0  0.42989999999999995  0.8656700000000003  0.31683  1.0000
  N   N22       1.0  0.46923  0.15284  0.39186  1.0000
  O   O159      1.0  0.47574  0.16310000000000002  0.34351  1.0000
  O   O160      1.0  0.47212  0.10546000000000001  0.41028  1.0000
  N   N23       1.0  0.9885000000000002  0.33633  0.40513  1.0000
  O   O161      1.0  0.046290000000000005  0.34024  0.46185  1.0000
  O   O162      1.0  0.9482300000000001  0.3628600000000001  0.32277000000000006  1.0000
  N   N24       1.0  0.9438  0.6486800000000001  0.39208  1.0000
  O   O163      1.0  0.9467200000000001  0.6443500000000002  0.3378300000000001  1.0000
  O   O164      1.0  0.9371699999999998  0.60719  0.41419  1.0000
  C   C169      1.0  0.63291  0.7681200000000002  0.61752  1.0000
  O   O165      1.0  0.68659  0.7566200000000001  0.70163  1.0000
  O   O166      1.0  0.62748  0.8088000000000001  0.57143  1.0000
  H   H37       1.0  0.6693  0.82527  0.61536  1.0000
  C   C170      1.0  0.63079  0.2644  0.6039800000000001  1.0000
  O   O167      1.0  0.64436  0.2879200000000001  0.57582  1.0000
  O   O168      1.0  0.67633  0.23197000000000007  0.68551  1.0000
  H   H38       1.0  0.71411  0.22798000000000004  0.70666  1.0000
  C   C171      1.0  0.13317  0.2510200000000001  0.6166700000000002  1.0000
  O   O169      1.0  0.18422  0.24039000000000005  0.70474  1.0000
  O   O170      1.0  0.13469000000000006  0.28282  0.56879  1.0000
  H   H39       1.0  0.17861  0.29491000000000006  0.61475  1.0000
  C   C172      1.0  0.13295000000000012  0.7337  0.6091000000000001  1.0000
  O   O171      1.0  0.15559000000000006  0.7503800000000003  0.5916  1.0000
  O   O172      1.0  0.16134  0.6913000000000002  0.67026  1.0000
  H   H40       1.0  0.19836000000000006  0.6786200000000002  0.6934000000000001  1.0000
  C   C173      1.0  0.53206  0.7586000000000002  0.40277  1.0000
  O   O173      1.0  0.57845  0.7440500000000002  0.4345400000000001  1.0000
  O   O174      1.0  0.49311  0.7935300000000002  0.32438  1.0000
  H   H41       1.0  0.5102  0.8055200000000002  0.30627  1.0000
  C   C174      1.0  0.5153300000000001  0.25822  0.3816500000000001  1.0000
  O   O175      1.0  0.4753  0.26798  0.29206  1.0000
  O   O176      1.0  0.56661  0.22987  0.42805000000000004  1.0000
  H   H42       1.0  0.56388  0.21984000000000004  0.38055  1.0000
  C   C175      1.0  0.028729999999999995  0.24033000000000004  0.39866  1.0000
  O   O177      1.0  0.07171  0.21849  0.42789  1.0000
  O   O178      1.0  0.99308  0.27440000000000003  0.31943000000000005  1.0000
  H   H43       1.0  0.010019999999999989  0.27997000000000005  0.29913  1.0000
  C   C176      1.0  0.022860000000000012  0.7143400000000002  0.39778  1.0000
  O   O179      1.0  0.98918  0.7152700000000002  0.30952  1.0000
  O   O180      1.0  0.06917000000000006  0.67715  0.4576800000000001  1.0000
  H   H44       1.0  0.06759  0.65411  0.41923  1.0000
  C   C177      1.0  0.7538  0.94903  0.12533  1.0000
  O   O181      1.0  0.77599  0.91316  0.18114  1.0000
  O   O182      1.0  0.7013699999999999  0.9720100000000003  0.08329  1.0000
  H   H45       1.0  0.68641  0.9550500000000002  0.10231000000000001  1.0000
  C   C178      1.0  0.77455  0.050520000000000016  0.15677  1.0000
  O   O183      1.0  0.80877  0.03716  0.24224000000000004  1.0000
  O   O184      1.0  0.72689  0.08451000000000003  0.10951  1.0000
  H   H46       1.0  0.72473  0.09304  0.15118  1.0000
  C   C179      1.0  0.29731  0.4474700000000001  0.17407  1.0000
  O   O185      1.0  0.32528  0.40939  0.22565000000000002  1.0000
  O   O186      1.0  0.26141  0.4713500000000001  0.17169  1.0000
  H   H47       1.0  0.26170000000000004  0.4533000000000001  0.21225000000000002  1.0000
  C   C180      1.0  0.3178  0.5499100000000001  0.19803  1.0000
  O   O187      1.0  0.36464  0.5361100000000001  0.28594  1.0000
  O   O188      1.0  0.27774  0.58345  0.17556  1.0000
  H   H48       1.0  0.28739  0.5881300000000002  0.23220000000000002  1.0000
  N   N25       1.0  0.85238  0.94902  0.20200000000000007  1.0000
  O   O189      1.0  0.86794  0.9047900000000002  0.20219  1.0000
  O   O190      1.0  0.88537  0.9654600000000002  0.28994  1.0000
  N   N26       1.0  0.8561800000000002  0.05264  0.19122000000000006  1.0000
  O   O191      1.0  0.9053500000000001  0.028480000000000005  0.23589000000000002  1.0000
  O   O192      1.0  0.86649  0.09827000000000001  0.22305  1.0000
  N   N27       1.0  0.37022  0.44683  0.18808  1.0000
  O   O193      1.0  0.37497  0.40254000000000006  0.16956000000000002  1.0000
  O   O194      1.0  0.41747  0.45987000000000006  0.28311  1.0000
  N   N28       1.0  0.36794  0.55409  0.17012  1.0000
  O   O195      1.0  0.41551  0.52985  0.20931  1.0000
  O   O196      1.0  0.37644  0.60214  0.18877  1.0000
  N   N29       1.0  0.6363600000000001  0.9456400000000003  0.9006900000000002  1.0000
  O   O197      1.0  0.65018  0.90315  0.9441200000000002  1.0000
  O   O198      1.0  0.5763800000000002  0.9562200000000002  0.8218000000000002  1.0000
  N   N30       1.0  0.64963  0.05239000000000001  0.933  1.0000
  O   O199      1.0  0.62091  0.02678000000000001  0.93731  1.0000
  O   O200      1.0  0.6384  0.10071000000000002  0.91971  1.0000
  N   N31       1.0  0.15840000000000018  0.44806000000000007  0.9683400000000002  1.0000
  O   O201      1.0  0.17967  0.40677  0.01902  1.0000
  O   O202      1.0  0.10178  0.4604700000000001  0.91286  1.0000
  N   N32       1.0  0.17705  0.5526700000000001  0.00087  1.0000
  O   O203      1.0  0.17263  0.52683  0.044370000000000014  1.0000
  O   O204      1.0  0.16156999999999996  0.6  0.9867700000000001  1.0000
  C   C181      1.0  0.77581  0.9483200000000002  0.90933  1.0000
  O   O205      1.0  0.73128  0.9213900000000003  0.83977  1.0000
  O   O206      1.0  0.8172200000000001  0.9609600000000003  0.91592  1.0000
  H   H49       1.0  0.80428  0.9462500000000003  0.85898  1.0000
  C   C182      1.0  0.75517  0.05087  0.8862900000000002  1.0000
  O   O207      1.0  0.7132  0.028600000000000004  0.80627  1.0000
  O   O208      1.0  0.77884  0.09435  0.88879  1.0000
  H   H50       1.0  0.75582  0.10327000000000001  0.82065  1.0000
  C   C183      1.0  0.22491000000000005  0.4490800000000001  0.8464400000000001  1.0000
  O   O209      1.0  0.17928000000000005  0.4217900000000001  0.79281  1.0000
  O   O210      1.0  0.24388000000000024  0.4621600000000001  0.8125400000000003  1.0000
  H   H51       1.0  0.21552  0.44762  0.74366  1.0000
  C   C184      1.0  0.20794000000000007  0.54947  0.83528  1.0000
  O   O211      1.0  0.15532000000000004  0.53145  0.7675  1.0000
  O   O212      1.0  0.22224  0.5850800000000002  0.80912  1.0000
  H   H52       1.0  0.18799000000000005  0.58847  0.73357  1.0000
  N   N33       1.0  0.85637  0.9454500000000002  0.08257  1.0000
  O   O213      1.0  0.86333  0.8976  0.07982  1.0000
  O   O214      1.0  0.90825  0.9703700000000001  0.15625  1.0000
  N   N34       1.0  0.85123  0.05275  0.0608  1.0000
  O   O215      1.0  0.88386  0.03912  0.055770000000000014  1.0000
  O   O216      1.0  0.86298  0.09802  0.09515  1.0000
  N   N35       1.0  0.32885  0.4478800000000001  0.01601  1.0000
  O   O217      1.0  0.33301  0.40304000000000006  0.99767  1.0000
  O   O218      1.0  0.38137000000000004  0.4725200000000001  0.08691  1.0000
  N   N36       1.0  0.3184000000000001  0.55088  0.98983  1.0000
  O   O219      1.0  0.33155000000000007  0.5347600000000002  0.9526900000000001  1.0000
  O   O220      1.0  0.34183  0.59466  0.03329  1.0000
  N   N37       1.0  0.73229  0.5552  0.09878  1.0000
  O   O221      1.0  0.70335  0.5979000000000002  0.05458  1.0000
  O   O222      1.0  0.75104  0.54601  0.17771  1.0000
  N   N38       1.0  0.71618  0.4479700000000001  0.07146  1.0000
  O   O223      1.0  0.68353  0.47321000000000013  0.0684  1.0000
  O   O224      1.0  0.71862  0.3996200000000001  0.08443000000000003  1.0000
  N   N39       1.0  0.22225  0.05522000000000001  0.08393  1.0000
  O   O225      1.0  0.1892  0.09531  0.03085  1.0000
  O   O226      1.0  0.23772999999999997  0.04832  0.16006  1.0000
  N   N40       1.0  0.1981  0.9496900000000001  0.04128  1.0000
  O   O227      1.0  0.17061  0.9750000000000002  0.0484  1.0000
  O   O228      1.0  0.19404  0.9010900000000002  0.04309000000000001  1.0000
  C   C185      1.0  0.64493  0.9464000000000002  0.80725  1.0000
  O   O229      1.0  0.62846  0.9023000000000002  0.7867  1.0000
  O   O230      1.0  0.6297500000000001  0.9743600000000002  0.7367200000000002  1.0000
  H   H53       1.0  0.6138100000000001  0.9537000000000002  0.6812000000000001  1.0000
  C   C186      1.0  0.6289200000000001  0.05051  0.8056800000000001  1.0000
  O   O231      1.0  0.57372  0.03789  0.74074  1.0000
  O   O232      1.0  0.64318  0.08403  0.77907  1.0000
  H   H54       1.0  0.61411  0.07734000000000002  0.7066000000000001  1.0000
  C   C187      1.0  0.13000000000000003  0.4448000000000001  0.83183  1.0000
  O   O233      1.0  0.12172  0.39948000000000006  0.82563  1.0000
  O   O234      1.0  0.09006000000000002  0.4710200000000001  0.7417  1.0000
  H   H55       1.0  0.056360000000000014  0.4490400000000001  0.67958  1.0000
  C   C188      1.0  0.12244000000000001  0.55182  0.84251  1.0000
  O   O235      1.0  0.07211  0.53714  0.79845  1.0000
  O   O236      1.0  0.12188000000000003  0.5940200000000001  0.80591  1.0000
  H   H56       1.0  0.0774000000000001  0.59991  0.7348700000000001  1.0000
  C   C189      1.0  0.87044  0.54988  0.10741  1.0000
  O   O237      1.0  0.893  0.5768100000000002  0.17516  1.0000
  O   O238      1.0  0.90891  0.5365000000000001  0.10824000000000003  1.0000
  H   H57       1.0  0.9531100000000001  0.5506800000000001  0.16841  1.0000
  C   C190      1.0  0.87094  0.4492  0.13066  1.0000
  O   O239      1.0  0.90183  0.4686500000000001  0.21014000000000002  1.0000
  O   O240      1.0  0.89916  0.4096500000000001  0.13476  1.0000
  H   H58       1.0  0.94343  0.40171  0.20584  1.0000
  C   C191      1.0  0.3785  0.04873000000000001  0.13299  1.0000
  O   O241      1.0  0.39518  0.07828000000000003  0.19310000000000002  1.0000
  O   O242      1.0  0.42384000000000005  0.03280000000000001  0.14968  1.0000
  H   H59       1.0  0.46727  0.04705  0.21396  1.0000
  C   C192      1.0  0.37366  0.9482700000000001  0.14893  1.0000
  O   O243      1.0  0.3968  0.9658800000000002  0.22401  1.0000
  O   O244      1.0  0.40784  0.9107000000000002  0.1627  1.0000
  H   H60       1.0  0.44994  0.9030800000000002  0.23629  1.0000
  N   N41       1.0  0.78102  0.55268  0.93233  1.0000
  O   O245      1.0  0.79148  0.6003  0.93554  1.0000
  O   O246      1.0  0.7627300000000001  0.52702  0.8623600000000002  1.0000
  N   N42       1.0  0.79842  0.4458100000000001  0.95729  1.0000
  O   O247      1.0  0.83991  0.45825  0.9700300000000002  1.0000
  O   O248      1.0  0.77099  0.40254000000000006  0.9134900000000002  1.0000
  N   N43       1.0  0.29827000000000004  0.05226  0.95871  1.0000
  O   O249      1.0  0.31348000000000004  0.09905  0.9680500000000002  1.0000
  O   O250      1.0  0.28175  0.026840000000000006  0.89026  1.0000
  N   N44       1.0  0.31376  0.9465300000000001  0.98226  1.0000
  O   O251      1.0  0.36038  0.9599700000000002  0.007590000000000001  1.0000
  O   O252      1.0  0.2887500000000002  0.9031900000000002  0.9370000000000003  1.0000
  N   N45       1.0  0.83322  0.55458  0.19221000000000002  1.0000
  O   O253      1.0  0.8349300000000002  0.60207  0.20865000000000006  1.0000
  O   O254      1.0  0.88443  0.5295000000000001  0.26834  1.0000
  N   N46       1.0  0.82268  0.44968000000000014  0.19561000000000003  1.0000
  O   O255      1.0  0.83421  0.46351000000000003  0.26572  1.0000
  O   O256      1.0  0.84213  0.40510000000000007  0.20662  1.0000
  N   N47       1.0  0.32624  0.05045  0.18986  1.0000
  O   O257      1.0  0.33105  0.09866  0.20408  1.0000
  O   O258      1.0  0.37084  0.024070000000000008  0.27144  1.0000
  N   N48       1.0  0.30534  0.94571  0.1811  1.0000
  O   O259      1.0  0.30925  0.9588500000000002  0.2426  1.0000
  O   O260      1.0  0.32154  0.8996700000000002  0.19116  1.0000
  C   C193      1.0  0.8872  0.6978600000000001  0.826  1.0000
  O   O261      1.0  0.88099  0.68012  0.76758  1.0000
  O   O262      1.0  0.8394  0.6925800000000001  0.80712  1.0000
  H   H61       1.0  0.80179  0.6733300000000002  0.7425500000000002  1.0000
  C   C194      1.0  0.8802  0.28848  0.81222  1.0000
  O   O263      1.0  0.87168  0.30181000000000013  0.7493  1.0000
  O   O264      1.0  0.83161  0.29196  0.79182  1.0000
  H   H62       1.0  0.79144  0.30606  0.72222  1.0000
  C   C195      1.0  0.37275  0.24188000000000007  0.79728  1.0000
  O   O265      1.0  0.36161  0.23914000000000002  0.72909  1.0000
  O   O266      1.0  0.3236  0.24119000000000004  0.77575  1.0000
  H   H63       1.0  0.28076000000000007  0.23829  0.7007900000000001  1.0000
  C   C196      1.0  0.38151  0.7910000000000003  0.81471  1.0000
  O   O267      1.0  0.37341  0.8051200000000002  0.75256  1.0000
  O   O268      1.0  0.33303  0.7949000000000003  0.79449  1.0000
  H   H64       1.0  0.29329999999999995  0.80998  0.72571  1.0000
  C   C197      1.0  0.4817100000000001  0.15842000000000003  0.91209  1.0000
  O   O269      1.0  0.44378  0.12773000000000004  0.88225  1.0000
  O   O270      1.0  0.5157100000000001  0.14857  0.9033800000000001  1.0000
  H   H65       1.0  0.50488  0.11469  0.87113  1.0000
  C   C198      1.0  0.51531  0.8505900000000001  0.97955  1.0000
  O   O271      1.0  0.48864  0.8844500000000001  0.97233  1.0000
  O   O272      1.0  0.5528  0.86138  0.97784  1.0000
  H   H66       1.0  0.5543  0.8986700000000002  0.97035  1.0000
  C   C199      1.0  0.02757  0.64895  0.00363  1.0000
  O   O273      1.0  0.0052  0.61487  0.00485  1.0000
  O   O274      1.0  0.06613  0.6382000000000001  0.004  1.0000
  H   H67       1.0  0.07211  0.6007400000000002  0.00531  1.0000
  C   C200      1.0  0.012330000000000051  0.3503600000000001  0.9736800000000001  1.0000
  O   O275      1.0  0.98474  0.3841  0.96464  1.0000
  O   O276      1.0  0.04948000000000002  0.36113  0.97129  1.0000
  H   H68       1.0  0.049929999999999995  0.39829000000000003  0.96171  1.0000
  C   C201      1.0  0.4679800000000001  0.33320000000000005  0.8850600000000001  1.0000
  O   O277      1.0  0.4255600000000001  0.36122  0.8464000000000003  1.0000
  O   O278      1.0  0.50027  0.3421900000000001  0.87296  1.0000
  H   H69       1.0  0.48427000000000003  0.3731100000000001  0.83056  1.0000
  C   C202      1.0  0.44338  0.69055  0.83557  1.0000
  O   O279      1.0  0.39268000000000003  0.67049  0.7802400000000002  1.0000
  O   O280      1.0  0.4728900000000001  0.6843500000000002  0.8178800000000002  1.0000
  H   H70       1.0  0.44764  0.6624  0.75687  1.0000
  C   C203      1.0  0.9366300000000002  0.79894  0.8223800000000002  1.0000
  O   O281      1.0  0.8837100000000002  0.81547  0.7627200000000002  1.0000
  O   O282      1.0  0.96537  0.8040000000000003  0.8031900000000002  1.0000
  H   H71       1.0  0.9376499999999999  0.8220400000000002  0.73735  1.0000
  C   C204      1.0  0.9449  0.18843000000000004  0.8386  1.0000
  O   O283      1.0  0.89478  0.16759000000000004  0.78441  1.0000
  O   O284      1.0  0.97458  0.18202000000000004  0.8212400000000001  1.0000
  H   H72       1.0  0.9499500000000002  0.15925  0.7614500000000002  1.0000
