data_image0
_chemical_formula_structural       C120H8O52Zn16CO2HCO2HCO2HCO2HCO2HCO2HCO2HCO2HSO3HSO3HSO3HSO3HSO3HSO3HSO3HSO3HCO2HCO2HCO2HCO2HSO3HSO3HSO3HSO3HCO2HCO2HCO2HCO2HCO2HCO2HCO2HCO2HSO3HSO3HSO3HSO3HSO3HSO3HSO3HSO3HCO2HCO2HCO2HCO2HCO2HCO2HCO2HCO2HSO3HSO3HSO3HSO3HCO2HCO2HCO2HCO2HCO2HCO2HCO2HCO2HCO2HCO2HCO2HCO2H
_chemical_formula_sum              "C160 H72 O204 Zn16 S24"
_cell_length_a       26.09334
_cell_length_b       26.14192
_cell_length_c       18.27654
_cell_angle_alpha    89.85041
_cell_angle_beta     134.63506000000004
_cell_angle_gamma    90.28204

_space_group_name_H-M_alt    "P 1"
_space_group_IT_number       1

loop_
  _space_group_symop_operation_xyz
  'x, y, z'

loop_
  _atom_site_type_symbol
  _atom_site_label
  _atom_site_symmetry_multiplicity
  _atom_site_fract_x
  _atom_site_fract_y
  _atom_site_fract_z
  _atom_site_occupancy
  C   C1        1.0  0.89106  0.74889  0.50197  1.0000
  C   C2        1.0  0.89023  0.2508  0.50091  1.0000
  C   C3        1.0  0.3902400000000001  0.25006  0.5002500000000001  1.0000
  C   C4        1.0  0.39055  0.75102  0.50162  1.0000
  C   C5        1.0  0.46019000000000015  0.7982899999999999  0.9456700000000002  1.0000
  C   C6        1.0  0.46234  0.19974999999999998  0.94551  1.0000
  C   C7        1.0  0.9520600000000001  0.29558  0.9473000000000003  1.0000
  C   C8        1.0  0.96642  0.69821  0.9447300000000001  1.0000
  C   C9        1.0  0.44318  0.75212  0.8913000000000001  1.0000
  C   C10       1.0  0.44829000000000013  0.24521  0.8907300000000002  1.0000
  C   C11       1.0  0.9457000000000002  0.25328  0.8923800000000002  1.0000
  C   C12       1.0  0.9472100000000001  0.74458  0.88981  1.0000
  C   C13       1.0  0.4784300000000002  0.70718  0.9457200000000002  1.0000
  C   C14       1.0  0.4929400000000001  0.28689  0.9472000000000003  1.0000
  C   C15       1.0  0.99795  0.21515000000000004  0.9461  1.0000
  C   C16       1.0  0.9867  0.7874099999999999  0.9450200000000002  1.0000
  C   C17       1.0  0.5123700000000001  0.66945  0.9291000000000003  1.0000
  C   C18       1.0  0.5059700000000003  0.34065  0.9354200000000003  1.0000
  C   C19       1.0  0.04286000000000002  0.20012  0.92699  1.0000
  C   C20       1.0  0.9910900000000001  0.84195  0.9279900000000002  1.0000
  C   C21       1.0  0.58008  0.67611  0.04362  1.0000
  C   C22       1.0  0.56998  0.34055  0.054690000000000016  1.0000
  C   C23       1.0  0.10816000000000002  0.20876  0.04208000000000001  1.0000
  C   C24       1.0  0.05718  0.84345  0.0463  1.0000
  C   C25       1.0  0.48582000000000003  0.7627600000000001  0.4192300000000001  1.0000
  C   C26       1.0  0.4905900000000001  0.23041  0.42531000000000013  1.0000
  C   C27       1.0  0.9850900000000004  0.25879  0.4173500000000001  1.0000
  C   C28       1.0  0.99356  0.7245199999999999  0.43082000000000004  1.0000
  C   C29       1.0  0.55776  0.75243  0.50675  1.0000
  C   C30       1.0  0.55954  0.24755  0.51025  1.0000
  C   C31       1.0  0.05764999999999999  0.25255  0.50643  1.0000
  C   C32       1.0  0.05929000000000006  0.7482  0.5096700000000001  1.0000
  C   C33       1.0  0.57707  0.74502  0.6009700000000001  1.0000
  C   C34       1.0  0.57456  0.26678  0.59621  1.0000
  C   C35       1.0  0.07732000000000003  0.24996  0.6015300000000001  1.0000
  C   C36       1.0  0.07315000000000006  0.76977  0.5934100000000001  1.0000
  C   C37       1.0  0.52273  0.74608  0.60199  1.0000
  C   C38       1.0  0.51947  0.26662  0.59459  1.0000
  C   C39       1.0  0.02267000000000008  0.25207  0.6020800000000001  1.0000
  C   C40       1.0  0.01967000000000005  0.76698  0.5948200000000001  1.0000
  C   C41       1.0  0.4493500000000001  0.7538799999999999  0.5081900000000001  1.0000
  C   C42       1.0  0.448  0.25141  0.50327  1.0000
  C   C43       1.0  0.94876  0.25397  0.5069  1.0000
  C   C44       1.0  0.9500500000000001  0.7471299999999998  0.5075800000000001  1.0000
  C   C45       1.0  0.61063  0.7501400000000001  0.50093  1.0000
  C   C46       1.0  0.6120600000000003  0.24873  0.5036800000000001  1.0000
  C   C47       1.0  0.11064999999999997  0.25016  0.50093  1.0000
  C   C48       1.0  0.11177  0.74914  0.5031  1.0000
  C   C49       1.0  0.43453000000000014  0.76249  0.4202700000000001  1.0000
  C   C50       1.0  0.43379000000000006  0.23817999999999998  0.416  1.0000
  C   C51       1.0  0.9334999999999999  0.2578  0.41776  1.0000
  C   C52       1.0  0.9376  0.72715  0.4248300000000001  1.0000
  C   C53       1.0  0.37306  0.76954  0.30705  1.0000
  C   C54       1.0  0.39468  0.19204  0.34843  1.0000
  C   C55       1.0  0.87219  0.26013  0.3035000000000001  1.0000
  C   C56       1.0  0.9132000000000002  0.67382  0.38099000000000005  1.0000
  C   C57       1.0  0.4315100000000001  0.76979  0.30442  1.0000
  C   C58       1.0  0.4648100000000001  0.1774  0.37982  1.0000
  C   C59       1.0  0.93122  0.26114  0.3021  1.0000
  C   C60       1.0  0.97997  0.66918  0.3995500000000001  1.0000
  C   C61       1.0  0.7777800000000001  0.52609  0.47334  1.0000
  C   C62       1.0  0.7814600000000002  0.47412  0.47963  1.0000
  C   C63       1.0  0.2791000000000001  0.02785  0.4763300000000001  1.0000
  C   C64       1.0  0.2876400000000001  0.9755  0.4874700000000001  1.0000
  C   C65       1.0  0.74237  0.55423  0.4915100000000001  1.0000
  C   C66       1.0  0.7447900000000001  0.4455299999999999  0.49518  1.0000
  C   C67       1.0  0.24273000000000008  0.05457  0.4936500000000001  1.0000
  C   C68       1.0  0.24932000000000004  0.94605  0.50056  1.0000
  C   C69       1.0  0.69976  0.52689  0.5006800000000001  1.0000
  C   C70       1.0  0.70021  0.47212  0.50108  1.0000
  C   C71       1.0  0.21002000000000007  0.02677  0.5188200000000001  1.0000
  C   C72       1.0  0.21187000000000009  0.97232  0.5199700000000002  1.0000
  C   C73       1.0  0.85191  0.47201  0.50919  1.0000
  C   C74       1.0  0.8423700000000001  0.53129  0.48887  1.0000
  C   C75       1.0  0.30745000000000006  0.97427  0.42662  1.0000
  C   C76       1.0  0.27581000000000006  0.02923  0.39086000000000004  1.0000
  C   C77       1.0  0.8110400000000002  0.97336  0.5392  1.0000
  C   C78       1.0  0.8100100000000001  0.0259  0.53719  1.0000
  C   C79       1.0  0.31127  0.47397  0.53953  1.0000
  C   C80       1.0  0.30857  0.52684  0.5324  1.0000
  C   C81       1.0  0.7529  0.9449  0.50868  1.0000
  C   C82       1.0  0.7496900000000001  0.05347  0.50048  1.0000
  C   C83       1.0  0.2525  0.44545  0.50794  1.0000
  C   C84       1.0  0.24757  0.55365  0.49404  1.0000
  C   C85       1.0  0.69597  0.97122  0.48566000000000004  1.0000
  C   C86       1.0  0.69152  0.02492  0.47313  1.0000
  C   C87       1.0  0.19289000000000006  0.47195  0.47717000000000004  1.0000
  C   C88       1.0  0.18737  0.52514  0.45992  1.0000
  C   C89       1.0  0.75073  0.88957  0.50091  1.0000
  C   C90       1.0  0.74985  0.10989  0.49876  1.0000
  C   C91       1.0  0.25067  0.38974  0.50136  1.0000
  C   C92       1.0  0.24943000000000012  0.60997  0.4975100000000001  1.0000
  C   C93       1.0  0.86287  0.030029999999999998  0.5276100000000001  1.0000
  C   C94       1.0  0.8632300000000003  0.96905  0.52845  1.0000
  C   C95       1.0  0.34872000000000003  0.52849  0.50056  1.0000
  C   C96       1.0  0.3601  0.46894  0.5228  1.0000
  C   C97       1.0  0.74857  0.61001  0.4984600000000001  1.0000
  C   C98       1.0  0.75022  0.38994000000000006  0.5002600000000001  1.0000
  C   C99       1.0  0.24688000000000002  0.11019  0.49699000000000004  1.0000
  C   C100      1.0  0.25068  0.89008  0.50056  1.0000
  C   C101      1.0  0.8903300000000002  0.7485399999999999  0.7791900000000003  1.0000
  C   C102      1.0  0.89003  0.25086  0.7799300000000002  1.0000
  C   C103      1.0  0.39042  0.24896  0.77958  1.0000
  C   C104      1.0  0.3895900000000001  0.7506  0.7795600000000003  1.0000
  C   C105      1.0  0.61108  0.7509  0.22006000000000006  1.0000
  C   C106      1.0  0.61161  0.24887  0.22033  1.0000
  C   C107      1.0  0.11213  0.2519  0.2203  1.0000
  C   C108      1.0  0.11154000000000003  0.74896  0.21998000000000006  1.0000
  C   C109      1.0  0.53642  0.70847  0.05145  1.0000
  C   C110      1.0  0.54758  0.28649  0.05064000000000001  1.0000
  C   C111      1.0  0.05604  0.21789  0.05219  1.0000
  C   C112      1.0  0.041880000000000014  0.7879399999999999  0.04829  1.0000
  C   C113      1.0  0.55598  0.75326  0.10760000000000003  1.0000
  C   C114      1.0  0.55982  0.24501  0.10895  1.0000
  C   C115      1.0  0.05968000000000002  0.25652  0.10833000000000002  1.0000
  C   C116      1.0  0.06022000000000001  0.7449999999999999  0.10804  1.0000
  C   C117      1.0  0.51694  0.7989  0.05438000000000001  1.0000
  C   C118      1.0  0.5182  0.19968  0.055180000000000014  1.0000
  C   C119      1.0  0.010490000000000005  0.29804  0.055370000000000016  1.0000
  C   C120      1.0  0.02470000000000001  0.69786  0.054620000000000016  1.0000
  H   H1        1.0  0.5180200000000001  0.6838400000000001  0.8777200000000002  1.0000
  H   H2        1.0  0.5218400000000002  0.34181  0.8927400000000002  1.0000
  H   H3        1.0  0.03825000000000003  0.22795  0.87655  1.0000
  H   H4        1.0  0.0040400000000000704  0.84668  0.8819700000000001  1.0000
  H   H5        1.0  0.3465100000000001  0.807  0.2893200000000001  1.0000
  H   H6        1.0  0.37649  0.16669  0.37486  1.0000
  H   H7        1.0  0.84199  0.29646  0.27941  1.0000
  H   H8        1.0  0.9133000000000001  0.6478600000000001  0.4291500000000001  1.0000
  O   O1        1.0  0.7500300000000001  0.75003  0.5  1.0000
  O   O2        1.0  0.7500300000000001  0.24997  0.5  1.0000
  O   O3        1.0  0.25003  0.25003  0.5  1.0000
  O   O4        1.0  0.25003  0.74997  0.5  1.0000
  O   O5        1.0  0.6893100000000002  0.86583  0.4392900000000001  1.0000
  O   O6        1.0  0.6893100000000002  0.13417  0.4392900000000001  1.0000
  O   O7        1.0  0.18931000000000006  0.36583  0.4392900000000001  1.0000
  O   O8        1.0  0.18931000000000006  0.63417  0.4392900000000001  1.0000
  O   O9        1.0  0.75002  0.6342199999999999  0.43927  1.0000
  O   O10       1.0  0.75002  0.36578  0.43927  1.0000
  O   O11       1.0  0.25002  0.13422  0.43927  1.0000
  O   O12       1.0  0.25002  0.86578  0.43927  1.0000
  O   O13       1.0  0.8961699999999999  0.78039  0.5607  1.0000
  O   O14       1.0  0.8961699999999999  0.21960999999999997  0.5607  1.0000
  O   O15       1.0  0.39617  0.28039  0.5607  1.0000
  O   O16       1.0  0.39617  0.71961  0.5607  1.0000
  O   O17       1.0  0.66461  0.71967  0.56074  1.0000
  O   O18       1.0  0.66461  0.28033  0.56074  1.0000
  O   O19       1.0  0.16461  0.21967  0.56074  1.0000
  O   O20       1.0  0.16461  0.78033  0.56074  1.0000
  O   O21       1.0  0.8354400000000001  0.71966  0.4392600000000001  1.0000
  O   O22       1.0  0.8354400000000001  0.28034  0.4392600000000001  1.0000
  O   O23       1.0  0.3354400000000001  0.21965999999999997  0.4392600000000001  1.0000
  O   O24       1.0  0.3354400000000001  0.78034  0.4392600000000001  1.0000
  O   O25       1.0  0.60388  0.78039  0.4393  1.0000
  O   O26       1.0  0.60388  0.21960999999999997  0.4393  1.0000
  O   O27       1.0  0.10388  0.28039  0.4393  1.0000
  O   O28       1.0  0.10388  0.71961  0.4393  1.0000
  O   O29       1.0  0.8107500000000002  0.86583  0.5607200000000001  1.0000
  O   O30       1.0  0.8107500000000002  0.13417  0.5607200000000001  1.0000
  O   O31       1.0  0.3107500000000001  0.36583  0.5607200000000001  1.0000
  O   O32       1.0  0.3107500000000001  0.63417  0.5607200000000001  1.0000
  O   O33       1.0  0.7500300000000001  0.63423  0.5607200000000001  1.0000
  O   O34       1.0  0.7500300000000001  0.36577  0.5607200000000001  1.0000
  O   O35       1.0  0.25003000000000003  0.13423  0.5607200000000001  1.0000
  O   O36       1.0  0.25003000000000003  0.86577  0.5607200000000001  1.0000
  O   O37       1.0  0.89619  0.7804000000000001  0.7316000000000003  1.0000
  O   O38       1.0  0.89619  0.2196  0.7316000000000003  1.0000
  O   O39       1.0  0.3961900000000001  0.2804  0.7316000000000003  1.0000
  O   O40       1.0  0.3961900000000001  0.7196  0.7316000000000003  1.0000
  O   O41       1.0  0.66457  0.71965  0.26839  1.0000
  O   O42       1.0  0.66457  0.28035  0.26839  1.0000
  O   O43       1.0  0.16457  0.21965  0.26839  1.0000
  O   O44       1.0  0.16457  0.78035  0.26839  1.0000
  O   O45       1.0  0.8354800000000002  0.71968  0.73161  1.0000
  O   O46       1.0  0.8354800000000002  0.28032  0.73161  1.0000
  O   O47       1.0  0.33548000000000006  0.21968  0.73161  1.0000
  O   O48       1.0  0.33548000000000006  0.78032  0.73161  1.0000
  O   O49       1.0  0.60386  0.78038  0.2684000000000001  1.0000
  O   O50       1.0  0.6038600000000002  0.21962  0.2684000000000001  1.0000
  O   O51       1.0  0.10386000000000004  0.28038  0.2684000000000001  1.0000
  O   O52       1.0  0.10386000000000004  0.71962  0.2684000000000001  1.0000
  Zn  Zn1       1.0  0.6632800000000001  0.7934000000000001  0.41325  1.0000
  Zn  Zn2       1.0  0.6632800000000001  0.2066  0.41325  1.0000
  Zn  Zn3       1.0  0.16328  0.2934  0.41325  1.0000
  Zn  Zn4       1.0  0.16328  0.7066  0.41325  1.0000
  Zn  Zn5       1.0  0.8367800000000002  0.7934099999999998  0.5867500000000001  1.0000
  Zn  Zn6       1.0  0.8367800000000002  0.20659000000000002  0.5867500000000001  1.0000
  Zn  Zn7       1.0  0.3367800000000001  0.29341  0.5867500000000001  1.0000
  Zn  Zn8       1.0  0.3367800000000001  0.70659  0.5867500000000001  1.0000
  Zn  Zn9       1.0  0.7500300000000001  0.70665  0.58676  1.0000
  Zn  Zn10      1.0  0.7500300000000001  0.29335  0.58676  1.0000
  Zn  Zn11      1.0  0.25003  0.20665  0.58676  1.0000
  Zn  Zn12      1.0  0.25003  0.79335  0.58676  1.0000
  Zn  Zn13      1.0  0.75001  0.70664  0.41323000000000004  1.0000
  Zn  Zn14      1.0  0.75001  0.29336  0.41323000000000004  1.0000
  Zn  Zn15      1.0  0.25001000000000007  0.20663999999999996  0.41323000000000004  1.0000
  Zn  Zn16      1.0  0.25001000000000007  0.79336  0.41323000000000004  1.0000
  C   C121      1.0  0.54197  0.84852  0.11014000000000002  1.0000
  O   O53       1.0  0.60478  0.8616399999999999  0.16533000000000003  1.0000
  O   O54       1.0  0.49408  0.8800499999999999  0.09973  1.0000
  H   H9        1.0  0.5178000000000001  0.91263  0.14169  1.0000
  C   C122      1.0  0.53708  0.15123  0.11202  1.0000
  O   O55       1.0  0.59718  0.13306  0.16451000000000005  1.0000
  O   O56       1.0  0.48692000000000013  0.12717  0.10739  1.0000
  H   H10       1.0  0.50639  0.0947  0.14982000000000004  1.0000
  C   C123      1.0  0.02608000000000002  0.3471699999999999  0.10951000000000002  1.0000
  O   O57       1.0  0.08675000000000001  0.36551  0.16801000000000002  1.0000
  O   O58       1.0  0.97145  0.37306  0.09179  1.0000
  H   H11       1.0  0.9889400000000002  0.4061600000000001  0.13218000000000002  1.0000
  C   C124      1.0  0.05368000000000002  0.64802  0.11046000000000003  1.0000
  O   O59       1.0  0.11872000000000005  0.64215  0.18177000000000004  1.0000
  O   O60       1.0  0.007270000000000001  0.60707  0.07869  1.0000
  H   H12       1.0  0.03384000000000001  0.5737  0.11268000000000002  1.0000
  C   C125      1.0  0.3192  0.72604  0.25252  1.0000
  O   O61       1.0  0.3249000000000001  0.69002  0.3007000000000001  1.0000
  O   O62       1.0  0.26146  0.7279399999999999  0.14571  1.0000
  H   H13       1.0  0.22818000000000008  0.69727  0.11713000000000001  1.0000
  C   C126      1.0  0.33502  0.20639  0.23643000000000006  1.0000
  O   O63       1.0  0.32693  0.25085  0.20910000000000006  1.0000
  O   O64       1.0  0.29393  0.16756  0.1634  1.0000
  H   H14       1.0  0.26176  0.18026  0.09028000000000001  1.0000
  C   C127      1.0  0.82299  0.21404000000000004  0.25535  1.0000
  O   O65       1.0  0.83192  0.17961  0.3086700000000001  1.0000
  O   O66       1.0  0.76641  0.21123999999999998  0.14844  1.0000
  H   H15       1.0  0.73665  0.17888  0.12442000000000002  1.0000
  C   C128      1.0  0.8437200000000001  0.6728300000000002  0.26861000000000007  1.0000
  O   O67       1.0  0.8234  0.71096  0.21542  1.0000
  O   O68       1.0  0.8081300000000001  0.6261600000000002  0.22340000000000004  1.0000
  H   H16       1.0  0.76831  0.62761  0.14588000000000004  1.0000
  S   S1        1.0  0.43761  0.83108  0.26608  1.0000
  O   O69       1.0  0.3648  0.84534  0.16366000000000006  1.0000
  O   O70       1.0  0.46137000000000006  0.8707700000000002  0.34437  1.0000
  O   O71       1.0  0.49644000000000016  0.82918  0.2552900000000001  1.0000
  H   H17       1.0  0.5158100000000001  0.8644099999999999  0.27048000000000005  1.0000
  S   S2        1.0  0.51384  0.12892  0.48024  1.0000
  O   O72       1.0  0.59318  0.13975  0.5550500000000002  1.0000
  O   O73       1.0  0.49315  0.13082  0.5389  1.0000
  O   O74       1.0  0.49785000000000007  0.06934  0.4333200000000001  1.0000
  H   H18       1.0  0.45325  0.07132  0.35938  1.0000
  S   S3        1.0  0.93202  0.32096  0.25434  1.0000
  O   O75       1.0  0.85861  0.33055  0.14901000000000003  1.0000
  O   O76       1.0  0.9506500000000001  0.36362  0.32486  1.0000
  O   O77       1.0  0.9922500000000002  0.31948999999999994  0.24632000000000004  1.0000
  H   H19       1.0  0.022580000000000003  0.3504  0.28311  1.0000
  S   S4        1.0  0.045960000000000056  0.6271999999999999  0.5072100000000002  1.0000
  O   O78       1.0  0.11533  0.62864  0.53455  1.0000
  O   O79       1.0  0.06096999999999998  0.64455  0.59913  1.0000
  O   O80       1.0  0.014840000000000029  0.56676  0.47980000000000006  1.0000
  H   H20       1.0  0.9800700000000002  0.56378  0.40416000000000013  1.0000
  S   S5        1.0  0.4299900000000001  0.71711  0.23920000000000005  1.0000
  O   O81       1.0  0.36559  0.72231  0.1254  1.0000
  O   O82       1.0  0.49688000000000004  0.7175699999999999  0.26006  1.0000
  O   O83       1.0  0.42478  0.66079  0.27845000000000003  1.0000
  H   H21       1.0  0.46679  0.66044  0.3539300000000001  1.0000
  S   S6        1.0  0.45950000000000013  0.16515  0.27652  1.0000
  O   O84       1.0  0.5299  0.14612  0.31815  1.0000
  O   O85       1.0  0.40325  0.1252  0.20433  1.0000
  O   O86       1.0  0.43825  0.21951  0.21086000000000002  1.0000
  H   H22       1.0  0.43936  0.21049  0.15937  1.0000
  S   S7        1.0  0.93658  0.20641  0.24782000000000004  1.0000
  O   O87       1.0  0.87096  0.20447  0.13393  1.0000
  O   O88       1.0  0.00257000000000002  0.21035  0.26671000000000006  1.0000
  O   O89       1.0  0.94144  0.15243  0.30273000000000005  1.0000
  H   H23       1.0  0.9444500000000002  0.12447  0.26944  1.0000
  S   S8        1.0  0.96477  0.65686  0.28734000000000004  1.0000
  O   O90       1.0  0.034050000000000025  0.64597  0.3182200000000001  1.0000
  O   O91       1.0  0.91602  0.61132  0.22897000000000006  1.0000
  O   O92       1.0  0.92698  0.70833  0.20982  1.0000
  H   H24       1.0  0.92267  0.6993599999999999  0.15304  1.0000
  C   C129      1.0  0.65178  0.55555  0.50276  1.0000
  O   O93       1.0  0.65588  0.54921  0.57302  1.0000
  O   O94       1.0  0.6035600000000001  0.59128  0.42566  1.0000
  H   H25       1.0  0.57518  0.6094  0.43668  1.0000
  C   C130      1.0  0.6516200000000003  0.44265  0.5015300000000001  1.0000
  O   O95       1.0  0.6567900000000001  0.44687999999999994  0.5730900000000001  1.0000
  O   O96       1.0  0.60177  0.40843  0.42144  1.0000
  H   H26       1.0  0.57278  0.38964  0.4311  1.0000
  C   C131      1.0  0.16624  0.0542  0.53036  1.0000
  O   O97       1.0  0.17836000000000002  0.04834  0.60774  1.0000
  O   O98       1.0  0.11216000000000005  0.08770999999999998  0.4532500000000001  1.0000
  H   H27       1.0  0.08688000000000003  0.10483  0.4704100000000001  1.0000
  C   C132      1.0  0.16737000000000002  0.94321  0.52882  1.0000
  O   O99       1.0  0.18232000000000004  0.94422  0.6089300000000001  1.0000
  O   O100      1.0  0.10972  0.91341  0.44610000000000005  1.0000
  H   H28       1.0  0.08431000000000008  0.89454  0.4617900000000001  1.0000
  S   S9        1.0  0.85006  0.43110999999999994  0.4280200000000001  1.0000
  O   O101      1.0  0.86994  0.37806  0.4714500000000001  1.0000
  O   O102      1.0  0.7764500000000002  0.42988  0.32010000000000005  1.0000
  O   O103      1.0  0.9117000000000001  0.45033  0.42824  1.0000
  H   H29       1.0  0.8979900000000001  0.43293  0.3684700000000001  1.0000
  S   S10       1.0  0.8115  0.55383  0.37006000000000006  1.0000
  O   O104      1.0  0.86603  0.54359  0.36623  1.0000
  O   O105      1.0  0.7413  0.52874  0.27932  1.0000
  O   O106      1.0  0.79946  0.61721  0.3627700000000001  1.0000
  H   H30       1.0  0.74948  0.6234600000000001  0.29657  1.0000
  S   S11       1.0  0.26891  0.92875  0.32654  1.0000
  O   O107      1.0  0.19273000000000007  0.91664  0.27090000000000003  1.0000
  O   O108      1.0  0.27113  0.94981  0.25219  1.0000
  O   O109      1.0  0.3184100000000001  0.8752100000000002  0.37798  1.0000
  H   H31       1.0  0.35963000000000006  0.8819  0.38621  1.0000
  S   S12       1.0  0.18152000000000001  0.03552  0.26919000000000004  1.0000
  O   O110      1.0  0.16999000000000003  0.01885  0.17993  1.0000
  O   O111      1.0  0.1347  0.0038399999999999997  0.27201  1.0000
  O   O112      1.0  0.15533  0.09668999999999998  0.24987000000000006  1.0000
  H   H32       1.0  0.10376000000000005  0.09657  0.18425000000000005  1.0000
  C   C133      1.0  0.9152900000000003  0.45751  0.6213300000000003  1.0000
  O   O113      1.0  0.90609  0.44412  0.67564  1.0000
  O   O114      1.0  0.9849300000000003  0.45932  0.6621800000000002  1.0000
  H   H33       1.0  0.022920000000000024  0.44879  0.73714  1.0000
  C   C134      1.0  0.9036500000000001  0.56412  0.5791900000000001  1.0000
  O   O115      1.0  0.90111  0.58293  0.63773  1.0000
  O   O116      1.0  0.96454  0.57174  0.59661  1.0000
  H   H34       1.0  0.0023699999999999945  0.59368  0.65946  1.0000
  C   C135      1.0  0.38931000000000004  0.9717700000000001  0.5004900000000001  1.0000
  O   O117      1.0  0.42746000000000006  0.9598599999999999  0.59066  1.0000
  O   O118      1.0  0.42078  0.98159  0.4638600000000001  1.0000
  H   H35       1.0  0.4751600000000002  0.97837  0.5193600000000002  1.0000
  C   C136      1.0  0.32216000000000006  0.06662  0.3963600000000001  1.0000
  O   O119      1.0  0.36171000000000003  0.09663  0.46796  1.0000
  O   O120      1.0  0.32049000000000005  0.06457  0.31836  1.0000
  H   H36       1.0  0.3562000000000001  0.08815  0.3300300000000001  1.0000
  C   C137      1.0  0.6445300000000002  0.94296  0.48261000000000004  1.0000
  O   O121      1.0  0.5795100000000002  0.94711  0.40919  1.0000
  O   O122      1.0  0.6715100000000002  0.91041  0.56389  1.0000
  H   H37       1.0  0.63194  0.8924700000000001  0.55278  1.0000
  C   C138      1.0  0.6247200000000002  0.04954  0.42907000000000006  1.0000
  O   O123      1.0  0.6249100000000001  0.07679999999999998  0.48305  1.0000
  O   O124      1.0  0.56112  0.03930000000000001  0.32693  1.0000
  H   H38       1.0  0.51659  0.05225  0.30795000000000006  1.0000
  C   C139      1.0  0.13544  0.4439  0.4605  1.0000
  O   O125      1.0  0.07316000000000004  0.44422  0.37624  1.0000
  O   O126      1.0  0.15389000000000003  0.41542  0.54104  1.0000
  H   H39       1.0  0.11096  0.39703  0.52028  1.0000
  C   C140      1.0  0.11465000000000003  0.54707  0.38804  1.0000
  O   O127      1.0  0.0806  0.54863  0.41081  1.0000
  O   O128      1.0  0.08216999999999999  0.56001  0.28919  1.0000
  H   H40       1.0  0.028570000000000022  0.5661  0.24063000000000004  1.0000
  S   S13       1.0  0.9445100000000001  0.06233  0.6397700000000001  1.0000
  O   O129      1.0  0.9546  0.05336  0.7303600000000001  1.0000
  O   O130      1.0  0.009570000000000009  0.04353  0.6646100000000001  1.0000
  O   O131      1.0  0.9407400000000002  0.12569  0.62283  1.0000
  H   H41       1.0  0.9660800000000003  0.13212  0.60138  1.0000
  S   S14       1.0  0.9472100000000001  0.93761  0.6386200000000002  1.0000
  O   O132      1.0  0.002900000000000074  0.94655  0.6361900000000003  1.0000
  O   O133      1.0  0.97502  0.95673  0.73867  1.0000
  O   O134      1.0  0.9373300000000002  0.8741299999999999  0.6359600000000002  1.0000
  H   H42       1.0  0.9609500000000002  0.86439  0.7062200000000002  1.0000
  S   S15       1.0  0.4274200000000001  0.57022  0.58177  1.0000
  O   O135      1.0  0.40997000000000006  0.62148  0.53194  1.0000
  O   O136      1.0  0.45197999999999994  0.57874  0.68368  1.0000
  O   O137      1.0  0.49555  0.54616  0.60077  1.0000
  H   H43       1.0  0.47628000000000004  0.54319  0.53108  1.0000
  S   S16       1.0  0.44852  0.44776  0.64219  1.0000
  O   O138      1.0  0.50017  0.44751  0.63074  1.0000
  O   O139      1.0  0.4773500000000001  0.48141  0.7308900000000002  1.0000
  O   O140      1.0  0.44443000000000005  0.38789  0.6713000000000001  1.0000
  H   H44       1.0  0.4899800000000001  0.38322  0.7443  1.0000
  S   S17       1.0  0.8244400000000002  0.06315  0.4107900000000001  1.0000
  O   O141      1.0  0.82234  0.11959  0.42317  1.0000
  O   O142      1.0  0.87037  0.05433  0.39045000000000013  1.0000
  O   O143      1.0  0.73943  0.04446  0.30881  1.0000
  H   H45       1.0  0.72475  0.06394  0.25002  1.0000
  S   S18       1.0  0.82339  0.93597  0.4108000000000001  1.0000
  O   O144      1.0  0.85971  0.95244  0.37763000000000013  1.0000
  O   O145      1.0  0.8336800000000002  0.8792099999999999  0.4287000000000001  1.0000
  O   O146      1.0  0.73445  0.94691  0.31480000000000014  1.0000
  H   H46       1.0  0.71087  0.91932  0.31961  1.0000
  S   S19       1.0  0.28798  0.54953  0.36703  1.0000
  O   O147      1.0  0.2732900000000001  0.60573  0.3602800000000001  1.0000
  O   O148      1.0  0.32165  0.54111  0.32712  1.0000
  O   O149      1.0  0.20819000000000001  0.51916  0.29159  1.0000
  H   H47       1.0  0.1788  0.53441  0.22252000000000002  1.0000
  S   S20       1.0  0.32766  0.42639  0.4187000000000001  1.0000
  O   O150      1.0  0.35553  0.44396  0.37364  1.0000
  O   O151      1.0  0.35555  0.3733699999999999  0.4597000000000001  1.0000
  O   O152      1.0  0.23732999999999999  0.42287  0.32582  1.0000
  H   H48       1.0  0.2262000000000001  0.40025  0.2727200000000001  1.0000
  C   C141      1.0  0.42601000000000006  0.84712  0.8890200000000001  1.0000
  O   O153      1.0  0.38560000000000005  0.86926  0.8905200000000002  1.0000
  O   O154      1.0  0.4385800000000002  0.86671  0.8315100000000002  1.0000
  H   H49       1.0  0.41133  0.89959  0.79466  1.0000
  C   C142      1.0  0.42378000000000005  0.1515  0.8888600000000001  1.0000
  O   O155      1.0  0.38721000000000017  0.12984  0.8985300000000003  1.0000
  O   O156      1.0  0.4279700000000001  0.13177  0.8221600000000001  1.0000
  H   H50       1.0  0.39851  0.09931999999999999  0.78644  1.0000
  C   C143      1.0  0.9044700000000001  0.34065  0.8919600000000002  1.0000
  O   O157      1.0  0.8552  0.34703999999999996  0.8858500000000002  1.0000
  O   O158      1.0  0.9156400000000001  0.37511  0.84564  1.0000
  H   H51       1.0  0.87928  0.40393  0.8090200000000002  1.0000
  C   C144      1.0  0.9300400000000002  0.6500499999999999  0.8870600000000002  1.0000
  O   O159      1.0  0.8811100000000002  0.63302  0.87574  1.0000
  O   O160      1.0  0.9511200000000004  0.6248  0.8445200000000003  1.0000
  H   H52       1.0  0.92243  0.59228  0.8072200000000003  1.0000
  C   C145      1.0  0.47626  0.61719  0.89558  1.0000
  O   O161      1.0  0.4215  0.61044  0.87653  1.0000
  O   O162      1.0  0.50459  0.57623  0.88461  1.0000
  H   H53       1.0  0.5483500000000001  0.58632  0.8985700000000001  1.0000
  C   C146      1.0  0.44505  0.37699  0.89102  1.0000
  O   O163      1.0  0.39038  0.36203  0.8670600000000002  1.0000
  O   O164      1.0  0.45157000000000014  0.4281499999999999  0.8761500000000002  1.0000
  H   H54       1.0  0.40757  0.44906  0.84508  1.0000
  C   C147      1.0  0.02689000000000013  0.1464  0.8851700000000002  1.0000
  O   O165      1.0  0.98411  0.11921  0.87527  1.0000
  O   O166      1.0  0.061010000000000106  0.12733  0.8570900000000002  1.0000
  H   H55       1.0  0.09665000000000001  0.15246  0.87091  1.0000
  C   C148      1.0  0.92436  0.87131  0.88265  1.0000
  O   O167      1.0  0.8960200000000001  0.86457  0.9139700000000002  1.0000
  O   O168      1.0  0.8944100000000001  0.90572  0.8026300000000001  1.0000
  H   H56       1.0  0.84938  0.92275  0.7769000000000001  1.0000
  S   S21       1.0  0.64575  0.71437  0.06146  1.0000
  O   O169      1.0  0.70744  0.72612  0.17353000000000005  1.0000
  O   O170      1.0  0.67153  0.6861699999999998  0.02091  1.0000
  O   O171      1.0  0.6083500000000002  0.76974  0.9967500000000002  1.0000
  H   H57       1.0  0.64782  0.78888  0.01202  1.0000
  S   S22       1.0  0.65516  0.34377  0.09318000000000003  1.0000
  O   O172      1.0  0.6642  0.39623  0.06964  1.0000
  O   O173      1.0  0.71635  0.33393999999999996  0.20631000000000005  1.0000
  O   O174      1.0  0.65749  0.30057  0.027500000000000004  1.0000
  H   H58       1.0  0.64789  0.2672  0.04175  1.0000
  S   S23       1.0  0.15412  0.26711  0.061540000000000004  1.0000
  O   O175      1.0  0.21073  0.28048  0.17396  1.0000
  O   O176      1.0  0.18778  0.26028  0.021290000000000007  1.0000
  O   O177      1.0  0.09495000000000005  0.31552  0.9966900000000001  1.0000
  H   H59       1.0  0.12467000000000002  0.34639  0.0171  1.0000
  S   S24       1.0  0.13875  0.85072  0.07577  1.0000
  O   O178      1.0  0.14864  0.90607  0.06576  1.0000
  O   O179      1.0  0.20263  0.83246  0.18261  1.0000
  O   O180      1.0  0.13359000000000013  0.81651  0.9928700000000001  1.0000
  H   H60       1.0  0.12988  0.78039  0.005230000000000001  1.0000
  C   C149      1.0  0.61032  0.6281099999999998  0.1082  1.0000
  O   O181      1.0  0.64221  0.5973  0.10199000000000003  1.0000
  O   O182      1.0  0.6010600000000001  0.61854  0.17370000000000002  1.0000
  H   H61       1.0  0.62331  0.585  0.21210000000000007  1.0000
  C   C150      1.0  0.56521  0.37801  0.11289  1.0000
  O   O183      1.0  0.55089  0.36314  0.16039  1.0000
  O   O184      1.0  0.57758  0.43002  0.11223000000000002  1.0000
  H   H62       1.0  0.57357  0.4514  0.15423000000000006  1.0000
  C   C151      1.0  0.15983  0.16469  0.10822  1.0000
  O   O185      1.0  0.20785  0.17005  0.20135000000000006  1.0000
  O   O186      1.0  0.15643  0.11912  0.06525  1.0000
  H   H63       1.0  0.19675  0.09468  0.11841  1.0000
  C   C152      1.0  0.05034000000000001  0.87963  0.10333000000000003  1.0000
  O   O187      1.0  0.05228  0.86361  0.16818  1.0000
  O   O188      1.0  0.03967000000000001  0.93169  0.07909000000000002  1.0000
  H   H64       1.0  0.029870000000000004  0.95159  0.11565  1.0000
  C   C153      1.0  0.6539400000000001  0.74031  0.6987400000000002  1.0000
  O   O189      1.0  0.6945700000000005  0.77681  0.7313200000000002  1.0000
  O   O190      1.0  0.6801200000000002  0.69378  0.75151  1.0000
  H   H65       1.0  0.73357  0.69518  0.81632  1.0000
  C   C154      1.0  0.6491900000000002  0.28088  0.69225  1.0000
  O   O191      1.0  0.6964700000000001  0.24846  0.7392800000000002  1.0000
  O   O192      1.0  0.6652200000000001  0.33131  0.7277700000000003  1.0000
  H   H66       1.0  0.71757  0.3361  0.79444  1.0000
  C   C155      1.0  0.15452000000000002  0.2492  0.69944  1.0000
  O   O193      1.0  0.19281000000000018  0.28613  0.7239000000000002  1.0000
  O   O194      1.0  0.18372000000000005  0.20568  0.7617  1.0000
  H   H67       1.0  0.23709000000000013  0.20955  0.8256800000000002  1.0000
  C   C156      1.0  0.1459400000000001  0.7891500000000001  0.6854200000000003  1.0000
  O   O195      1.0  0.19531  0.7590299999999999  0.74435  1.0000
  O   O196      1.0  0.15780000000000008  0.84179  0.7034600000000002  1.0000
  H   H68       1.0  0.20965999999999999  0.85036  0.76796  1.0000
  C   C157      1.0  0.5429400000000002  0.74299  0.7009300000000003  1.0000
  O   O197      1.0  0.5807199999999999  0.70809  0.76111  1.0000
  O   O198      1.0  0.51725  0.7797499999999999  0.72398  1.0000
  H   H69       1.0  0.533  0.77304  0.79201  1.0000
  C   C158      1.0  0.5394900000000002  0.27553  0.6924900000000003  1.0000
  O   O199      1.0  0.5657000000000003  0.31643  0.7374200000000002  1.0000
  O   O200      1.0  0.52784  0.23692  0.7326400000000001  1.0000
  H   H70       1.0  0.54277  0.2476  0.79874  1.0000
  C   C159      1.0  0.042330000000000104  0.25826  0.7002700000000001  1.0000
  O   O201      1.0  0.08895000000000006  0.23167  0.7747  1.0000
  O   O202      1.0  0.007260000000000097  0.29517  0.7072300000000002  1.0000
  H   H71       1.0  0.025930000000000005  0.2968  0.778  1.0000
  C   C160      1.0  0.04034000000000007  0.77797  0.69283  1.0000
  O   O203      1.0  0.07008000000000006  0.81827  0.7384700000000001  1.0000
  O   O204      1.0  0.02639999999999998  0.74154  0.7333  1.0000
  H   H72       1.0  0.042240000000000014  0.7533600000000001  0.79949  1.0000
