data_image0
_chemical_formula_structural       O4C2O8C4Cu4O4C34H4C6H4C16H2C10H6O4C2O8C4Cu4O4C2O4C2O4C2Cu4O8C20H4C6H4C10H2OCH2CH2CH3OCH2CH2CH3OCH2CH2CH3OCH2CH2CH3OCH2CH2CH3OCH2CH2CH3OCH2CH2CH3OCH2CH2CH3OCH2CH2CH3OCH2CH2CH3NO2NO3CH2CH2CH3OCH2CH2CH3OCH2CH2CH3OCH2CH2CH3NO2NO3CH2CH2CH3OCH2CH2CH3OCH2CH2CH3OCH2CH2CH3OCH2CH2CH3OCH2CH2CH3OCH2CH2CH3OCH2CH2CH3OCH2CH2CH3OCH2CH2CH3NO2NO2NO2NO3CH2CH2CH3OCH2CH2CH3OCH2CH2CH3OCH2CH2CH3NO2NO2NO2NO2NO2NO2NO2NO2NO2NO2
_chemical_formula_sum              "O112 C204 Cu12 H222 N18"
_cell_length_a       30.28132
_cell_length_b       21.50179
_cell_length_c       21.44951
_cell_angle_alpha    89.23671
_cell_angle_beta     134.97867
_cell_angle_gamma    90.85788999999998

_symmetry_space_group_name_H-M    'P 1'
_symmetry_Int_Tables_number       1

loop_
  _symmetry_equiv_pos_as_xyz
  'x,y,z'

loop_
  _atom_site_type_symbol
  _atom_site_label
  _atom_site_symmetry_multiplicity
  _atom_site_fract_x
  _atom_site_fract_y
  _atom_site_fract_z
  _atom_site_occupancy
  O   O1        1.0  0.09158  0.5  0.14458  1.0000
  O   O2        1.0  0.59158  0.0  0.14458  1.0000
  O   O3        1.0  0.09157000000000003  0.5  0.038570000000000014  1.0000
  O   O4        1.0  0.59157  0.0  0.038570000000000014  1.0000
  C   C1        1.0  0.12015000000000006  0.4982  0.12030000000000003  1.0000
  C   C2        1.0  0.62013  0.9983  0.12033  1.0000
  O   O5        1.0  0.9999900000000003  0.59157  0.05299  1.0000
  O   O6        1.0  0.9999900000000003  0.40842999999999996  0.05299  1.0000
  O   O7        1.0  0.49999  0.09157  0.05299  1.0000
  O   O8        1.0  0.49999  0.9084299999999998  0.05299  1.0000
  O   O9        1.0  0.9999900000000003  0.59157  0.94699  1.0000
  O   O10       1.0  0.9999900000000003  0.40842999999999996  0.94699  1.0000
  O   O11       1.0  0.49999  0.09157  0.94699  1.0000
  O   O12       1.0  0.49999  0.9084299999999998  0.94699  1.0000
  C   C3        1.0  0.99919  0.6201799999999998  0.9988900000000002  1.0000
  C   C4        1.0  0.0004199999999999996  0.37985  0.00102  1.0000
  C   C5        1.0  0.4998600000000001  0.1202  0.9995100000000002  1.0000
  C   C6        1.0  0.4996600000000001  0.8798899999999998  0.00037  1.0000
  Cu  Cu1       1.0  4.582953387703857e-18  0.5  0.06277  1.0000
  Cu  Cu2       1.0  0.5  0.0  0.06277  1.0000
  Cu  Cu3       1.0  2.538956176787937e-16  0.5  0.9372300000000002  1.0000
  Cu  Cu4       1.0  0.5000000000000002  0.0  0.9372300000000002  1.0000
  O   O13       1.0  0.9084300000000003  0.5  0.9614300000000002  1.0000
  O   O14       1.0  0.40843000000000024  0.0  0.9614300000000002  1.0000
  O   O15       1.0  0.9084200000000002  0.5  0.85542  1.0000
  O   O16       1.0  0.40842  0.0  0.85542  1.0000
  C   C7        1.0  0.87962  0.4993  0.87968  1.0000
  C   C8        1.0  0.3796200000000001  0.99994  0.8797300000000002  1.0000
  C   C9        1.0  0.04318  0.73133  0.00641  1.0000
  C   C10       1.0  0.048630000000000013  0.27194  0.01619  1.0000
  C   C11       1.0  0.5394600000000003  0.23136999999999996  0.9966300000000001  1.0000
  C   C12       1.0  0.54758  0.77245  0.01579  1.0000
  C   C13       1.0  0.9875100000000002  0.7736  0.9346  1.0000
  C   C14       1.0  0.9943400000000002  0.23160999999999995  0.9371600000000002  1.0000
  C   C15       1.0  0.48181  0.27247  0.92801  1.0000
  C   C16       1.0  0.49343  0.732  0.9368  1.0000
  C   C17       1.0  0.9999100000000002  0.81191  0.006080000000000002  1.0000
  C   C18       1.0  0.0006999999999999998  0.18844  0.00133  1.0000
  C   C19       1.0  0.49986  0.3118  0.00285  1.0000
  C   C20       1.0  0.5002  0.68847  0.0011700000000000005  1.0000
  C   C21       1.0  0.05541  0.76912  0.07795  1.0000
  C   C22       1.0  0.05385  0.22988999999999998  0.07939  1.0000
  C   C23       1.0  0.55722  0.27026  0.07127  1.0000
  C   C24       1.0  0.553  0.7302399999999999  0.07919  1.0000
  C   C25       1.0  0.009779999999999997  0.7263699999999998  0.06907  1.0000
  C   C26       1.0  0.006310000000000005  0.2694  0.06694  1.0000
  C   C27       1.0  0.51714  0.22747999999999993  0.07377  1.0000
  C   C28       1.0  0.5050600000000001  0.76936  0.06629  1.0000
  C   C29       1.0  0.9545500000000005  0.76797  0.9965100000000002  1.0000
  C   C30       1.0  0.95319  0.22839  0.9888400000000003  1.0000
  C   C31       1.0  0.4596300000000001  0.26821  0.00433  1.0000
  C   C32       1.0  0.4523900000000002  0.72796  0.9885300000000001  1.0000
  C   C33       1.0  0.9414800000000002  0.72971  0.9242  1.0000
  C   C34       1.0  0.9455600000000002  0.27154  0.92333  1.0000
  C   C35       1.0  0.4404800000000001  0.22890999999999997  0.9282200000000003  1.0000
  C   C36       1.0  0.44439000000000023  0.7713399999999999  0.9228500000000002  1.0000
  C   C37       1.0  0.9980600000000002  0.6882699999999999  0.99775  1.0000
  C   C38       1.0  0.0007900000000000012  0.31184  0.003200000000000001  1.0000
  C   C39       1.0  0.49925000000000014  0.18831  0.99846  1.0000
  C   C40       1.0  0.4994200000000001  0.81193  0.00245  1.0000
  H   H1        1.0  0.8950700000000001  0.71215  0.8628000000000002  1.0000
  H   H2        1.0  0.90109  0.29108  0.8615200000000001  1.0000
  H   H3        1.0  0.3929900000000001  0.21027  0.8714200000000002  1.0000
  H   H4        1.0  0.3998800000000001  0.79038  0.8604000000000002  1.0000
  C   C41       1.0  0.22882  0.46210999999999997  0.18176  1.0000
  C   C42       1.0  0.22859000000000007  0.55601  0.22373000000000007  1.0000
  C   C43       1.0  0.72868  0.9568999999999998  0.18640000000000007  1.0000
  C   C44       1.0  0.72851  0.05524  0.21721000000000004  1.0000
  C   C45       1.0  0.2699700000000001  0.52121  0.21858000000000005  1.0000
  C   C46       1.0  0.7699400000000001  0.015169999999999998  0.21655  1.0000
  H   H5        1.0  0.21139000000000002  0.43435  0.12462  1.0000
  H   H6        1.0  0.2121200000000001  0.60411  0.20362000000000005  1.0000
  H   H7        1.0  0.7110600000000002  0.9249499999999999  0.13251  1.0000
  H   H8        1.0  0.71007  0.10226  0.1907  1.0000
  C   C47       1.0  0.31172  0.49785  0.31348  1.0000
  C   C48       1.0  0.8116200000000002  0.99787  0.31377  1.0000
  C   C49       1.0  0.26996  0.43905  0.27759  1.0000
  C   C50       1.0  0.26943  0.53101  0.31829  1.0000
  C   C51       1.0  0.76972  0.94009  0.28439  1.0000
  C   C52       1.0  0.7692700000000001  0.03636  0.3142200000000001  1.0000
  C   C53       1.0  0.22875000000000006  0.4721099999999999  0.28422  1.0000
  C   C54       1.0  0.72857  0.9786199999999999  0.28678000000000003  1.0000
  C   C55       1.0  0.18826  0.4964099999999999  0.18931  1.0000
  C   C56       1.0  0.6882200000000003  0.9966699999999997  0.18955000000000005  1.0000
  C   C57       1.0  0.77034  0.54152  0.72998  1.0000
  C   C58       1.0  0.7684600000000004  0.44411  0.7534200000000002  1.0000
  C   C59       1.0  0.27040000000000014  0.05037  0.7408200000000003  1.0000
  C   C60       1.0  0.26943  0.94987  0.74193  1.0000
  C   C61       1.0  0.72811  0.48595999999999995  0.67067  1.0000
  C   C62       1.0  0.2292300000000001  0.99993  0.66971  1.0000
  H   H9        1.0  0.70867  0.4742499999999999  0.60495  1.0000
  H   H10       1.0  0.21164000000000008  0.9982699999999999  0.60362  1.0000
  C   C63       1.0  0.68853  0.50072  0.68924  1.0000
  C   C64       1.0  0.18874  0.00041999999999999996  0.68916  1.0000
  C   C65       1.0  0.73001  0.55736  0.74667  1.0000
  C   C66       1.0  0.7281000000000003  0.45762  0.7706000000000002  1.0000
  C   C67       1.0  0.22949000000000006  0.05192  0.75917  1.0000
  C   C68       1.0  0.22843  0.9490399999999998  0.7599  1.0000
  C   C69       1.0  0.77083  0.51393  0.82872  1.0000
  C   C70       1.0  0.27038000000000023  0.00047999999999999947  0.8303000000000003  1.0000
  C   C71       1.0  0.8110900000000002  0.49918  0.81143  1.0000
  C   C72       1.0  0.31109  0.00010000000000000007  0.81163  1.0000
  H   H11       1.0  0.71308  0.60426  0.7421800000000002  1.0000
  H   H12       1.0  0.7103100000000002  0.42156  0.78588  1.0000
  H   H13       1.0  0.21139000000000022  0.09327  0.7655000000000002  1.0000
  H   H14       1.0  0.20986000000000013  0.9071399999999997  0.7660200000000003  1.0000
  H   H15       1.0  0.7889300000000002  0.52517  0.89383  1.0000
  H   H16       1.0  0.2883000000000001  0.0005699999999999998  0.89675  1.0000
  O   O17       1.0  0.94702  0.0  0.85552  1.0000
  O   O18       1.0  0.44702000000000003  0.5  0.85552  1.0000
  O   O19       1.0  0.05302000000000004  0.0  0.96155  1.0000
  O   O20       1.0  0.55302  0.5  0.96155  1.0000
  C   C73       1.0  0.0002300000000000957  0.99777  0.8800200000000002  1.0000
  C   C74       1.0  0.5001500000000002  0.49793  0.8799400000000003  1.0000
  O   O21       1.0  0.9470100000000002  0.9084199999999998  0.94707  1.0000
  O   O22       1.0  0.9470100000000002  0.09157999999999998  0.94707  1.0000
  O   O23       1.0  0.44701000000000013  0.4084199999999999  0.94707  1.0000
  O   O24       1.0  0.44701000000000013  0.59158  0.94707  1.0000
  O   O25       1.0  0.053010000000000015  0.9084299999999998  0.05311  1.0000
  O   O26       1.0  0.053010000000000015  0.09157  0.05311  1.0000
  O   O27       1.0  0.5530100000000002  0.40842999999999996  0.05311  1.0000
  O   O28       1.0  0.5530100000000002  0.59157  0.05311  1.0000
  C   C75       1.0  0.9998900000000002  0.87994  0.00334  1.0000
  C   C76       1.0  0.00023999999999999995  0.12025  4e-05  1.0000
  C   C77       1.0  0.49988000000000005  0.37985  0.00161  1.0000
  C   C78       1.0  0.50017  0.62027  7e-05  1.0000
  Cu  Cu5       1.0  0.9372400000000003  0.0  0.9373000000000002  1.0000
  Cu  Cu6       1.0  0.43724000000000024  0.5  0.9373000000000002  1.0000
  Cu  Cu7       1.0  0.06276  0.0  0.06286  1.0000
  Cu  Cu8       1.0  0.56276  0.5  0.06286  1.0000
  O   O29       1.0  0.9469700000000002  0.0  0.03862  1.0000
  O   O30       1.0  0.4469700000000001  0.5  0.03862  1.0000
  O   O31       1.0  0.05298  0.0  0.14465  1.0000
  O   O32       1.0  0.5529800000000002  0.5  0.14465  1.0000
  C   C79       1.0  0.99983  0.00082  0.12032  1.0000
  C   C80       1.0  0.4999000000000001  0.50066  0.12023000000000003  1.0000
  O   O33       1.0  0.49999000000000005  0.55297  0.4084800000000001  1.0000
  O   O34       1.0  0.49999000000000005  0.44703  0.4084800000000001  1.0000
  O   O35       1.0  0.9999900000000004  0.05297  0.4084800000000001  1.0000
  O   O36       1.0  0.9999900000000004  0.94703  0.4084800000000001  1.0000
  C   C81       1.0  0.5013800000000002  0.50046  0.38113000000000014  1.0000
  C   C82       1.0  0.0007500000000000086  0.00033  0.38054  1.0000
  O   O37       1.0  0.40842  0.55299  0.40849  1.0000
  O   O38       1.0  0.40842  0.44701  0.40849  1.0000
  O   O39       1.0  0.9084200000000002  0.05299  0.40849  1.0000
  O   O40       1.0  0.9084200000000002  0.9470099999999999  0.40849  1.0000
  C   C83       1.0  0.3798700000000001  0.4995499999999999  0.38103  1.0000
  C   C84       1.0  0.8798500000000001  0.9995499999999999  0.3812700000000001  1.0000
  Cu  Cu9       1.0  0.49999  0.56276  0.50006  1.0000
  Cu  Cu10      1.0  0.49999  0.43724  0.50006  1.0000
  Cu  Cu11      1.0  0.9999900000000003  0.06276  0.50006  1.0000
  Cu  Cu12      1.0  0.9999900000000003  0.93724  0.50006  1.0000
  O   O41       1.0  0.5000000000000002  0.5530299999999999  0.5916400000000003  1.0000
  O   O42       1.0  0.5000000000000002  0.44697  0.5916400000000003  1.0000
  O   O43       1.0  1.0724110927227026e-16  0.05303  0.5916400000000003  1.0000
  O   O44       1.0  1.6498632195733888e-16  0.94697  0.5916400000000003  1.0000
  O   O45       1.0  0.59157  0.55301  0.5916400000000003  1.0000
  O   O46       1.0  0.59157  0.44698999999999994  0.5916400000000003  1.0000
  O   O47       1.0  0.09157000000000018  0.053009999999999995  0.5916400000000003  1.0000
  O   O48       1.0  0.09157000000000017  0.9469899999999998  0.5916400000000003  1.0000
  C   C85       1.0  0.4976000000000001  0.49946999999999997  0.61755  1.0000
  C   C86       1.0  0.9982200000000003  0.9994299999999999  0.61819  1.0000
  C   C87       1.0  0.6202300000000002  0.50024  0.62085  1.0000
  C   C88       1.0  0.12030000000000018  0.00017999999999999923  0.6205800000000002  1.0000
  C   C89       1.0  0.03177000000000009  0.044590000000000005  0.8005900000000002  1.0000
  C   C90       1.0  0.027170000000000017  0.9429  0.7954  1.0000
  C   C91       1.0  0.5319900000000001  0.54429  0.8006900000000002  1.0000
  C   C92       1.0  0.52539  0.44278  0.79353  1.0000
  C   C93       1.0  0.55597  0.49263999999999997  0.7822900000000003  1.0000
  C   C94       1.0  0.057069999999999996  0.9933499999999997  0.78367  1.0000
  C   C95       1.0  0.4965100000000001  0.49764  0.68421  1.0000
  C   C96       1.0  0.9976200000000004  0.9973599999999999  0.68533  1.0000
  C   C97       1.0  0.47143  0.55002  0.70075  1.0000
  C   C98       1.0  0.46502000000000004  0.44655  0.69333  1.0000
  C   C99       1.0  0.9712100000000004  0.049079999999999985  0.70048  1.0000
  C   C100      1.0  0.96692  0.9456599999999998  0.6950500000000002  1.0000
  C   C101      1.0  0.9422400000000002  0.9972299999999998  0.71291  1.0000
  C   C102      1.0  0.44158000000000003  0.49872  0.71248  1.0000
  C   C103      1.0  0.001260000000000095  0.99395  0.8126700000000002  1.0000
  C   C104      1.0  0.5007600000000002  0.49428  0.8121400000000002  1.0000
  H   H17       1.0  0.4467700000000002  0.5918  0.65821  1.0000
  H   H18       1.0  0.43647000000000014  0.40696  0.6477800000000002  1.0000
  H   H19       1.0  0.9454400000000004  0.09014999999999998  0.65676  1.0000
  H   H20       1.0  0.9392200000000002  0.9055399999999999  0.65018  1.0000
  C   C105      1.0  0.030010000000000002  0.9499099999999999  0.25929  1.0000
  C   C106      1.0  0.029650000000000003  0.05385999999999999  0.25814  1.0000
  C   C107      1.0  0.49844000000000016  0.44172  0.22806000000000007  1.0000
  C   C108      1.0  0.5534  0.53006  0.28060000000000007  1.0000
  C   C109      1.0  0.55084  0.47118  0.31988  1.0000
  C   C110      1.0  0.058540000000000064  0.00201  0.3279200000000001  1.0000
  H   H21       1.0  0.05348000000000001  0.9084  0.26385  1.0000
  H   H22       1.0  0.05350000000000005  0.09621999999999999  0.26335000000000003  1.0000
  H   H23       1.0  0.49616  0.39330999999999994  0.20855  1.0000
  H   H24       1.0  0.59525  0.55413  0.303  1.0000
  C   C111      1.0  0.5024100000000001  0.50167  0.3136600000000001  1.0000
  C   C112      1.0  0.0008199999999999939  0.00098  0.31218  1.0000
  C   C113      1.0  0.44999  0.47431  0.22099000000000005  1.0000
  C   C114      1.0  0.50359  0.55983  0.2725500000000001  1.0000
  C   C115      1.0  0.97128  0.95059  0.24217  1.0000
  C   C116      1.0  0.9709  0.051259999999999986  0.24111000000000005  1.0000
  C   C117      1.0  0.9395100000000002  0.0007799999999999993  0.16956  1.0000
  C   C118      1.0  0.4498600000000001  0.53333  0.17878000000000005  1.0000
  C   C119      1.0  0.9994000000000002  0.0016599999999999998  0.18837  1.0000
  C   C120      1.0  0.49984  0.50146  0.18832000000000004  1.0000
  H   H25       1.0  0.8910700000000001  3.0000000000000008e-05  0.1029  1.0000
  H   H26       1.0  0.4079600000000001  0.5578099999999999  0.11905  1.0000
  O   O49       1.0  0.98304  0.8032399999999998  0.87103  1.0000
  C   C121      1.0  0.9274300000000002  0.7874199999999999  0.78423  1.0000
  H   H27       1.0  0.9190800000000002  0.82448  0.74032  1.0000
  H   H28       1.0  0.88586  0.78745  0.77387  1.0000
  C   C122      1.0  0.93444  0.7253699999999998  0.75764  1.0000
  H   H29       1.0  0.9784500000000003  0.72606  0.77408  1.0000
  H   H30       1.0  0.9369700000000002  0.68662  0.79481  1.0000
  C   C123      1.0  0.8797500000000004  0.71363  0.65915  1.0000
  H   H31       1.0  0.8349800000000004  0.71444  0.6405200000000002  1.0000
  H   H32       1.0  0.8849500000000005  0.66742  0.6425400000000002  1.0000
  H   H33       1.0  0.8788600000000002  0.7496799999999998  0.62074  1.0000
  O   O50       1.0  0.9917500000000005  0.20729  0.87372  1.0000
  C   C124      1.0  0.94958  0.24076  0.79355  1.0000
  H   H34       1.0  0.9703200000000003  0.24572  0.7670800000000001  1.0000
  H   H35       1.0  0.9414300000000002  0.28943  0.80044  1.0000
  C   C125      1.0  0.8884200000000001  0.20399999999999996  0.7275200000000002  1.0000
  H   H36       1.0  0.89797  0.15809  0.71599  1.0000
  H   H37       1.0  0.8687200000000003  0.19562999999999997  0.75515  1.0000
  C   C126      1.0  0.84078  0.23848  0.63998  1.0000
  H   H38       1.0  0.8294700000000005  0.28389  0.6498700000000002  1.0000
  H   H39       1.0  0.79729  0.21028  0.59337  1.0000
  H   H40       1.0  0.85942  0.24646  0.61078  1.0000
  O   O51       1.0  0.4699200000000002  0.30187  0.8579500000000002  1.0000
  C   C127      1.0  0.41826000000000013  0.27503  0.7757600000000002  1.0000
  H   H41       1.0  0.40404000000000023  0.30819  0.7241000000000002  1.0000
  H   H42       1.0  0.3769900000000001  0.26971  0.7657  1.0000
  C   C128      1.0  0.43571  0.2133  0.7629  1.0000
  H   H43       1.0  0.4789400000000002  0.21984999999999993  0.7779700000000003  1.0000
  H   H44       1.0  0.44471  0.17755  0.80853  1.0000
  C   C129      1.0  0.38352000000000014  0.18994  0.6685900000000002  1.0000
  H   H45       1.0  0.33947000000000016  0.18453  0.6513800000000001  1.0000
  H   H46       1.0  0.3963600000000002  0.14409999999999998  0.6621600000000002  1.0000
  H   H47       1.0  0.37610000000000016  0.22314  0.6218100000000001  1.0000
  O   O52       1.0  0.4881700000000001  0.7094399999999998  0.87019  1.0000
  C   C130      1.0  0.45984000000000014  0.75425  0.80225  1.0000
  H   H48       1.0  0.48627000000000004  0.7564599999999999  0.7842  1.0000
  H   H49       1.0  0.46137  0.8026399999999999  0.82193  1.0000
  C   C131      1.0  0.3926100000000001  0.7343199999999999  0.72104  1.0000
  H   H50       1.0  0.3928600000000001  0.6886599999999999  0.6975600000000002  1.0000
  H   H51       1.0  0.36603  0.7286999999999999  0.7387  1.0000
  C   C132      1.0  0.35985000000000006  0.7820299999999999  0.64675  1.0000
  H   H52       1.0  0.35903  0.8280399999999999  0.66884  1.0000
  H   H53       1.0  0.311  0.7667199999999998  0.58945  1.0000
  H   H54       1.0  0.38432  0.78665  0.62566  1.0000
  O   O53       1.0  0.20020000000000002  0.44626999999999994  0.30969  1.0000
  C   C133      1.0  0.24483  0.42764  0.39915  1.0000
  H   H55       1.0  0.23796000000000012  0.45598  0.4346300000000001  1.0000
  H   H56       1.0  0.2943000000000001  0.43462999999999996  0.43369000000000013  1.0000
  C   C134      1.0  0.23319000000000004  0.3594  0.40543000000000007  1.0000
  H   H57       1.0  0.18556000000000003  0.35417999999999994  0.37799  1.0000
  H   H58       1.0  0.23557000000000006  0.33018  0.36557  1.0000
  C   C135      1.0  0.2809  0.33623  0.50067  1.0000
  H   H59       1.0  0.32892000000000016  0.34032  0.52933  1.0000
  H   H60       1.0  0.2712700000000001  0.28659999999999997  0.50263  1.0000
  H   H61       1.0  0.27782  0.36356  0.54104  1.0000
  O   O54       1.0  0.69935  0.96059  0.3142000000000001  1.0000
  C   C136      1.0  0.74304  0.94099  0.40315  1.0000
  H   H62       1.0  0.73696  0.9703299999999998  0.43886  1.0000
  H   H63       1.0  0.7927800000000002  0.94641  0.43829  1.0000
  C   C137      1.0  0.7287400000000003  0.8734399999999999  0.40765  1.0000
  H   H64       1.0  0.68033  0.8700499999999999  0.37787  1.0000
  H   H65       1.0  0.73157  0.8433  0.36897  1.0000
  C   C138      1.0  0.77398  0.84976  0.5024700000000001  1.0000
  H   H66       1.0  0.82288  0.85357  0.5343100000000002  1.0000
  H   H67       1.0  0.7634  0.80019  0.5029400000000002  1.0000
  H   H68       1.0  0.76892  0.87699  0.54069  1.0000
  O   O55       1.0  0.7962500000000005  0.5854299999999999  0.7135200000000003  1.0000
  C   C139      1.0  0.74862  0.61592  0.63187  1.0000
  H   H69       1.0  0.75953  0.66651  0.64248  1.0000
  H   H70       1.0  0.70098  0.61071  0.60496  1.0000
  C   C140      1.0  0.74802  0.59312  0.56394  1.0000
  H   H71       1.0  0.7950600000000002  0.5998099999999998  0.58998  1.0000
  H   H72       1.0  0.73658  0.5427299999999999  0.55168  1.0000
  C   C141      1.0  0.70016  0.6282099999999999  0.47681  1.0000
  H   H73       1.0  0.6525300000000003  0.6209499999999999  0.44869  1.0000
  H   H74       1.0  0.701  0.6107299999999999  0.42918  1.0000
  H   H75       1.0  0.71133  0.67876  0.48683  1.0000
  O   O56       1.0  0.79013  0.38389  0.76155  1.0000
  C   C142      1.0  0.74197  0.34968  0.68414  1.0000
  H   H76       1.0  0.7432  0.36023  0.6346  1.0000
  H   H77       1.0  0.6946400000000005  0.36067999999999995  0.6553900000000003  1.0000
  C   C143      1.0  0.75222  0.28018  0.7046  1.0000
  H   H78       1.0  0.7994900000000001  0.26763999999999993  0.7356200000000003  1.0000
  H   H79       1.0  0.7483000000000002  0.26903  0.75124  1.0000
  C   C144      1.0  0.7041800000000004  0.24164  0.6211400000000002  1.0000
  H   H80       1.0  0.65622  0.25249999999999995  0.58931  1.0000
  H   H81       1.0  0.7129400000000001  0.1914  0.6382800000000002  1.0000
  H   H82       1.0  0.7077900000000004  0.25142  0.5739000000000002  1.0000
  O   O57       1.0  0.29832000000000014  0.10109999999999998  0.7363200000000002  1.0000
  C   C145      1.0  0.25466  0.14875  0.68047  1.0000
  H   H83       1.0  0.28197  0.19226  0.69972  1.0000
  H   H84       1.0  0.22360000000000002  0.15809  0.68976  1.0000
  C   C146      1.0  0.21595  0.13533  0.5832  1.0000
  H   H85       1.0  0.24647000000000005  0.11614  0.57683  1.0000
  H   H86       1.0  0.17888000000000018  0.10066  0.5575000000000001  1.0000
  C   C147      1.0  0.18452000000000007  0.19396  0.5267000000000001  1.0000
  H   H87       1.0  0.15338000000000004  0.21369  0.5316  1.0000
  H   H88       1.0  0.1561  0.1823  0.45673000000000014  1.0000
  H   H89       1.0  0.22017000000000006  0.22932  0.54843  1.0000
  O   O58       1.0  0.2947100000000001  0.89704  0.7383700000000002  1.0000
  C   C148      1.0  0.2467900000000001  0.85932  0.66526  1.0000
  H   H90       1.0  0.25906  0.8499799999999998  0.62824  1.0000
  H   H91       1.0  0.19960000000000008  0.8809999999999999  0.6176  1.0000
  C   C149      1.0  0.24340000000000006  0.79736  0.69747  1.0000
  H   H92       1.0  0.2895800000000002  0.7744099999999998  0.7420700000000002  1.0000
  H   H93       1.0  0.23130000000000014  0.80578  0.7349200000000002  1.0000
  C   C150      1.0  0.19462  0.754  0.62052  1.0000
  H   H94       1.0  0.14764999999999995  0.7754399999999999  0.5755  1.0000
  H   H95       1.0  0.19332000000000005  0.7094499999999999  0.64597  1.0000
  H   H96       1.0  0.20659000000000005  0.7440299999999997  0.5832  1.0000
  N   N1        1.0  0.61776  0.48752999999999996  0.81603  1.0000
  O   O59       1.0  0.66153  0.52773  0.87203  1.0000
  O   O60       1.0  0.6301900000000001  0.44032  0.7934600000000003  1.0000
  N   N2        1.0  0.11936  0.9893199999999999  0.81862  1.0000
  O   O61       1.0  0.16358  0.027339999999999996  0.87943  1.0000
  O   O62       1.0  0.1320800000000001  0.94443  0.79345  1.0000
  O   O63       1.0  0.07056  0.09245  0.86272  1.0000
  C   C151      1.0  0.06136000000000012  0.14901999999999999  0.8205900000000003  1.0000
  H   H97       1.0  0.07989999999999998  0.18663  0.86841  1.0000
  H   H98       1.0  0.011280000000000035  0.15963  0.76377  1.0000
  C   C152      1.0  0.09699000000000012  0.15156  0.7941600000000002  1.0000
  H   H99       1.0  0.14785  0.14764  0.85413  1.0000
  H   H100      1.0  0.08218000000000011  0.1126  0.7493000000000002  1.0000
  C   C153      1.0  0.08491999999999997  0.21247999999999997  0.74706  1.0000
  H   H101      1.0  0.03454  0.21655  0.68526  1.0000
  H   H102      1.0  0.1121100000000001  0.21349  0.7301000000000002  1.0000
  H   H103      1.0  0.0994100000000001  0.25276999999999994  0.79014  1.0000
  O   O64       1.0  0.05572000000000009  0.8844199999999998  0.8344500000000002  1.0000
  C   C154      1.0  0.09267999999999998  0.88258  0.92587  1.0000
  H   H104      1.0  0.10762  0.83361  0.94755  1.0000
  H   H105      1.0  0.06484000000000012  0.89328  0.9398600000000003  1.0000
  C   C155      1.0  0.15184000000000009  0.9232499999999999  0.9797500000000002  1.0000
  H   H106      1.0  0.17737  0.9119199999999997  0.96179  1.0000
  H   H107      1.0  0.13903000000000013  0.97308  0.9654400000000002  1.0000
  C   C156      1.0  0.19535  0.9132099999999999  0.07859000000000002  1.0000
  H   H108      1.0  0.16958999999999996  0.9179  0.09751  1.0000
  H   H109      1.0  0.2334900000000001  0.94846  0.11505000000000003  1.0000
  H   H110      1.0  0.21673000000000003  0.8665199999999997  0.09773000000000003  1.0000
  O   O65       1.0  0.5723100000000002  0.5907499999999999  0.8644800000000002  1.0000
  C   C157      1.0  0.5614400000000003  0.64879  0.82428  1.0000
  H   H111      1.0  0.5820100000000001  0.68469  0.8749100000000002  1.0000
  H   H112      1.0  0.5109900000000003  0.65968  0.7707000000000003  1.0000
  C   C158      1.0  0.5936000000000002  0.65427  0.79268  1.0000
  H   H113      1.0  0.6448500000000003  0.6495699999999999  0.8500200000000002  1.0000
  H   H114      1.0  0.5769  0.61689  0.74489  1.0000
  C   C159      1.0  0.5801900000000002  0.7169699999999999  0.7482200000000002  1.0000
  H   H115      1.0  0.5292500000000002  0.72208  0.68924  1.0000
  H   H116      1.0  0.6046600000000001  0.7200499999999999  0.72705  1.0000
  H   H117      1.0  0.59693  0.7555399999999999  0.7947200000000002  1.0000
  O   O66       1.0  0.5532800000000002  0.3841199999999999  0.83255  1.0000
  C   C160      1.0  0.59153  0.38312  0.92441  1.0000
  H   H118      1.0  0.6069700000000005  0.33444  0.9463800000000002  1.0000
  H   H119      1.0  0.5643100000000004  0.39338  0.9395800000000002  1.0000
  C   C161      1.0  0.6503600000000002  0.4243499999999999  0.9763400000000002  1.0000
  H   H120      1.0  0.67666  0.41062999999999994  0.9603800000000002  1.0000
  H   H121      1.0  0.6370900000000003  0.4738299999999999  0.9584700000000002  1.0000
  C   C162      1.0  0.69332  0.41930999999999996  0.07562  1.0000
  H   H122      1.0  0.66777  0.43151999999999996  0.09324000000000003  1.0000
  H   H123      1.0  0.7330700000000002  0.45233  0.10937000000000001  1.0000
  H   H124      1.0  0.71253  0.3718  0.09921000000000003  1.0000
  N   N3        1.0  0.8783100000000004  0.9975999999999999  0.6722500000000002  1.0000
  O   O67       1.0  0.8419800000000001  0.04425  0.62332  1.0000
  O   O68       1.0  0.85642  0.9498  0.68135  1.0000
  N   N4        1.0  0.3778100000000001  0.5005199999999999  0.6723  1.0000
  O   O69       1.0  0.34345  0.5492  0.62785  1.0000
  O   O70       1.0  0.35414  0.45230999999999993  0.67761  1.0000
  O   O71       1.0  0.60353  0.43934999999999996  0.39562  1.0000
  C   C163      1.0  0.64159  0.42229999999999995  0.3829  1.0000
  H   H125      1.0  0.6602600000000002  0.4643999999999999  0.37693  1.0000
  H   H126      1.0  0.6149200000000002  0.39339  0.32257  1.0000
  C   C164      1.0  0.6969800000000003  0.38481999999999994  0.4621600000000001  1.0000
  H   H127      1.0  0.7265400000000002  0.4149  0.52151  1.0000
  H   H128      1.0  0.67991  0.34451999999999994  0.47343  1.0000
  C   C165      1.0  0.7363500000000003  0.36111  0.4475800000000001  1.0000
  H   H129      1.0  0.70852  0.32859  0.39091  1.0000
  H   H130      1.0  0.7775  0.3360699999999999  0.50726  1.0000
  H   H131      1.0  0.7531  0.4005899999999999  0.43466  1.0000
  O   O72       1.0  0.11930000000000006  0.00358  0.41387  1.0000
  C   C166      1.0  0.1645900000000001  0.9978499999999999  0.4115200000000001  1.0000
  H   H132      1.0  0.20011000000000012  0.03512  0.4534300000000001  1.0000
  H   H133      1.0  0.14600999999999997  0.00394  0.34465  1.0000
  C   C167      1.0  0.1965900000000001  0.93476  0.44996000000000014  1.0000
  H   H134      1.0  0.21950000000000003  0.9314599999999998  0.51913  1.0000
  H   H135      1.0  0.1612600000000001  0.8968999999999999  0.4116400000000001  1.0000
  C   C168      1.0  0.24562  0.92594  0.44826  1.0000
  H   H136      1.0  0.22347000000000006  0.9273999999999998  0.3793300000000001  1.0000
  H   H137      1.0  0.26827000000000006  0.8800399999999999  0.4775000000000001  1.0000
  H   H138      1.0  0.28198000000000006  0.96292  0.4872100000000001  1.0000
  O   O73       1.0  0.08140000000000008  0.71315  0.9944  1.0000
  C   C169      1.0  0.13938  0.69092  0.07318  1.0000
  H   H139      1.0  0.15084  0.6493099999999999  0.05682  1.0000
  H   H140      1.0  0.1386  0.6752699999999999  0.12194  1.0000
  C   C170      1.0  0.18961000000000006  0.74062  0.1111  1.0000
  H   H141      1.0  0.19311000000000006  0.7497499999999999  0.06358  1.0000
  H   H142      1.0  0.17600000000000005  0.78453  0.12014000000000002  1.0000
  C   C171      1.0  0.25341  0.7210899999999999  0.19933  1.0000
  H   H143      1.0  0.25138  0.7119899999999999  0.24833  1.0000
  H   H144      1.0  0.2877400000000001  0.75913  0.22464000000000003  1.0000
  H   H145      1.0  0.2694900000000001  0.6787399999999999  0.19131  1.0000
  O   O74       1.0  0.10066  0.29901999999999995  0.03729  1.0000
  C   C172      1.0  0.11923000000000003  0.26159  0.00579  1.0000
  H   H146      1.0  0.09113000000000013  0.2748  0.9361600000000002  1.0000
  H   H147      1.0  0.11362  0.21085999999999996  0.010810000000000004  1.0000
  C   C173      1.0  0.18809  0.27342  0.06022000000000002  1.0000
  H   H148      1.0  0.19629  0.32397  0.06032  1.0000
  H   H149      1.0  0.21624  0.25781  0.12892  1.0000
  C   C174      1.0  0.20917000000000005  0.23759999999999998  0.02413  1.0000
  H   H150      1.0  0.20204000000000005  0.18682999999999997  0.0246  1.0000
  H   H151      1.0  0.25957000000000013  0.24664999999999998  0.06588  1.0000
  H   H152      1.0  0.18254000000000012  0.25278  0.9557400000000003  1.0000
  O   O75       1.0  0.57513  0.21288  0.9803600000000001  1.0000
  C   C175      1.0  0.63265  0.18669  0.055950000000000014  1.0000
  H   H153      1.0  0.63272  0.13725  0.04167  1.0000
  H   H154      1.0  0.64123  0.18702999999999997  0.11572  1.0000
  C   C176      1.0  0.68522  0.22136999999999998  0.07379  1.0000
  H   H155      1.0  0.68464  0.20865999999999998  0.02314  1.0000
  H   H156      1.0  0.67695  0.27184  0.06825  1.0000
  C   C177      1.0  0.7496000000000004  0.20839  0.16536  1.0000
  H   H157      1.0  0.7500100000000002  0.21641  0.21683  1.0000
  H   H158      1.0  0.78442  0.24023999999999995  0.17808  1.0000
  H   H159      1.0  0.7634500000000002  0.15996  0.16962  1.0000
  O   O76       1.0  0.59935  0.80024  0.03678  1.0000
  C   C178      1.0  0.61968  0.7623  0.00812  1.0000
  H   H160      1.0  0.59265  0.7746499999999998  0.93868  1.0000
  H   H161      1.0  0.61423  0.71165  0.01383  1.0000
  C   C179      1.0  0.6887300000000001  0.7748999999999999  0.06406  1.0000
  H   H162      1.0  0.6962700000000002  0.82518  0.06125000000000001  1.0000
  H   H163      1.0  0.71624  0.7618399999999999  0.13342000000000007  1.0000
  C   C180      1.0  0.7119100000000003  0.73703  0.03227  1.0000
  H   H164      1.0  0.70357  0.68658  0.03259  1.0000
  H   H165      1.0  0.76283  0.74486  0.07695  1.0000
  H   H166      1.0  0.6876300000000002  0.75152  0.96455  1.0000
  O   O77       1.0  0.39659000000000005  0.4463599999999999  0.19492000000000007  1.0000
  C   C181      1.0  0.35823  0.42147  0.10958  1.0000
  H   H167      1.0  0.3801700000000001  0.3791599999999999  0.11211000000000003  1.0000
  H   H168      1.0  0.3500700000000001  0.45593999999999996  0.06307  1.0000
  C   C182      1.0  0.29505  0.40348  0.07478000000000003  1.0000
  H   H169      1.0  0.30179  0.36773  0.11876000000000003  1.0000
  H   H170      1.0  0.27366  0.44507  0.07468000000000001  1.0000
  C   C183      1.0  0.2508100000000001  0.3779799999999999  0.9812300000000003  1.0000
  H   H171      1.0  0.24403000000000022  0.41285  0.9364300000000002  1.0000
  H   H172      1.0  0.20469  0.36746  0.95659  1.0000
  H   H173      1.0  0.26986  0.33463  0.98033  1.0000
  O   O78       1.0  0.51282  0.62074  0.30408  1.0000
  C   C184      1.0  0.45570000000000005  0.6526  0.24854  1.0000
  H   H174      1.0  0.4194700000000001  0.6248099999999999  0.23756  1.0000
  H   H175      1.0  0.43976  0.6629299999999999  0.18425  1.0000
  C   C185      1.0  0.46489000000000014  0.71389  0.29169  1.0000
  H   H176      1.0  0.48291000000000006  0.7043999999999999  0.35743  1.0000
  H   H177      1.0  0.4997900000000001  0.74302  0.30101  1.0000
  C   C186      1.0  0.40361  0.7491999999999999  0.23516  1.0000
  H   H178      1.0  0.38383000000000006  0.7577  0.16828000000000007  1.0000
  H   H179      1.0  0.41192000000000023  0.79462  0.26618000000000014  1.0000
  H   H180      1.0  0.36937000000000003  0.72192  0.22924000000000003  1.0000
  O   O79       1.0  0.9436600000000003  0.8968799999999998  0.24189  1.0000
  C   C187      1.0  0.9027300000000001  0.8676799999999998  0.15869000000000005  1.0000
  H   H181      1.0  0.9099400000000002  0.81669  0.16967000000000004  1.0000
  H   H182      1.0  0.91189  0.8806  0.11819  1.0000
  C   C188      1.0  0.8350000000000002  0.88139  0.10884000000000003  1.0000
  H   H183      1.0  0.82434  0.8593  0.14419  1.0000
  H   H184      1.0  0.8283700000000003  0.9323199999999999  0.1066  1.0000
  C   C189      1.0  0.7895  0.8567399999999998  0.01477  1.0000
  H   H185      1.0  0.79659  0.8816399999999998  0.97667  1.0000
  H   H186      1.0  0.7408300000000002  0.86444  0.9819900000000003  1.0000
  H   H187      1.0  0.7964  0.8061499999999999  0.01486  1.0000
  O   O80       1.0  0.9423300000000002  0.1026  0.24094  1.0000
  C   C190      1.0  0.90862  0.13730999999999996  0.16281000000000004  1.0000
  H   H188      1.0  0.8760000000000002  0.10708  0.10366000000000003  1.0000
  H   H189      1.0  0.9417000000000003  0.16136  0.16351  1.0000
  C   C191      1.0  0.8702400000000003  0.1861  0.15835000000000002  1.0000
  H   H190      1.0  0.8475700000000004  0.16407  0.17707000000000006  1.0000
  H   H191      1.0  0.9016900000000001  0.22382999999999997  0.20619  1.0000
  C   C192      1.0  0.81947  0.21373  0.06596000000000003  1.0000
  H   H192      1.0  0.83993  0.23419  0.04321  1.0000
  H   H193      1.0  0.7946800000000003  0.25083  0.06658000000000003  1.0000
  H   H194      1.0  0.785  0.1772  0.01878000000000001  1.0000
  N   N5        1.0  0.11625000000000003  0.7848799999999999  0.16579  1.0000
  O   O81       1.0  0.15003  0.74111  0.22436000000000006  1.0000
  O   O82       1.0  0.13251000000000004  0.84233  0.19121000000000005  1.0000
  N   N6        1.0  0.11145000000000005  0.20688  0.16466000000000006  1.0000
  O   O83       1.0  0.16531000000000004  0.22296999999999997  0.19511000000000006  1.0000
  O   O84       1.0  0.10914  0.1721  0.21238  1.0000
  N   N7        1.0  0.62005  0.29189  0.1495  1.0000
  O   O85       1.0  0.6481100000000002  0.27087  0.22712  1.0000
  O   O86       1.0  0.6504500000000003  0.32815  0.14146000000000006  1.0000
  N   N8        1.0  0.61058  0.7075  0.16468  1.0000
  O   O87       1.0  0.6644700000000001  0.72401  0.19552000000000005  1.0000
  O   O88       1.0  0.60822  0.67254  0.21224  1.0000
  O   O89       1.0  0.022290000000000004  0.6982599999999999  0.14014  1.0000
  C   C193      1.0  0.022529999999999988  0.74311  0.18796  1.0000
  H   H195      1.0  0.9740300000000002  0.7500499999999999  0.15624  1.0000
  H   H196      1.0  0.04213999999999998  0.78889  0.19188  1.0000
  C   C194      1.0  0.061860000000000054  0.71889  0.28166000000000013  1.0000
  H   H197      1.0  0.04216999999999999  0.6737999999999998  0.27907  1.0000
  H   H198      1.0  0.11039000000000002  0.71093  0.31383  1.0000
  C   C195      1.0  0.06333000000000007  0.76471  0.3368600000000001  1.0000
  H   H199      1.0  0.08451000000000003  0.8095399999999999  0.3425000000000001  1.0000
  H   H200      1.0  0.09188000000000006  0.74536  0.40409  1.0000
  H   H201      1.0  0.01539000000000005  0.77298  0.3065700000000001  1.0000
  O   O90       1.0  0.01826000000000003  0.29012999999999994  0.13995000000000005  1.0000
  C   C196      1.0  0.9622700000000002  0.30799  0.11316  1.0000
  H   H202      1.0  0.9393700000000001  0.26611999999999997  0.11087000000000002  1.0000
  H   H203      1.0  0.9292900000000002  0.33124  0.04727000000000001  1.0000
  C   C197      1.0  0.9776000000000002  0.35292999999999997  0.18095  1.0000
  H   H204      1.0  0.007949999999999999  0.32934  0.24615  1.0000
  H   H205      1.0  0.003410000000000004  0.39387  0.18732  1.0000
  C   C198      1.0  0.91847  0.37528  0.15412  1.0000
  H   H206      1.0  0.8878900000000002  0.39992999999999995  0.08969  1.0000
  H   H207      1.0  0.9312300000000002  0.40790999999999994  0.20454  1.0000
  H   H208      1.0  0.8924700000000001  0.33531  0.14906  1.0000
  O   O91       1.0  0.5382300000000001  0.19978  0.1511  1.0000
  C   C199      1.0  0.53145  0.24103999999999995  0.19449000000000005  1.0000
  H   H209      1.0  0.4825600000000001  0.23862  0.16284  1.0000
  H   H210      1.0  0.54338  0.29006  0.19305000000000005  1.0000
  C   C200      1.0  0.5745900000000003  0.22078999999999996  0.29071  1.0000
  H   H211      1.0  0.56736  0.17042  0.2937400000000001  1.0000
  H   H212      1.0  0.624  0.22816  0.32571  1.0000
  C   C201      1.0  0.5619  0.25731  0.3372100000000001  1.0000
  H   H213      1.0  0.56707  0.30794999999999995  0.33324  1.0000
  H   H214      1.0  0.5956  0.24335  0.40767  1.0000
  H   H215      1.0  0.51384  0.24753  0.30639  1.0000
  O   O92       1.0  0.51501  0.78925  0.13802000000000006  1.0000
  C   C202      1.0  0.4591  0.8121699999999997  0.10802000000000003  1.0000
  H   H216      1.0  0.43374  0.7734399999999999  0.10666  1.0000
  H   H217      1.0  0.42737  0.8330999999999998  0.040680000000000015  1.0000
  C   C203      1.0  0.47516  0.8616499999999999  0.17219000000000007  1.0000
  H   H218      1.0  0.4986000000000001  0.83938  0.23622000000000007  1.0000
  H   H219      1.0  0.5080200000000001  0.8964099999999999  0.18427000000000004  1.0000
  C   C204      1.0  0.4168900000000001  0.89535  0.13617000000000007  1.0000
  H   H220      1.0  0.39499  0.92102  0.0748  1.0000
  H   H221      1.0  0.42995000000000005  0.92922  0.18567  1.0000
  H   H222      1.0  0.3824700000000001  0.8617699999999999  0.12177  1.0000
  N   N9        1.0  0.9052300000000002  0.78533  0.99035  1.0000
  O   O93       1.0  0.8699100000000003  0.7423899999999998  0.9802500000000002  1.0000
  O   O94       1.0  0.8939500000000004  0.84341  0.9901300000000002  1.0000
  N   N10       1.0  0.90117  0.20286  0.9729900000000002  1.0000
  O   O95       1.0  0.84502  0.22364  0.90813  1.0000
  O   O96       1.0  0.9100600000000002  0.15648  0.02015  1.0000
  N   N11       1.0  0.41508  0.28746  0.007110000000000002  1.0000
  O   O97       1.0  0.37654000000000004  0.24685999999999997  0.9929300000000001  1.0000
  O   O98       1.0  0.41484  0.34438  0.026550000000000008  1.0000
  N   N12       1.0  0.4011600000000001  0.70197  0.9743200000000002  1.0000
  O   O99       1.0  0.3438100000000001  0.71666  0.90413  1.0000
  O   O100      1.0  0.41261  0.66299  0.03111  1.0000
  N   N13       1.0  0.29078  0.5481699999999999  0.18026  1.0000
  O   O101      1.0  0.24992  0.56817  0.09929  1.0000
  O   O102      1.0  0.34967  0.54933  0.22466  1.0000
  N   N14       1.0  0.7910800000000002  0.03452999999999999  0.17577000000000007  1.0000
  O   O103      1.0  0.75036  0.04887  0.09246  1.0000
  O   O104      1.0  0.8499800000000002  0.03318  0.22024000000000005  1.0000
  N   N15       1.0  0.2934600000000001  0.37571999999999994  0.30667  1.0000
  O   O105      1.0  0.2822100000000001  0.33612  0.25159  1.0000
  O   O106      1.0  0.3311500000000001  0.36033  0.38931  1.0000
  N   N16       1.0  0.2919200000000001  0.57084  0.39061000000000007  1.0000
  O   O107      1.0  0.3275700000000002  0.61836  0.4127400000000001  1.0000
  O   O108      1.0  0.26927  0.56501  0.4240000000000001  1.0000
  N   N17       1.0  0.7927500000000002  0.8775499999999999  0.3203300000000001  1.0000
  O   O109      1.0  0.77528  0.83161  0.2680800000000001  1.0000
  O   O110      1.0  0.83382  0.86785  0.40494000000000013  1.0000
  N   N18       1.0  0.7917700000000001  0.08122  0.3820500000000001  1.0000
  O   O111      1.0  0.8243800000000002  0.12919  0.3958800000000001  1.0000
  O   O112      1.0  0.7739400000000001  0.07745999999999999  0.4221000000000001  1.0000
