data_image0
_chemical_formula_structural       C144Cu12H8N16O48NHCH3NHCH3NHCH3NHCH3NHCH3NHCH3NHCH3NHCH3OCH2CH2CH3OCH2CH2CH3OCH2CH2CH3OCH2CH2CH3NHCH3NHCH3NHCH3NHCH3OCH2CH2CH3OCH2CH2CH3OCH2CH2CH3OCH2CH2CH3NHCH3NHCH3NHCH3NHCH3NHCH3NHCH3NHCH3NHCH3OCH2CH2CH3OCH2CH2CH3OCH2CH2CH3OCH2CH2CH3OCH2CH2CH3OCH2CH2CH3OCH2CH2CH3OCH2CH2CH3NHCH3NHCH3NHCH3NHCH3NHCH3NHCH3NHCH3NHCH3OCH2CH2CH3OCH2CH2CH3OCH2CH2CH3OCH2CH2CH3NHCH3NHCH3NHCH3NHCH3OCH2CH2CH3OCH2CH2CH3OCH2CH2CH3OCH2CH2CH3OCH2CH2CH3OCH2CH2CH3OCH2CH2CH3OCH2CH2CH3OCH2CH2CH3OCH2CH2CH3OCH2CH2CH3OCH2CH2CH3NHCH3NHCH3NHCH3NHCH3NHCH3NHCH3NHCH3NHCH3
_chemical_formula_sum              "C280 Cu12 H392 N56 O80"
_cell_length_a       30.63426
_cell_length_b       30.29624
_cell_length_c       24.870569999999997
_cell_angle_alpha    90.53426000000002
_cell_angle_beta     128.67744
_cell_angle_gamma    89.86506

_space_group_name_H-M_alt    "P 1"
_space_group_IT_number       1

loop_
  _space_group_symop_operation_xyz
  'x, y, z'

loop_
  _atom_site_type_symbol
  _atom_site_label
  _atom_site_symmetry_multiplicity
  _atom_site_fract_x
  _atom_site_fract_y
  _atom_site_fract_z
  _atom_site_occupancy
  C   C1        1.0  0.81007  0.81005  0.50041  1.0000
  C   C2        1.0  0.19005  0.8101  0.49973  1.0000
  C   C3        1.0  0.30914  0.3099  0.49856  1.0000
  C   C4        1.0  0.69011  0.30992  0.50039  1.0000
  C   C5        1.0  0.64428  0.74809  0.29108999999999996  1.0000
  C   C6        1.0  0.36095  0.74558  0.70931  1.0000
  C   C7        1.0  0.14546  0.25002  0.29102  1.0000
  C   C8        1.0  0.8584799999999999  0.24782  0.7095799999999999  1.0000
  C   C9        1.0  0.47377  0.74255  0.93043  1.0000
  C   C10       1.0  0.54002  0.74471  0.06973  1.0000
  C   C11       1.0  0.97445  0.25101  0.9309399999999999  1.0000
  C   C12       1.0  0.0428  0.25174  0.07026  1.0000
  C   C13       1.0  0.89299  0.86939  0.56381  1.0000
  C   C14       1.0  0.11681999999999997  0.87606  0.43872999999999995  1.0000
  C   C15       1.0  0.39436  0.36478  0.56111  1.0000
  C   C16       1.0  0.62057  0.37759  0.44260999999999995  1.0000
  C   C17       1.0  0.8688400000000001  0.91282  0.52314  1.0000
  C   C18       1.0  0.14131000000000005  0.9152500000000002  0.49019  1.0000
  C   C19       1.0  0.37257  0.41049  0.52865  1.0000
  C   C20       1.0  0.64381  0.41392  0.49862999999999996  1.0000
  C   C21       1.0  0.90388  0.90547  0.49795  1.0000
  C   C22       1.0  0.09616  0.90733  0.4995  1.0000
  C   C23       1.0  0.40284  0.40653  0.49707  1.0000
  C   C24       1.0  0.5936  0.40559  0.49831999999999993  1.0000
  C   C25       1.0  0.92748  0.86136  0.53822  1.0000
  C   C26       1.0  0.07144  0.86786  0.44742  1.0000
  C   C27       1.0  0.42477  0.35999  0.52929  1.0000
  C   C28       1.0  0.57047  0.36885  0.44242  1.0000
  C   C29       1.0  0.87745  0.8362  0.47377  1.0000
  C   C30       1.0  0.11134000000000001  0.83627  0.5079  1.0000
  C   C31       1.0  0.37103  0.33894  0.46282  1.0000
  C   C32       1.0  0.60496  0.33432  0.49933999999999995  1.0000
  C   C33       1.0  0.8539  0.87987  0.4336  1.0000
  C   C34       1.0  0.13627000000000006  0.87538  0.55972  1.0000
  C   C35       1.0  0.34919  0.38499  0.43119  1.0000
  C   C36       1.0  0.6278  0.37057  0.55532  1.0000
  C   C37       1.0  0.82008  0.88735  0.45913  1.0000
  C   C38       1.0  0.18023000000000003  0.88364  0.55015  1.0000
  C   C39       1.0  0.32004  0.38911  0.46366  1.0000
  C   C40       1.0  0.67738  0.37941  0.55572  1.0000
  C   C41       1.0  0.84345  0.84394  0.49944  1.0000
  C   C42       1.0  0.15627999999999997  0.84442  0.49933999999999995  1.0000
  C   C43       1.0  0.3417  0.34337  0.49571  1.0000
  C   C44       1.0  0.65518  0.34312  0.50019  1.0000
  C   C45       1.0  0.68325  0.74946  0.36749  1.0000
  C   C46       1.0  0.31811  0.74868  0.63268  1.0000
  C   C47       1.0  0.18353999999999998  0.24986  0.36745999999999995  1.0000
  C   C48       1.0  0.81738  0.24932  0.63274  1.0000
  C   C49       1.0  0.8288299999999998  0.74736  0.74352  1.0000
  C   C50       1.0  0.15792999999999993  0.7699000000000001  0.25125999999999993  1.0000
  C   C51       1.0  0.32816  0.24711  0.74329  1.0000
  C   C52       1.0  0.65805  0.2705600000000001  0.25161  1.0000
  C   C53       1.0  0.86354  0.73681  0.81433  1.0000
  C   C54       1.0  0.12572999999999995  0.76001  0.18014  1.0000
  C   C55       1.0  0.36266  0.23672  0.81419  1.0000
  C   C56       1.0  0.62497  0.26169  0.18013  1.0000
  C   C57       1.0  0.9224  0.73502  0.8526299999999999  1.0000
  C   C58       1.0  0.07423  0.73747  0.14566  1.0000
  C   C59       1.0  0.4215099999999999  0.23467  0.8526299999999999  1.0000
  C   C60       1.0  0.57297  0.23993  0.14556  1.0000
  C   C61       1.0  0.94431  0.73761  0.81715  1.0000
  C   C62       1.0  0.05848  0.7212700000000001  0.18392  1.0000
  C   C63       1.0  0.44348  0.23584  0.81717  1.0000
  C   C64       1.0  0.55704  0.224  0.18375  1.0000
  C   C65       1.0  0.90919  0.7420900000000001  0.74585  1.0000
  C   C66       1.0  0.09401  0.72566  0.25544  1.0000
  C   C67       1.0  0.40847  0.23981  0.74583  1.0000
  C   C68       1.0  0.59297  0.22766  0.25534  1.0000
  C   C69       1.0  0.85153  0.74728  0.70835  1.0000
  C   C70       1.0  0.14452999999999996  0.74926  0.29047999999999996  1.0000
  C   C71       1.0  0.35101  0.24641  0.70828  1.0000
  C   C72       1.0  0.64427  0.25009  0.2906  1.0000
  C   C73       1.0  0.03461  0.73352  0.06954  1.0000
  C   C74       1.0  0.96163  0.7324  0.92932  1.0000
  C   C75       1.0  0.53343  0.23589  0.06951  1.0000
  C   C76       1.0  0.46064  0.23317  0.92935  1.0000
  C   C77       1.0  0.59398  0.6496400000000001  0.44874  1.0000
  C   C78       1.0  0.40729  0.65256  0.54711  1.0000
  C   C79       1.0  0.09333000000000001  0.1511  0.44995  1.0000
  C   C80       1.0  0.90748  0.15164  0.54898  1.0000
  C   C81       1.0  0.5935  0.64297  0.50972  1.0000
  C   C82       1.0  0.40347999999999995  0.64175  0.48360999999999993  1.0000
  C   C83       1.0  0.09479999999999998  0.14317000000000002  0.5122  1.0000
  C   C84       1.0  0.90494  0.14202  0.48605999999999994  1.0000
  C   C85       1.0  0.59933  0.59233  0.50566  1.0000
  C   C86       1.0  0.40066  0.59169  0.49564  1.0000
  C   C87       1.0  0.09897  0.09255  0.50514  1.0000
  C   C88       1.0  0.90081  0.09181  0.49552  1.0000
  C   C89       1.0  0.6901  0.68981  0.49947  1.0000
  C   C90       1.0  0.31097  0.68994  0.50248  1.0000
  C   C91       1.0  0.18990999999999997  0.18983  0.49909999999999993  1.0000
  C   C92       1.0  0.8109999999999999  0.1899  0.5025399999999999  1.0000
  C   C93       1.0  0.60148  0.59962  0.44525999999999993  1.0000
  C   C94       1.0  0.40335  0.60377  0.55845  1.0000
  C   C95       1.0  0.09895  0.10118000000000002  0.44325  1.0000
  C   C96       1.0  0.90226  0.10256  0.55776  1.0000
  C   C97       1.0  0.66625  0.60483  0.4978  1.0000
  C   C98       1.0  0.33891  0.6062  0.51104  1.0000
  C   C99       1.0  0.16381  0.10508  0.49376  1.0000
  C   C100      1.0  0.8378200000000001  0.10576  0.50907  1.0000
  C   C101      1.0  0.66473  0.59695  0.55811  1.0000
  C   C102      1.0  0.3347799999999999  0.59447  0.4470299999999999  1.0000
  C   C103      1.0  0.16452000000000003  0.09607  0.55561  1.0000
  C   C104      1.0  0.8350100000000001  0.09524  0.44579  1.0000
  C   C105      1.0  0.65731  0.64708  0.56051  1.0000
  C   C106      1.0  0.33875  0.64439  0.43709  1.0000
  C   C107      1.0  0.15879000000000004  0.14615  0.56102  1.0000
  C   C108      1.0  0.84028  0.14531000000000002  0.43827  1.0000
  C   C109      1.0  0.6579  0.6549700000000002  0.50026  1.0000
  C   C110      1.0  0.34342  0.65545  0.50099  1.0000
  C   C111      1.0  0.15741  0.15513  0.49949  1.0000
  C   C112      1.0  0.84355  0.15529  0.50138  1.0000
  C   C113      1.0  0.43811  0.55891  0.49926  1.0000
  C   C114      1.0  0.56147  0.5595799999999999  0.5011399999999999  1.0000
  C   C115      1.0  0.9381899999999999  0.05898  0.49923  1.0000
  C   C116      1.0  0.06137999999999998  0.05967  0.50106  1.0000
  C   C117      1.0  0.9392300000000001  0.9396700000000001  0.49939000000000006  1.0000
  C   C118      1.0  0.06128000000000001  0.94072  0.49998  1.0000
  C   C119      1.0  0.43866  0.44035  0.49928  1.0000
  C   C120      1.0  0.56052  0.44014  0.49974  1.0000
  C   C121      1.0  0.81549  0.74937  0.63242  1.0000
  C   C122      1.0  0.18313  0.75021  0.36724  1.0000
  C   C123      1.0  0.31528999999999996  0.24911999999999998  0.6323999999999999  1.0000
  C   C124      1.0  0.6831  0.25033  0.36729  1.0000
  C   C125      1.0  0.62323  0.7879  0.25355  1.0000
  C   C126      1.0  0.39937  0.78083  0.74793  1.0000
  C   C127      1.0  0.12461  0.29059  0.25541  1.0000
  C   C128      1.0  0.91542  0.25942  0.7442  1.0000
  C   C129      1.0  0.59185  0.78696  0.18116  1.0000
  C   C130      1.0  0.43773999999999996  0.77917  0.8203099999999999  1.0000
  C   C131      1.0  0.09377  0.29129  0.18316  1.0000
  C   C132      1.0  0.95409  0.26022  0.8171599999999999  1.0000
  C   C133      1.0  0.57611  0.7461  0.14578  1.0000
  C   C134      1.0  0.43831  0.74242  0.85487  1.0000
  C   C135      1.0  0.0788  0.25129  0.14604  1.0000
  C   C136      1.0  0.93583  0.24939000000000006  0.8551999999999998  1.0000
  C   C137      1.0  0.5938  0.70639  0.18291  1.0000
  C   C138      1.0  0.4048999999999999  0.70546  0.8171999999999999  1.0000
  C   C139      1.0  0.09600999999999998  0.21075  0.18088999999999997  1.0000
  C   C140      1.0  0.88049  0.23575  0.82134  1.0000
  C   C141      1.0  0.63038  0.70723  0.25523  1.0000
  C   C142      1.0  0.36527999999999994  0.70707  0.7448399999999998  1.0000
  C   C143      1.0  0.13184  0.21005  0.25322  1.0000
  C   C144      1.0  0.8419099999999999  0.23476  0.74929  1.0000
  Cu  Cu1       1.0  0.78138  0.71861  0.5  1.0000
  Cu  Cu2       1.0  0.21862  0.71861  0.5  1.0000
  Cu  Cu3       1.0  0.28138  0.21861  0.5  1.0000
  Cu  Cu4       1.0  0.71862  0.21861  0.5  1.0000
  Cu  Cu5       1.0  0.7186  0.78138  0.5  1.0000
  Cu  Cu6       1.0  0.2814  0.78138  0.5  1.0000
  Cu  Cu7       1.0  0.2186  0.28138  0.5  1.0000
  Cu  Cu8       1.0  0.7813999999999999  0.28138  0.5  1.0000
  Cu  Cu9       1.0  0.96581  0.99996  0.43155999999999994  1.0000
  Cu  Cu10      1.0  0.034190000000000054  0.99996  0.56844  1.0000
  Cu  Cu11      1.0  0.46581  0.49996  0.43155999999999994  1.0000
  Cu  Cu12      1.0  0.53419  0.49996  0.56844  1.0000
  H   H1        1.0  0.98891  0.7357  0.84443  1.0000
  H   H2        1.0  0.019129999999999987  0.70391  0.15848  1.0000
  H   H3        1.0  0.48805  0.23337  0.84451  1.0000
  H   H4        1.0  0.51727  0.20730000000000004  0.15817  1.0000
  H   H5        1.0  0.92734  0.7423300000000002  0.7199  1.0000
  H   H6        1.0  0.08148000000000002  0.71075  0.28335  1.0000
  H   H7        1.0  0.42668999999999996  0.23905  0.7199599999999999  1.0000
  H   H8        1.0  0.58023  0.21302  0.28317999999999993  1.0000
  N   N1        1.0  0.49651  0.77302  0.03158  1.0000
  N   N2        1.0  0.46401  0.77198  0.96318  1.0000
  N   N3        1.0  0.9949199999999999  0.27557  0.03362  1.0000
  N   N4        1.0  0.96124  0.27509  0.96516  1.0000
  N   N5        1.0  0.51685  0.7139  0.96833  1.0000
  N   N6        1.0  0.54943  0.71497  0.03681  1.0000
  N   N7        1.0  0.0224  0.22721000000000005  0.96747  1.0000
  N   N8        1.0  0.05594999999999999  0.22747  0.03602999999999999  1.0000
  N   N9        1.0  0.017280000000000014  0.72641  0.964  1.0000
  N   N10       1.0  0.97899  0.73894  0.03508  1.0000
  N   N11       1.0  0.51619  0.22639000000000004  0.96433  1.0000
  N   N12       1.0  0.47792  0.24224  0.03478  1.0000
  N   N13       1.0  0.05298  0.727  0.03259  1.0000
  N   N14       1.0  0.94338  0.73863  0.9665099999999999  1.0000
  N   N15       1.0  0.5518  0.22774  0.0329  1.0000
  N   N16       1.0  0.44239999999999996  0.24117  0.9662199999999999  1.0000
  O   O1        1.0  0.82228  0.76928  0.49999  1.0000
  O   O2        1.0  0.17772  0.76928  0.50001  1.0000
  O   O3        1.0  0.32228  0.26928  0.49999  1.0000
  O   O4        1.0  0.67772  0.2692800000000001  0.50001  1.0000
  O   O5        1.0  0.48315  0.54573  0.55782  1.0000
  O   O6        1.0  0.51685  0.54573  0.44217999999999996  1.0000
  O   O7        1.0  0.98315  0.04573  0.55782  1.0000
  O   O8        1.0  0.016849999999999983  0.04573  0.44217999999999996  1.0000
  O   O9        1.0  0.9253499999999999  0.95417  0.44221  1.0000
  O   O10       1.0  0.07465000000000001  0.95417  0.55779  1.0000
  O   O11       1.0  0.42535  0.45417  0.44221  1.0000
  O   O12       1.0  0.57465  0.45417  0.55779  1.0000
  O   O13       1.0  0.98316  0.95415  0.5578  1.0000
  O   O14       1.0  0.016839999999999987  0.95415  0.4422  1.0000
  O   O15       1.0  0.48316  0.45415  0.5578  1.0000
  O   O16       1.0  0.51684  0.45415  0.4422  1.0000
  O   O17       1.0  0.76927  0.8222800000000001  0.49999  1.0000
  O   O18       1.0  0.23073  0.8222800000000001  0.50001  1.0000
  O   O19       1.0  0.26927  0.32228  0.49999  1.0000
  O   O20       1.0  0.73073  0.32228  0.50001  1.0000
  O   O21       1.0  0.72658  0.72349  0.40014  1.0000
  O   O22       1.0  0.27342  0.72349  0.59986  1.0000
  O   O23       1.0  0.22658  0.22349  0.40014  1.0000
  O   O24       1.0  0.77342  0.22349  0.59986  1.0000
  O   O25       1.0  0.67356  0.7765  0.40014  1.0000
  O   O26       1.0  0.32644  0.7765  0.59986  1.0000
  O   O27       1.0  0.17356  0.2765  0.40014  1.0000
  O   O28       1.0  0.82644  0.2765  0.59986  1.0000
  O   O29       1.0  0.73072  0.6777  0.50001  1.0000
  O   O30       1.0  0.26928  0.6777  0.49999  1.0000
  O   O31       1.0  0.23072  0.1777  0.50001  1.0000
  O   O32       1.0  0.76928  0.1777  0.49999  1.0000
  O   O33       1.0  0.6777  0.73071  0.50001  1.0000
  O   O34       1.0  0.3223  0.73071  0.49999  1.0000
  O   O35       1.0  0.1777  0.23071  0.50001  1.0000
  O   O36       1.0  0.8223  0.23071  0.49999  1.0000
  O   O37       1.0  0.82643  0.72349  0.59985  1.0000
  O   O38       1.0  0.17357  0.72349  0.40015  1.0000
  O   O39       1.0  0.32643  0.22349  0.59985  1.0000
  O   O40       1.0  0.67357  0.22349  0.40015  1.0000
  O   O41       1.0  0.77341  0.77649  0.59985  1.0000
  O   O42       1.0  0.22659  0.77649  0.40015  1.0000
  O   O43       1.0  0.27341  0.27649  0.59985  1.0000
  O   O44       1.0  0.7265899999999998  0.27649  0.40015  1.0000
  O   O45       1.0  0.42535  0.54575  0.44223  1.0000
  O   O46       1.0  0.57465  0.54575  0.55777  1.0000
  O   O47       1.0  0.92535  0.04575  0.44223  1.0000
  O   O48       1.0  0.07465000000000001  0.04575  0.55777  1.0000
  N   N17       1.0  0.63753  0.829  0.28941  1.0000
  H   H9        1.0  0.65115  0.85285  0.27361  1.0000
  C   C145      1.0  0.59647  0.84556  0.29568  1.0000
  H   H10       1.0  0.55793  0.8559500000000001  0.24486999999999998  1.0000
  H   H11       1.0  0.61412  0.87451  0.33121  1.0000
  H   H12       1.0  0.5851  0.81995  0.3166999999999999  1.0000
  N   N18       1.0  0.40012  0.81801  0.71392  1.0000
  H   H13       1.0  0.43637000000000004  0.82129  0.71975  1.0000
  C   C146      1.0  0.38081  0.8591500000000001  0.72227  1.0000
  H   H14       1.0  0.41679  0.87891  0.76519  1.0000
  H   H15       1.0  0.35122  0.85329  0.73316  1.0000
  H   H16       1.0  0.35937  0.87837  0.67417  1.0000
  N   N19       1.0  0.1382  0.33085  0.29307  1.0000
  H   H17       1.0  0.1519  0.35571  0.27881  1.0000
  C   C147      1.0  0.09645000000000002  0.34584  0.29911  1.0000
  H   H18       1.0  0.05824000000000001  0.35705  0.24865  1.0000
  H   H19       1.0  0.11366999999999997  0.37389  0.33626999999999996  1.0000
  H   H20       1.0  0.08459  0.31905  0.31798  1.0000
  N   N20       1.0  0.93386  0.26839  0.70508  1.0000
  H   H21       1.0  0.9660499999999999  0.24862  0.71646  1.0000
  C   C148      1.0  0.9414400000000002  0.3146  0.69838  1.0000
  H   H22       1.0  0.98015  0.32768  0.74698  1.0000
  H   H23       1.0  0.90518  0.33435  0.68468  1.0000
  H   H24       1.0  0.94502  0.31829  0.6569  1.0000
  N   N21       1.0  0.7609499999999998  0.89633  0.41977999999999993  1.0000
  H   H25       1.0  0.7354099999999999  0.86987  0.39111  1.0000
  C   C149      1.0  0.74115  0.93748  0.3838  1.0000
  H   H26       1.0  0.69632  0.9415  0.35976  1.0000
  H   H27       1.0  0.7454699999999999  0.93796  0.34278  1.0000
  H   H28       1.0  0.76482  0.965  0.42064  1.0000
  N   N22       1.0  0.23979  0.88902  0.60385  1.0000
  H   H29       1.0  0.25877999999999995  0.86099  0.6325099999999999  1.0000
  C   C150      1.0  0.25698  0.92935  0.64375  1.0000
  H   H30       1.0  0.30224  0.92824  0.68804  1.0000
  H   H31       1.0  0.23338999999999993  0.93427  0.6635099999999999  1.0000
  H   H32       1.0  0.2499  0.95759  0.61144  1.0000
  N   N23       1.0  0.26264999999999994  0.40086  0.43126999999999993  1.0000
  H   H33       1.0  0.2341  0.37634  0.40036  1.0000
  C   C151      1.0  0.24486  0.44362  0.40037  1.0000
  H   H34       1.0  0.20595  0.45273  0.39204  1.0000
  H   H35       1.0  0.23599999999999993  0.44272  0.34979  1.0000
  H   H36       1.0  0.27748999999999996  0.4684  0.43498999999999993  1.0000
  N   N24       1.0  0.7361899999999999  0.38148000000000004  0.61466  1.0000
  H   H37       1.0  0.7524  0.35185  0.63963  1.0000
  C   C152      1.0  0.75325  0.41882  0.66018  1.0000
  H   H38       1.0  0.79827  0.41594  0.70504  1.0000
  H   H39       1.0  0.7286  0.4202200000000001  0.67892  1.0000
  H   H40       1.0  0.7475999999999999  0.44944  0.63275  1.0000
  O   O49       1.0  0.77181  0.7519  0.70774  1.0000
  C   C153      1.0  0.75701  0.79722  0.69768  1.0000
  H   H41       1.0  0.7182  0.80074  0.64367  1.0000
  H   H42       1.0  0.78889  0.81971  0.70407  1.0000
  C   C154      1.0  0.7445499999999999  0.81245  0.7456599999999999  1.0000
  H   H43       1.0  0.71536  0.78872  0.74247  1.0000
  H   H44       1.0  0.78409  0.81374  0.7995  1.0000
  C   C155      1.0  0.71833  0.85829  0.72646  1.0000
  H   H45       1.0  0.7468999999999999  0.8826600000000001  0.72959  1.0000
  H   H46       1.0  0.71053  0.86864  0.76273  1.0000
  H   H47       1.0  0.67785  0.85791  0.67339  1.0000
  O   O50       1.0  0.20423999999999998  0.79725  0.28195999999999993  1.0000
  C   C156      1.0  0.19186999999999993  0.8399300000000001  0.29340999999999995  1.0000
  H   H48       1.0  0.2319299999999999  0.85493  0.33796  1.0000
  H   H49       1.0  0.16391  0.83921  0.30783  1.0000
  C   C157      1.0  0.16651999999999995  0.86963  0.23071  1.0000
  H   H50       1.0  0.19348  0.86898  0.21506999999999998  1.0000
  H   H51       1.0  0.12411  0.85727  0.18739  1.0000
  C   C158      1.0  0.16143  0.9174000000000001  0.24594  1.0000
  H   H52       1.0  0.13732  0.91929  0.26544  1.0000
  H   H53       1.0  0.13927  0.9369  0.19795999999999997  1.0000
  H   H54       1.0  0.20358  0.9321  0.28444  1.0000
  O   O51       1.0  0.27114999999999995  0.25202  0.7071999999999999  1.0000
  C   C159      1.0  0.25694000000000006  0.29745  0.69796  1.0000
  H   H55       1.0  0.21785999999999997  0.30132  0.64424  1.0000
  H   H56       1.0  0.28883  0.31969  0.70397  1.0000
  C   C160      1.0  0.24552000000000004  0.31268  0.74696  1.0000
  H   H57       1.0  0.21653000000000003  0.28905  0.74436  1.0000
  H   H58       1.0  0.28544999999999987  0.31381  0.8004899999999999  1.0000
  C   C161      1.0  0.21957000000000004  0.35861  0.72849  1.0000
  H   H59       1.0  0.24801  0.38292  0.73121  1.0000
  H   H60       1.0  0.21245999999999993  0.36889  0.76542  1.0000
  H   H61       1.0  0.17877000000000007  0.35842  0.67573  1.0000
  O   O52       1.0  0.70604  0.29597  0.28287999999999996  1.0000
  C   C162      1.0  0.6974399999999998  0.33892  0.29816999999999994  1.0000
  H   H62       1.0  0.73846  0.351  0.34503  1.0000
  H   H63       1.0  0.66833  0.33956  0.31082  1.0000
  C   C163      1.0  0.67684  0.37093  0.23937999999999998  1.0000
  H   H64       1.0  0.70403  0.36841  0.22418  1.0000
  H   H65       1.0  0.6332  0.36223000000000005  0.19445  1.0000
  C   C164      1.0  0.6779099999999999  0.4186  0.26048  1.0000
  H   H66       1.0  0.65198  0.42215  0.27727  1.0000
  H   H67       1.0  0.66083  0.44056  0.21589999999999998  1.0000
  H   H68       1.0  0.7215  0.42908  0.30301  1.0000
  N   N25       1.0  0.83893  0.72506  0.84554  1.0000
  H   H69       1.0  0.8008399999999999  0.7393  0.8242199999999998  1.0000
  C   C165      1.0  0.83749  0.678  0.85388  1.0000
  H   H70       1.0  0.8114  0.66115  0.80279  1.0000
  H   H71       1.0  0.81927  0.67158  0.88011  1.0000
  H   H72       1.0  0.88032  0.66399  0.88579  1.0000
  N   N26       1.0  0.14488  0.77282  0.14309  1.0000
  H   H73       1.0  0.15712  0.80524  0.14967  1.0000
  C   C166      1.0  0.18571  0.74324  0.15121  1.0000
  H   H74       1.0  0.2256  0.74536  0.20471  1.0000
  H   H75       1.0  0.19385999999999998  0.75275  0.11518999999999999  1.0000
  H   H76       1.0  0.16993  0.70867  0.13924  1.0000
  N   N27       1.0  0.33789  0.22543  0.8454  1.0000
  H   H77       1.0  0.29912  0.23879  0.8227  1.0000
  C   C167      1.0  0.3382899999999999  0.17861  0.8568399999999999  1.0000
  H   H78       1.0  0.31375  0.16032  0.80699  1.0000
  H   H79       1.0  0.31937999999999994  0.17263  0.8823399999999999  1.0000
  H   H80       1.0  0.38167999999999996  0.16574  0.8906399999999999  1.0000
  N   N28       1.0  0.6438199999999997  0.27467  0.14282  1.0000
  H   H81       1.0  0.6563  0.30708  0.14991  1.0000
  C   C168      1.0  0.6842  0.24499  0.15003  1.0000
  H   H82       1.0  0.7242  0.2465  0.2035  1.0000
  H   H83       1.0  0.69234  0.25486  0.11412  1.0000
  H   H84       1.0  0.66798  0.21055  0.13728  1.0000
  O   O53       1.0  0.55834  0.66394  0.52082  1.0000
  C   C169      1.0  0.56481  0.7105600000000002  0.52348  1.0000
  H   H85       1.0  0.5333799999999999  0.72432  0.47148  1.0000
  H   H86       1.0  0.60637  0.72158  0.54056  1.0000
  C   C170      1.0  0.55597  0.73098  0.57247  1.0000
  H   H87       1.0  0.51229  0.72523  0.55208  1.0000
  H   H88       1.0  0.58453  0.7153500000000003  0.62376  1.0000
  C   C171      1.0  0.56729  0.7805900000000001  0.58111  1.0000
  H   H89       1.0  0.6114  0.78731  0.60363  1.0000
  H   H90       1.0  0.5599  0.79442  0.6163  1.0000
  H   H91       1.0  0.53893  0.79721  0.53054  1.0000
  O   O54       1.0  0.44476999999999994  0.65867  0.48019999999999996  1.0000
  C   C172      1.0  0.42248  0.6774200000000001  0.41599  1.0000
  H   H92       1.0  0.44694000000000006  0.70745  0.42594000000000004  1.0000
  H   H93       1.0  0.37979  0.69023  0.38719  1.0000
  C   C173      1.0  0.42816  0.64533  0.37281  1.0000
  H   H94       1.0  0.47258  0.63596  0.40172  1.0000
  H   H95       1.0  0.4042599999999999  0.61482  0.36251  1.0000
  C   C174      1.0  0.4072  0.66572  0.30463  1.0000
  H   H96       1.0  0.36225  0.6743  0.2736  1.0000
  H   H97       1.0  0.41234  0.6417  0.27496  1.0000
  H   H98       1.0  0.43164  0.69596  0.31409  1.0000
  O   O55       1.0  0.061160000000000006  0.1635  0.52623  1.0000
  C   C175      1.0  0.06905  0.21003  0.53244  1.0000
  H   H99       1.0  0.03818  0.22547  0.48167999999999994  1.0000
  H   H100      1.0  0.11096999999999999  0.22076  0.55053  1.0000
  C   C176      1.0  0.06039  0.22858  0.58253  1.0000
  H   H101      1.0  0.01639000000000001  0.22325  0.56118  1.0000
  H   H102      1.0  0.08814999999999994  0.2113  0.6325299999999999  1.0000
  C   C177      1.0  0.07320999999999993  0.27794  0.59509  1.0000
  H   H103      1.0  0.11750999999999999  0.28424  0.61813  1.0000
  H   H104      1.0  0.06617000000000008  0.29038  0.63124  1.0000
  H   H105      1.0  0.04543000000000006  0.29616  0.54592  1.0000
  O   O56       1.0  0.947  0.15952  0.48453  1.0000
  C   C178      1.0  0.9258400000000001  0.17682  0.41986  1.0000
  H   H106      1.0  0.95163  0.20576  0.42923  1.0000
  H   H107      1.0  0.88374  0.19096  0.39061  1.0000
  C   C179      1.0  0.9304799999999999  0.14291  0.37769  1.0000
  H   H108      1.0  0.97459  0.13248000000000001  0.4070599999999999  1.0000
  H   H109      1.0  0.90542  0.11329  0.36799  1.0000
  C   C180      1.0  0.91033  0.16181  0.30899  1.0000
  H   H110      1.0  0.86551  0.171  0.27729999999999994  1.0000
  H   H111      1.0  0.91528  0.13668  0.28039  1.0000
  H   H112      1.0  0.9353  0.19147  0.31759  1.0000
  N   N29       1.0  0.55581  0.68054  0.39445  1.0000
  H   H113      1.0  0.56529  0.71295  0.41079  1.0000
  C   C181      1.0  0.54277  0.67428  0.32833  1.0000
  H   H114      1.0  0.5812299999999998  0.67729  0.3335  1.0000
  H   H115      1.0  0.51323  0.70029  0.29266  1.0000
  H   H116      1.0  0.52171  0.64204  0.30556  1.0000
  N   N30       1.0  0.4438  0.68588  0.59863  1.0000
  H   H117      1.0  0.43632  0.71684  0.57767  1.0000
  C   C182      1.0  0.5026399999999999  0.67509  0.6456699999999999  1.0000
  H   H118      1.0  0.5276  0.70556  0.67226  1.0000
  H   H119      1.0  0.51655  0.65973  0.61796  1.0000
  H   H120      1.0  0.51107  0.65238  0.68578  1.0000
  N   N31       1.0  0.05558999999999999  0.18315  0.3976  1.0000
  H   H121      1.0  0.06475000000000006  0.21497  0.41668  1.0000
  C   C183      1.0  0.045549999999999966  0.18041  0.33283  1.0000
  H   H122      1.0  0.08554000000000003  0.18294  0.34131  1.0000
  H   H123      1.0  0.018519999999999995  0.20826  0.29969  1.0000
  H   H124      1.0  0.022740000000000024  0.14952  0.30523  1.0000
  N   N32       1.0  0.94382  0.18411  0.60231  1.0000
  H   H125      1.0  0.93733  0.21546  0.5829  1.0000
  C   C184      1.0  0.0023499999999999997  0.17262  0.65056  1.0000
  H   H126      1.0  0.027610000000000034  0.20269  0.67879  1.0000
  H   H127      1.0  0.017160000000000026  0.15767  0.6236  1.0000
  H   H128      1.0  0.009249999999999994  0.14929  0.68919  1.0000
  N   N33       1.0  0.57202  0.57189  0.38373  1.0000
  H   H129      1.0  0.56475  0.54028  0.3914  1.0000
  C   C185      1.0  0.59316  0.57166  0.34545  1.0000
  H   H130      1.0  0.55903  0.56191  0.29125  1.0000
  H   H131      1.0  0.6274099999999998  0.54737  0.36745999999999995  1.0000
  H   H132      1.0  0.60922  0.60452  0.34618999999999994  1.0000
  N   N34       1.0  0.43766  0.58197  0.62467  1.0000
  H   H133      1.0  0.4793  0.58061  0.64639  1.0000
  C   C186      1.0  0.42871  0.59575  0.67307  1.0000
  H   H134      1.0  0.46337999999999996  0.58379  0.72538  1.0000
  H   H135      1.0  0.38931  0.58134  0.65827  1.0000
  H   H136      1.0  0.4271  0.63229  0.67546  1.0000
  N   N35       1.0  0.06726000000000003  0.07508  0.37993  1.0000
  H   H137      1.0  0.059619999999999965  0.04323  0.38619999999999993  1.0000
  C   C187      1.0  0.08629  0.07593  0.33932  1.0000
  H   H138      1.0  0.050649999999999994  0.06819  0.28483  1.0000
  H   H139      1.0  0.11897999999999999  0.050690000000000006  0.35772999999999994  1.0000
  H   H140      1.0  0.10380999999999997  0.10852  0.342  1.0000
  N   N36       1.0  0.93557  0.07876  0.62228  1.0000
  H   H141      1.0  0.9774899999999999  0.07811  0.64519  1.0000
  C   C188      1.0  0.92532  0.08945  0.67035  1.0000
  H   H142      1.0  0.9581899999999998  0.07436  0.72101  1.0000
  H   H143      1.0  0.88456  0.07567  0.65192  1.0000
  H   H144      1.0  0.92591  0.12575  0.6775799999999998  1.0000
  O   O57       1.0  0.7019699999999999  0.58891  0.48395  1.0000
  C   C189      1.0  0.74989  0.56765  0.54114  1.0000
  H   H145      1.0  0.76854  0.54848  0.52179  1.0000
  H   H146      1.0  0.73902  0.54278  0.56347  1.0000
  C   C190      1.0  0.79456  0.60053  0.59539  1.0000
  H   H147      1.0  0.8105499999999999  0.61974  0.5730599999999999  1.0000
  H   H148      1.0  0.77669  0.624  0.61142  1.0000
  C   C191      1.0  0.84338  0.57664  0.6591  1.0000
  H   H149      1.0  0.82874  0.55803  0.68348  1.0000
  H   H150      1.0  0.87532  0.60112  0.69697  1.0000
  H   H151      1.0  0.86293  0.5534  0.6449799999999999  1.0000
  O   O58       1.0  0.30915  0.59248  0.53442  1.0000
  C   C192      1.0  0.26738  0.56115  0.48996  1.0000
  H   H152      1.0  0.25905  0.54199  0.52059  1.0000
  H   H153      1.0  0.28164  0.5366  0.47083  1.0000
  C   C193      1.0  0.21288  0.58399  0.43171  1.0000
  H   H154      1.0  0.19629  0.60282  0.45399  1.0000
  H   H155      1.0  0.22069999999999995  0.60774  0.40481  1.0000
  C   C194      1.0  0.169  0.55057  0.37924  1.0000
  H   H156      1.0  0.18359  0.5331300000000001  0.35363  1.0000
  H   H157      1.0  0.1295  0.56796  0.33934  1.0000
  H   H158      1.0  0.16058  0.52612  0.40481  1.0000
  O   O59       1.0  0.19703999999999997  0.08941  0.47602999999999995  1.0000
  C   C195      1.0  0.24282  0.06411  0.5287699999999999  1.0000
  H   H159      1.0  0.25787  0.04477  0.50513  1.0000
  H   H160      1.0  0.23030999999999993  0.03922  0.54935  1.0000
  C   C196      1.0  0.29166  0.09334  0.58545  1.0000
  H   H161      1.0  0.30789  0.1126  0.56344  1.0000
  H   H162      1.0  0.27768999999999994  0.11705  0.6061499999999999  1.0000
  C   C197      1.0  0.33888999999999997  0.06547  0.6445599999999999  1.0000
  H   H163      1.0  0.32399  0.04669  0.6685  1.0000
  H   H164      1.0  0.3739  0.08733  0.68437  1.0000
  H   H165      1.0  0.35452  0.04199  0.62555  1.0000
  O   O60       1.0  0.8064399999999999  0.09174  0.53001  1.0000
  C   C198      1.0  0.76789  0.05817  0.48708999999999997  1.0000
  H   H166      1.0  0.76105  0.03830999999999999  0.5185599999999999  1.0000
  H   H167      1.0  0.7843199999999999  0.034690000000000006  0.46923  1.0000
  C   C199      1.0  0.71163  0.07826  0.42779  1.0000
  H   H168      1.0  0.69389  0.09629  0.44928999999999997  1.0000
  H   H169      1.0  0.71743  0.1024  0.39936999999999995  1.0000
  C   C200      1.0  0.67026  0.04275  0.37766  1.0000
  H   H170      1.0  0.68536  0.02652  0.35186999999999996  1.0000
  H   H171      1.0  0.62912  0.05807  0.33762  1.0000
  H   H172      1.0  0.66474  0.01756  0.40518  1.0000
  O   O61       1.0  0.70953  0.57969  0.62299  1.0000
  C   C201      1.0  0.69924  0.53773  0.63658  1.0000
  H   H173      1.0  0.73657  0.51759  0.6561199999999999  1.0000
  H   H174      1.0  0.66319  0.51995  0.59055  1.0000
  C   C202      1.0  0.69528  0.54176  0.69492  1.0000
  H   H175      1.0  0.73272  0.55971  0.73912  1.0000
  H   H176      1.0  0.65797  0.56124  0.6778  1.0000
  C   C203      1.0  0.69315  0.49684  0.72031  1.0000
  H   H177      1.0  0.65889  0.47629  0.67709  1.0000
  H   H178      1.0  0.68585  0.50139  0.75847  1.0000
  H   H179      1.0  0.73357  0.4795400000000001  0.74587  1.0000
  O   O62       1.0  0.28845999999999994  0.57156  0.38886  1.0000
  C   C204      1.0  0.30234  0.53268  0.37138  1.0000
  H   H180      1.0  0.26736  0.50968  0.35128  1.0000
  H   H181      1.0  0.3402  0.51602  0.41594  1.0000
  C   C205      1.0  0.30299  0.5406000000000001  0.31111  1.0000
  H   H182      1.0  0.2633  0.55663  0.26852  1.0000
  H   H183      1.0  0.338  0.56259  0.32727  1.0000
  C   C206      1.0  0.30837  0.49774  0.28323  1.0000
  H   H184      1.0  0.27315999999999996  0.47513  0.26558  1.0000
  H   H185      1.0  0.3485  0.48157  0.32344  1.0000
  H   H186      1.0  0.30743999999999994  0.50494  0.23882999999999996  1.0000
  O   O63       1.0  0.2102  0.07744  0.61866  1.0000
  C   C207      1.0  0.19854  0.03664  0.63367  1.0000
  H   H187      1.0  0.23519999999999994  0.01561  0.65373  1.0000
  H   H188      1.0  0.16201  0.0189  0.58813  1.0000
  C   C208      1.0  0.19549  0.0426  0.69255  1.0000
  H   H189      1.0  0.23427999999999993  0.05933  0.73663  1.0000
  H   H190      1.0  0.15959999999999996  0.06387  0.67604  1.0000
  C   C209      1.0  0.19082000000000005  0.9986400000000002  0.71799  1.0000
  H   H191      1.0  0.15374  0.97988  0.67543  1.0000
  H   H192      1.0  0.1865499999999999  0.00477  0.7586  1.0000
  H   H193      1.0  0.22897  0.97865  0.74045  1.0000
  O   O64       1.0  0.78887  0.07372  0.38567  1.0000
  C   C210      1.0  0.80161  0.03315  0.37071  1.0000
  H   H194      1.0  0.76603  0.01135  0.3524  1.0000
  H   H195      1.0  0.83929  0.01673  0.41598  1.0000
  C   C211      1.0  0.8019599999999999  0.03779  0.30966  1.0000
  H   H196      1.0  0.76332  0.05502  0.26712  1.0000
  H   H197      1.0  0.8381999999999998  0.05775  0.32454  1.0000
  C   C212      1.0  0.80371  0.99302  0.28251  1.0000
  H   H198      1.0  0.76694  0.97266  0.26564  1.0000
  H   H199      1.0  0.8425099999999999  0.97527  0.32275  1.0000
  H   H200      1.0  0.80288  0.99787  0.23768  1.0000
  N   N37       1.0  0.57728  0.82697  0.14364  1.0000
  H   H201      1.0  0.56754  0.85316  0.16101  1.0000
  C   C213      1.0  0.61459  0.8392  0.12912999999999997  1.0000
  H   H202      1.0  0.59849  0.86918  0.09671  1.0000
  H   H203      1.0  0.61717  0.81229  0.10059999999999998  1.0000
  H   H204      1.0  0.6570699999999999  0.8464  0.17784  1.0000
  N   N38       1.0  0.47632  0.81468  0.85754  1.0000
  H   H205      1.0  0.4785499999999999  0.8269  0.8979799999999999  1.0000
  C   C214      1.0  0.53076  0.8073000000000001  0.8758  1.0000
  H   H206      1.0  0.5564  0.83779  0.8995000000000001  1.0000
  H   H207      1.0  0.52669  0.79897  0.82925  1.0000
  H   H208      1.0  0.55255  0.7800600000000001  0.9134499999999999  1.0000
  N   N39       1.0  0.07842  0.33208  0.14728  1.0000
  H   H209      1.0  0.0686  0.35732  0.16596  1.0000
  C   C215      1.0  0.11508999999999998  0.34614  0.13261999999999996  1.0000
  H   H210      1.0  0.15767  0.3529  0.18134  1.0000
  H   H211      1.0  0.09854  0.37679  0.10178  1.0000
  H   H212      1.0  0.11754  0.32045  0.10246  1.0000
  N   N40       1.0  0.011319999999999946  0.27197  0.85266  1.0000
  H   H213      1.0  0.02882000000000009  0.26402  0.8294900000000001  1.0000
  C   C216      1.0  0.03034999999999995  0.31358  0.8903299999999998  1.0000
  H   H214      1.0  0.045239999999999995  0.33582  0.86953  1.0000
  H   H215      1.0  0.06571999999999997  0.30732  0.9453  1.0000
  H   H216      1.0  0.99662  0.33075  0.88704  1.0000
  N   N41       1.0  0.68958  0.674  0.62265  1.0000
  H   H217      1.0  0.73025  0.67882  0.64158  1.0000
  C   C217      1.0  0.68526  0.6628  0.67555  1.0000
  H   H218      1.0  0.69598  0.69224  0.70867  1.0000
  H   H219      1.0  0.71512  0.63621  0.70823  1.0000
  H   H220      1.0  0.64234  0.6518  0.65301  1.0000
  N   N42       1.0  0.29965  0.6699300000000001  0.37484  1.0000
  H   H221      1.0  0.2686  0.68536  0.37271999999999994  1.0000
  C   C218      1.0  0.27826  0.65051  0.30932  1.0000
  H   H222      1.0  0.24397  0.62699  0.29207  1.0000
  H   H223      1.0  0.31185  0.63408  0.31227  1.0000
  H   H224      1.0  0.26088  0.6769000000000001  0.2704  1.0000
  N   N43       1.0  0.19338000000000005  0.17201  0.62413  1.0000
  H   H225      1.0  0.23377  0.17616  0.64168  1.0000
  C   C219      1.0  0.19029999999999994  0.16091  0.6780699999999998  1.0000
  H   H226      1.0  0.20126000000000005  0.19046  0.71108  1.0000
  H   H227      1.0  0.22065  0.13456  0.71052  1.0000
  H   H228      1.0  0.14773  0.1497  0.65669  1.0000
  N   N44       1.0  0.8027  0.17135  0.37615  1.0000
  H   H229      1.0  0.77217  0.18817  0.37356  1.0000
  C   C220      1.0  0.78144  0.15168  0.31075  1.0000
  H   H230      1.0  0.74457  0.13057  0.29115  1.0000
  H   H231      1.0  0.81402  0.13215  0.31523  1.0000
  H   H232      1.0  0.76798  0.1782  0.27289  1.0000
  O   O65       1.0  0.57695  0.66598  0.14874  1.0000
  C   C221      1.0  0.52169  0.65601  0.12296  1.0000
  H   H233      1.0  0.49934  0.64103  0.07088  1.0000
  H   H234      1.0  0.4968099999999999  0.68547  0.11646  1.0000
  C   C222      1.0  0.52286  0.62248  0.16944  1.0000
  H   H235      1.0  0.54612  0.59262  0.17409  1.0000
  H   H236      1.0  0.54471  0.63715  0.22146  1.0000
  C   C223      1.0  0.46391  0.60915  0.14106  1.0000
  H   H237      1.0  0.44047  0.63847  0.13764  1.0000
  H   H238      1.0  0.46622  0.58486  0.17592  1.0000
  H   H239      1.0  0.44114  0.59379  0.08917  1.0000
  O   O66       1.0  0.40903000000000006  0.66818  0.8518800000000001  1.0000
  C   C224      1.0  0.4433  0.63701  0.85157  1.0000
  H   H240      1.0  0.48365  0.65209  0.86953  1.0000
  H   H241      1.0  0.42146  0.62312  0.79886  1.0000
  C   C225      1.0  0.45616  0.5993800000000001  0.89991  1.0000
  H   H242      1.0  0.47863  0.61272  0.95301  1.0000
  H   H243      1.0  0.41634999999999994  0.58409  0.8829299999999999  1.0000
  C   C226      1.0  0.49209999999999987  0.5641400000000001  0.90047  1.0000
  H   H244      1.0  0.47004  0.55008  0.84793  1.0000
  H   H245      1.0  0.50043  0.53716  0.93566  1.0000
  H   H246      1.0  0.53268  0.57851  0.9187499999999998  1.0000
  O   O67       1.0  0.07985  0.17111  0.14465  1.0000
  C   C227      1.0  0.024320000000000012  0.16029  0.11700000000000002  1.0000
  H   H247      1.0  0.006450000000000004  0.13912  0.07078  1.0000
  H   H248      1.0  0.99642  0.18956  0.09906  1.0000
  C   C228      1.0  0.02349000000000001  0.13438  0.16897  1.0000
  H   H249      1.0  0.05248999999999999  0.1059  0.18813999999999997  1.0000
  H   H250      1.0  0.03761999999999999  0.15615  0.21330999999999997  1.0000
  C   C229      1.0  0.96484  0.11751  0.13668  1.0000
  H   H251      1.0  0.93487  0.14538  0.11556999999999999  1.0000
  H   H252      1.0  0.96502  0.10079  0.17634  1.0000
  H   H253      1.0  0.95094  0.09344  0.09477  1.0000
  O   O68       1.0  0.86311  0.22453  0.85918  1.0000
  C   C230      1.0  0.87229  0.17897  0.87378  1.0000
  H   H254      1.0  0.91651  0.16987  0.8989399999999999  1.0000
  H   H255      1.0  0.84394  0.15922  0.82546  1.0000
  C   C231      1.0  0.86001  0.16771  0.9229  1.0000
  H   H256      1.0  0.88882  0.18674  0.97176  1.0000
  H   H257      1.0  0.81633  0.17719  0.8992299999999999  1.0000
  C   C232      1.0  0.8674  0.11852  0.93891  1.0000
  H   H258      1.0  0.8384399999999999  0.09886  0.8908499999999999  1.0000
  H   H259      1.0  0.8578999999999998  0.11146  0.97436  1.0000
  H   H260      1.0  0.91114  0.10846000000000003  0.96398  1.0000
  N   N45       1.0  0.64994  0.66619  0.29066  1.0000
  H   H261      1.0  0.6573  0.6651200000000002  0.33706  1.0000
  C   C233      1.0  0.69329  0.64522  0.29241  1.0000
  H   H262      1.0  0.73152  0.66617  0.3213599999999999  1.0000
  H   H263      1.0  0.67896  0.63933  0.23946  1.0000
  H   H264      1.0  0.7038  0.61284  0.31836  1.0000
  N   N46       1.0  0.33294  0.6683600000000001  0.70915  1.0000
  H   H265      1.0  0.32643  0.6604  0.66425  1.0000
  C   C234      1.0  0.28525  0.6618  0.70731  1.0000
  H   H266      1.0  0.25472999999999985  0.68901  0.6790899999999999  1.0000
  H   H267      1.0  0.2987499999999999  0.66042  0.76036  1.0000
  H   H268      1.0  0.26439999999999997  0.63005  0.6807999999999998  1.0000
  N   N47       1.0  0.15048999999999998  0.16832  0.28656  1.0000
  H   H269      1.0  0.15605  0.16586  0.33175  1.0000
  C   C235      1.0  0.19498000000000001  0.14836  0.2897  1.0000
  H   H270      1.0  0.23319  0.16931  0.32084  1.0000
  H   H271      1.0  0.18212  0.14382  0.23722  1.0000
  H   H272      1.0  0.20488  0.11542  0.31397  1.0000
  N   N48       1.0  0.7870999999999998  0.21916  0.71885  1.0000
  H   H273      1.0  0.77303  0.19264  0.68557  1.0000
  C   C236      1.0  0.7462099999999998  0.25284  0.6987499999999999  1.0000
  H   H274      1.0  0.73818  0.27284  0.65623  1.0000
  H   H275      1.0  0.76121  0.27455  0.74357  1.0000
  H   H276      1.0  0.7064199999999998  0.23705  0.6807999999999998  1.0000
  O   O69       1.0  0.86326  0.95636  0.53937  1.0000
  C   C237      1.0  0.85624  0.9577  0.59029  1.0000
  H   H277      1.0  0.8580399999999998  0.993  0.60405  1.0000
  H   H278      1.0  0.89138  0.94192  0.63818  1.0000
  C   C238      1.0  0.7998  0.93881  0.56531  1.0000
  H   H279      1.0  0.76522  0.95544  0.51724  1.0000
  H   H280      1.0  0.79772  0.90294  0.55479  1.0000
  C   C239      1.0  0.79174  0.94537  0.61949  1.0000
  H   H281      1.0  0.8255  0.92851  0.66795  1.0000
  H   H282      1.0  0.75089  0.9311  0.60033  1.0000
  H   H283      1.0  0.7921  0.98111  0.63021  1.0000
  O   O70       1.0  0.15624  0.95892  0.48757999999999996  1.0000
  C   C240      1.0  0.17350999999999994  0.96191  0.44673  1.0000
  H   H284      1.0  0.17432999999999998  0.99731  0.4371399999999999  1.0000
  H   H285      1.0  0.14270999999999998  0.9474  0.39494  1.0000
  C   C241      1.0  0.23253999999999997  0.9436100000000001  0.48290999999999995  1.0000
  H   H286      1.0  0.26327  0.96292  0.53065  1.0000
  H   H287      1.0  0.23454999999999998  0.90862  0.49661999999999995  1.0000
  C   C242      1.0  0.24902  0.94603  0.4366  1.0000
  H   H288      1.0  0.22149  0.92389  0.39145  1.0000
  H   H289      1.0  0.29289  0.93488  0.46533  1.0000
  H   H290      1.0  0.24548999999999999  0.98037  0.41901999999999995  1.0000
  O   O71       1.0  0.36942  0.44803  0.56016  1.0000
  C   C243      1.0  0.42308  0.4608400000000001  0.61983  1.0000
  H   H291      1.0  0.43484  0.49212  0.60886  1.0000
  H   H292      1.0  0.45664  0.43642  0.63691  1.0000
  C   C244      1.0  0.42096999999999996  0.46868999999999994  0.6789099999999999  1.0000
  H   H293      1.0  0.39204  0.49636  0.66575  1.0000
  H   H294      1.0  0.40481999999999996  0.43853  0.68643  1.0000
  C   C245      1.0  0.47887  0.47957  0.74591  1.0000
  H   H295      1.0  0.50761  0.45133  0.76153  1.0000
  H   H296      1.0  0.47578  0.48626  0.78737  1.0000
  H   H297      1.0  0.49654  0.5091  0.73951  1.0000
  O   O72       1.0  0.66197  0.4578  0.50393  1.0000
  C   C246      1.0  0.68078  0.46395  0.46529  1.0000
  H   H298      1.0  0.68309  0.49984  0.46031999999999995  1.0000
  H   H299      1.0  0.6502  0.45222  0.41152999999999995  1.0000
  C   C247      1.0  0.7393  0.44469  0.50136  1.0000
  H   H300      1.0  0.76965  0.46178  0.55168  1.0000
  H   H301      1.0  0.7395  0.40906  0.51102  1.0000
  C   C248      1.0  0.7578899999999998  0.45003  0.45748  1.0000
  H   H302      1.0  0.7296  0.43096  0.40872  1.0000
  H   H303      1.0  0.8010099999999999  0.4372  0.48576  1.0000
  H   H304      1.0  0.7574  0.48535  0.44556999999999997  1.0000
  O   O73       1.0  0.9065799999999996  0.85943  0.62822  1.0000
  C   C249      1.0  0.96031  0.87513  0.68413  1.0000
  H   H305      1.0  0.95608  0.89515  0.71827  1.0000
  H   H306      1.0  0.98025  0.89701  0.66911  1.0000
  C   C250      1.0  0.99796  0.83609  0.72629  1.0000
  H   H307      1.0  0.97919  0.81704  0.7453499999999998  1.0000
  H   H308      1.0  0.001059999999999973  0.81385  0.69329  1.0000
  C   C251      1.0  0.05638999999999993  0.85145  0.7877299999999999  1.0000
  H   H309      1.0  0.07585000000000003  0.87109  0.77014  1.0000
  H   H310      1.0  0.08303  0.8222900000000001  0.81611  1.0000
  H   H311      1.0  0.05424999999999992  0.87196  0.8232799999999999  1.0000
  O   O74       1.0  0.11514999999999999  0.87114  0.38076  1.0000
  C   C252      1.0  0.06459999999999998  0.88637  0.31957  1.0000
  H   H312      1.0  0.07507  0.90663  0.29205  1.0000
  H   H313      1.0  0.04036000000000002  0.90858  0.32807  1.0000
  C   C253      1.0  0.029949999999999973  0.8468500000000001  0.27324999999999994  1.0000
  H   H314      1.0  0.05272  0.82973  0.2577  1.0000
  H   H315      1.0  0.024419999999999976  0.82297  0.30209  1.0000
  C   C254      1.0  0.97276  0.86116  0.20886  1.0000
  H   H316      1.0  0.9489  0.87765  0.22326999999999997  1.0000
  H   H317      1.0  0.94882  0.83174  0.17645  1.0000
  H   H318      1.0  0.97758  0.88424  0.17843  1.0000
  O   O75       1.0  0.40873999999999994  0.35656  0.6263199999999999  1.0000
  C   C255      1.0  0.46359999999999996  0.3407  0.67306  1.0000
  H   H319      1.0  0.49405999999999994  0.3631  0.6766699999999999  1.0000
  H   H320      1.0  0.46582  0.30692  0.65727  1.0000
  C   C256      1.0  0.47892999999999997  0.33887  0.7444199999999999  1.0000
  H   H321      1.0  0.48151  0.37297  0.76307  1.0000
  H   H322      1.0  0.44575999999999993  0.32106  0.7411999999999999  1.0000
  C   C257      1.0  0.53472  0.31577  0.79592  1.0000
  H   H323      1.0  0.53244  0.28115  0.77917  1.0000
  H   H324      1.0  0.54472  0.31537  0.8472  1.0000
  H   H325      1.0  0.56865  0.33353  0.80058  1.0000
  O   O76       1.0  0.62472  0.37597  0.38897  1.0000
  C   C258      1.0  0.5753899999999998  0.39001000000000013  0.3253  1.0000
  H   H326      1.0  0.58796  0.41129  0.30095  1.0000
  H   H327      1.0  0.548  0.41105  0.3299  1.0000
  C   C259      1.0  0.54418  0.34989  0.27806  1.0000
  H   H328      1.0  0.57215  0.33175  0.27148  1.0000
  H   H329      1.0  0.53237  0.32697  0.30164  1.0000
  C   C260      1.0  0.49171  0.36355  0.20737  1.0000
  H   H330      1.0  0.46234  0.38084  0.21223999999999998  1.0000
  H   H331      1.0  0.47053  0.33373  0.17442  1.0000
  H   H332      1.0  0.50284  0.38567  0.18215999999999996  1.0000
  O   O77       1.0  0.9855300000000001  0.8532700000000001  0.58715  1.0000
  C   C261      1.0  0.005690000000000006  0.82487  0.56206  1.0000
  H   H333      1.0  0.037789999999999956  0.84271  0.56379  1.0000
  H   H334      1.0  0.97446  0.81544  0.50739  1.0000
  C   C262      1.0  0.03103000000000001  0.78348  0.60708  1.0000
  H   H335      1.0  0.0027999999999999818  0.77077  0.61688  1.0000
  H   H336      1.0  0.03556999999999992  0.7570700000000001  0.5796099999999998  1.0000
  C   C263      1.0  0.08782000000000001  0.7923200000000002  0.67668  1.0000
  H   H337      1.0  0.12073000000000005  0.79093  0.67095  1.0000
  H   H338      1.0  0.09693  0.76632  0.71359  1.0000
  H   H339      1.0  0.08889  0.8249500000000001  0.69812  1.0000
  O   O78       1.0  0.015229999999999985  0.86596  0.38688  1.0000
  C   C264      1.0  0.97978  0.84289  0.39449  1.0000
  H   H340      1.0  0.95244  0.8671  0.39415  1.0000
  H   H341      1.0  0.001800000000000009  0.82447  0.44293  1.0000
  C   C265      1.0  0.9439999999999997  0.81151  0.33257  1.0000
  H   H342      1.0  0.919  0.83106  0.28442  1.0000
  H   H343      1.0  0.97143  0.789  0.33026  1.0000
  C   C266      1.0  0.90463  0.78374  0.33594  1.0000
  H   H344      1.0  0.9286200000000001  0.76282  0.38243  1.0000
  H   H345      1.0  0.8791  0.76202  0.28966  1.0000
  H   H346      1.0  0.87639  0.80566  0.337  1.0000
  O   O79       1.0  0.48256000000000004  0.3497  0.57084  1.0000
  C   C267      1.0  0.49339999999999995  0.31257  0.54631  1.0000
  H   H347      1.0  0.53854  0.31271  0.5713299999999999  1.0000
  H   H348      1.0  0.4723499999999999  0.31489  0.49082  1.0000
  C   C268      1.0  0.4814599999999999  0.26904  0.56608  1.0000
  H   H349      1.0  0.5114099999999998  0.26546  0.62296  1.0000
  H   H350      1.0  0.43851  0.26868  0.54987  1.0000
  C   C269      1.0  0.48801  0.22974  0.5329  1.0000
  H   H351      1.0  0.45772  0.23207  0.47587  1.0000
  H   H352      1.0  0.47983  0.19866  0.54861  1.0000
  H   H353      1.0  0.53118  0.22872  0.54967  1.0000
  O   O80       1.0  0.5161  0.36551  0.37888  1.0000
  C   C270      1.0  0.47572  0.35543  0.38694  1.0000
  H   H354      1.0  0.47754  0.37812  0.4236  1.0000
  H   H355      1.0  0.4811  0.32129  0.40533  1.0000
  C   C271      1.0  0.4180299999999999  0.3581  0.31628  1.0000
  H   H356      1.0  0.41619  0.33492  0.27998  1.0000
  H   H357      1.0  0.38556  0.34764  0.3203  1.0000
  C   C272      1.0  0.40518  0.4047  0.28707  1.0000
  H   H358      1.0  0.40949  0.4289  0.32385  1.0000
  H   H359      1.0  0.36169  0.40593  0.23807  1.0000
  H   H360      1.0  0.43421999999999994  0.41426  0.27669999999999995  1.0000
  N   N49       1.0  0.8744599999999999  0.79569  0.43953  1.0000
  H   H361      1.0  0.83533  0.79  0.39348999999999995  1.0000
  C   C273      1.0  0.89976  0.7558  0.47937  1.0000
  H   H362      1.0  0.93491  0.74569  0.48017999999999994  1.0000
  H   H363      1.0  0.86885  0.72829  0.45501  1.0000
  H   H364      1.0  0.9147199999999999  0.76033  0.53266  1.0000
  N   N50       1.0  0.10043  0.79317  0.52242  1.0000
  H   H365      1.0  0.09029000000000005  0.79303  0.55468  1.0000
  C   C274      1.0  0.07224999999999995  0.76002  0.46813999999999995  1.0000
  H   H366      1.0  0.02986999999999998  0.75337  0.4516299999999999  1.0000
  H   H367      1.0  0.09595999999999998  0.72869  0.48830999999999997  1.0000
  H   H368      1.0  0.06900999999999996  0.77026  0.42295999999999995  1.0000
  N   N51       1.0  0.36862  0.30159  0.42373999999999995  1.0000
  H   H369      1.0  0.38563  0.3085  0.39986  1.0000
  C   C275      1.0  0.31706  0.27645000000000003  0.37987  1.0000
  H   H370      1.0  0.30755  0.26889  0.3297  1.0000
  H   H371      1.0  0.28099  0.29454  0.36952  1.0000
  H   H372      1.0  0.32217  0.2444  0.40433  1.0000
  N   N52       1.0  0.58539  0.2914  0.50204  1.0000
  H   H373      1.0  0.61276  0.27523  0.54796  1.0000
  C   C276      1.0  0.5591  0.26258  0.44228  1.0000
  H   H374      1.0  0.52065  0.24809  0.43032999999999993  1.0000
  H   H375      1.0  0.58722  0.23486  0.45311  1.0000
  H   H376      1.0  0.54772  0.28045  0.39636  1.0000
  N   N53       1.0  0.83454  0.88821  0.36438  1.0000
  H   H377      1.0  0.86584  0.88796  0.36011  1.0000
  C   C277      1.0  0.78403  0.86617  0.30726  1.0000
  H   H378      1.0  0.76541  0.8853500000000001  0.25967  1.0000
  H   H379      1.0  0.75259  0.86345  0.31535  1.0000
  H   H380      1.0  0.79323  0.83269  0.29881  1.0000
  N   N54       1.0  0.14853999999999992  0.87757  0.6263199999999999  1.0000
  H   H381      1.0  0.11424000000000004  0.87981  0.62457  1.0000
  C   C278      1.0  0.19209999999999988  0.84886  0.6794399999999999  1.0000
  H   H382      1.0  0.18996000000000007  0.84711  0.72233  1.0000
  H   H383      1.0  0.23383  0.8623400000000002  0.70173  1.0000
  H   H384      1.0  0.18788  0.81512  0.65883  1.0000
  N   N55       1.0  0.32508  0.39851  0.36191  1.0000
  H   H385      1.0  0.35409  0.4023100000000001  0.35423  1.0000
  C   C279      1.0  0.27557  0.37544  0.30535  1.0000
  H   H386      1.0  0.25224  0.39687  0.25939  1.0000
  H   H387      1.0  0.24754  0.36699  0.31758  1.0000
  H   H388      1.0  0.28738  0.34507  0.29212  1.0000
  N   N56       1.0  0.62885  0.37108  0.61448  1.0000
  H   H389      1.0  0.59005  0.37441  0.6019999999999999  1.0000
  C   C280      1.0  0.66397  0.33948  0.6681  1.0000
  H   H390      1.0  0.66585  0.34764  0.7131  1.0000
  H   H391      1.0  0.70706  0.34094  0.68537  1.0000
  H   H392      1.0  0.64648  0.30577  0.65016  1.0000
