data_image0
_chemical_formula_structural       C224H40O96Zn24I16F24I16
_chemical_formula_sum              "C224 H40 O96 Zn24 I32 F24"
_cell_length_a       30.73665
_cell_length_b       29.132749999999998
_cell_length_c       30.58056
_cell_angle_alpha    90.20470999999999
_cell_angle_beta     90.02064
_cell_angle_gamma    89.93601

_space_group_name_H-M_alt    "P 1"
_space_group_IT_number       1

loop_
  _space_group_symop_operation_xyz
  'x, y, z'

loop_
  _atom_site_type_symbol
  _atom_site_label
  _atom_site_symmetry_multiplicity
  _atom_site_fract_x
  _atom_site_fract_y
  _atom_site_fract_z
  _atom_site_occupancy
  C   C1        1.0  0.30976  0.99977  0.6900099999999998  1.0000
  C   C2        1.0  0.6899999999999997  0.99999  0.68976  1.0000
  C   C3        1.0  0.8097599999999998  0.49977999999999995  0.6900099999999998  1.0000
  C   C4        1.0  0.19005999999999995  0.49967999999999996  0.6897899999999999  1.0000
  C   C5        1.0  0.8097599999999998  0.99977  0.19000999999999996  1.0000
  C   C6        1.0  0.19  0.99999  0.18976  1.0000
  C   C7        1.0  0.30976  0.4997699999999999  0.19000999999999996  1.0000
  C   C8        1.0  0.6899999999999997  0.5  0.18976  1.0000
  C   C9        1.0  0.37469  0.0385  0.59537  1.0000
  C   C10       1.0  0.6372699999999998  0.9953899999999998  0.58002  1.0000
  C   C11       1.0  0.8747099999999998  0.53854  0.59539  1.0000
  C   C12       1.0  0.13612999999999995  0.4855999999999999  0.58149  1.0000
  C   C13       1.0  0.8746899999999997  0.0385  0.09537  1.0000
  C   C14       1.0  0.13725999999999997  0.99536  0.08003  1.0000
  C   C15       1.0  0.37469  0.5385  0.09537  1.0000
  C   C16       1.0  0.63726  0.49537  0.08003  1.0000
  C   C17       1.0  0.4030299999999999  0.0004199999999999996  0.5905099999999999  1.0000
  C   C18       1.0  0.59369  0.00117  0.59254  1.0000
  C   C19       1.0  0.9029999999999999  0.50041  0.59048  1.0000
  C   C20       1.0  0.09419999999999998  0.50115  0.59219  1.0000
  C   C21       1.0  0.90303  0.00042  0.09051  1.0000
  C   C22       1.0  0.09368999999999997  0.00117  0.09253999999999997  1.0000
  C   C23       1.0  0.4030299999999999  0.50041  0.09051  1.0000
  C   C24       1.0  0.59369  0.50117  0.09253999999999997  1.0000
  C   C25       1.0  0.39592999999999995  0.96096  0.61523  1.0000
  C   C26       1.0  0.5832299999999998  0.01387  0.63506  1.0000
  C   C27       1.0  0.8958199999999997  0.46092  0.61512  1.0000
  C   C28       1.0  0.08629999999999997  0.52223  0.63224  1.0000
  C   C29       1.0  0.8959299999999998  0.96096  0.11523  1.0000
  C   C30       1.0  0.08323999999999997  0.01389  0.13505  1.0000
  C   C31       1.0  0.39592999999999995  0.46095999999999987  0.11523  1.0000
  C   C32       1.0  0.5832399999999998  0.51388  0.13506  1.0000
  C   C33       1.0  0.4274399999999999  0.93336  0.6415599999999999  1.0000
  C   C34       1.0  0.5500999999999998  0.9937  0.66503  1.0000
  C   C35       1.0  0.9272499999999998  0.43312  0.6413499999999998  1.0000
  C   C36       1.0  0.050579999999999986  0.51348  0.66421  1.0000
  C   C37       1.0  0.92744  0.93337  0.14156  1.0000
  C   C38       1.0  0.05008999999999999  0.99375  0.16502999999999995  1.0000
  C   C39       1.0  0.4274399999999999  0.43336  0.14156  1.0000
  C   C40       1.0  0.55009  0.49373  0.16502999999999995  1.0000
  C   C41       1.0  0.3937499999999999  0.9333799999999998  0.67784  1.0000
  C   C42       1.0  0.585  0.99397  0.70012  1.0000
  C   C43       1.0  0.8935899999999998  0.4331699999999999  0.67766  1.0000
  C   C44       1.0  0.08528  0.51302  0.69951  1.0000
  C   C45       1.0  0.8937499999999998  0.9333899999999998  0.17784  1.0000
  C   C46       1.0  0.08498999999999997  0.99402  0.20013  1.0000
  C   C47       1.0  0.3937499999999999  0.43337999999999993  0.17784  1.0000
  C   C48       1.0  0.5849899999999998  0.494  0.20013  1.0000
  C   C49       1.0  0.14959  0.03656  0.8677  1.0000
  C   C50       1.0  0.8487299999999998  0.03633  0.8686799999999999  1.0000
  C   C51       1.0  0.64959  0.53657  0.8677  1.0000
  C   C52       1.0  0.34873  0.53633  0.8686799999999999  1.0000
  C   C53       1.0  0.6495799999999998  0.036569999999999984  0.36769  1.0000
  C   C54       1.0  0.3487399999999999  0.03635  0.3686699999999999  1.0000
  C   C55       1.0  0.13661  0.4614999999999999  0.35403  1.0000
  C   C56       1.0  0.8485299999999998  0.53615  0.36889  1.0000
  C   C57       1.0  0.15786999999999995  0.9982899999999999  0.8423099999999998  1.0000
  C   C58       1.0  0.84272  0.99776  0.8425  1.0000
  C   C59       1.0  0.65787  0.49829  0.8423099999999998  1.0000
  C   C60       1.0  0.3427199999999999  0.49775999999999987  0.8425  1.0000
  C   C61       1.0  0.65787  0.9982899999999999  0.34231  1.0000
  C   C62       1.0  0.3427199999999999  0.99776  0.3425  1.0000
  C   C63       1.0  0.15824999999999995  0.50113  0.34255999999999986  1.0000
  C   C64       1.0  0.8427299999999998  0.4976999999999999  0.34251  1.0000
  C   C65       1.0  0.13278  0.9583799999999998  0.8485899999999997  1.0000
  C   C66       1.0  0.8734899999999998  0.9618899999999999  0.8431  1.0000
  C   C67       1.0  0.6327799999999998  0.4583799999999999  0.8485899999999997  1.0000
  C   C68       1.0  0.37349  0.46189  0.8431  1.0000
  C   C69       1.0  0.6327899999999997  0.9583799999999998  0.3486  1.0000
  C   C70       1.0  0.37347999999999987  0.9618899999999999  0.34311  1.0000
  C   C71       1.0  0.14818999999999993  0.54246  0.36433  1.0000
  C   C72       1.0  0.8736999999999999  0.46202  0.34292  1.0000
  C   C73       1.0  0.10009  0.95862  0.88053  1.0000
  C   C74       1.0  0.9066699999999998  0.96297  0.8742199999999998  1.0000
  C   C75       1.0  0.6000899999999998  0.4586099999999999  0.8805399999999998  1.0000
  C   C76       1.0  0.40666999999999986  0.4629699999999999  0.8742199999999998  1.0000
  C   C77       1.0  0.6000999999999997  0.95861  0.38055  1.0000
  C   C78       1.0  0.4066599999999999  0.9629599999999999  0.37423  1.0000
  C   C79       1.0  0.11599999999999998  0.54238  0.39674  1.0000
  C   C80       1.0  0.9068899999999998  0.46313  0.37403  1.0000
  C   C81       1.0  0.09246  0.99873  0.9055399999999998  1.0000
  C   C82       1.0  0.9094099999999998  0.00021999999999999914  0.9034099999999998  1.0000
  C   C83       1.0  0.5924599999999998  0.4987299999999999  0.9055399999999998  1.0000
  C   C84       1.0  0.40941  0.50022  0.9034099999999998  1.0000
  C   C85       1.0  0.5924599999999998  0.99873  0.40554  1.0000
  C   C86       1.0  0.40941  0.0002200000000000001  0.40341  1.0000
  C   C87       1.0  0.09433  0.50103  0.4072999999999999  1.0000
  C   C88       1.0  0.90942  0.50023  0.40341  1.0000
  C   C89       1.0  0.25008999999999987  0.91426  0.74987  1.0000
  C   C90       1.0  0.7499499999999998  0.08573  0.7500399999999999  1.0000
  C   C91       1.0  0.7500199999999998  0.91426  0.7499399999999998  1.0000
  C   C92       1.0  0.25012  0.08574  0.7499399999999998  1.0000
  C   C93       1.0  0.7500899999999998  0.41426  0.74987  1.0000
  C   C94       1.0  0.24994999999999998  0.5857299999999998  0.7500399999999999  1.0000
  C   C95       1.0  0.25002  0.41426  0.7499399999999998  1.0000
  C   C96       1.0  0.7501199999999998  0.5857399999999999  0.7499399999999998  1.0000
  C   C97       1.0  0.7500899999999998  0.91426  0.24987  1.0000
  C   C98       1.0  0.24994999999999998  0.08574  0.25005  1.0000
  C   C99       1.0  0.25002  0.91426  0.24992999999999996  1.0000
  C   C100      1.0  0.7501199999999998  0.08574  0.24994  1.0000
  C   C101      1.0  0.24999999999999994  0.41426  0.24995  1.0000
  C   C102      1.0  0.7499599999999997  0.5857299999999998  0.25005  1.0000
  C   C103      1.0  0.7500299999999998  0.41426  0.24994  1.0000
  C   C104      1.0  0.2501799999999999  0.5857399999999999  0.24986  1.0000
  C   C105      1.0  0.11791999999999997  0.03685999999999999  0.8977699999999997  1.0000
  C   C106      1.0  0.8825399999999998  0.03818  0.8977699999999997  1.0000
  C   C107      1.0  0.61792  0.53687  0.8977699999999997  1.0000
  C   C108      1.0  0.3825399999999999  0.53818  0.8977699999999997  1.0000
  C   C109      1.0  0.6179099999999997  0.03687  0.39776  1.0000
  C   C110      1.0  0.3825499999999999  0.03818  0.39776  1.0000
  C   C111      1.0  0.10606  0.4614299999999999  0.38525  1.0000
  C   C112      1.0  0.8823499999999997  0.53806  0.3979699999999999  1.0000
  C   C113      1.0  0.12568  0.0855  0.91057  1.0000
  C   C114      1.0  0.8568599999999997  0.06513  0.93033  1.0000
  C   C115      1.0  0.62566  0.5855  0.91056  1.0000
  C   C116      1.0  0.35687  0.56513  0.93033  1.0000
  C   C117      1.0  0.62565  0.08550999999999997  0.41054  1.0000
  C   C118      1.0  0.3568899999999999  0.06516  0.43031  1.0000
  C   C119      1.0  0.09765  0.4113  0.3810599999999999  1.0000
  C   C120      1.0  0.85655  0.5647  0.43066  1.0000
  C   C121      1.0  0.16185  0.08546  0.87542  1.0000
  C   C122      1.0  0.8187299999999997  0.06261  0.89838  1.0000
  C   C123      1.0  0.6618299999999998  0.5854699999999999  0.8754  1.0000
  C   C124      1.0  0.3187299999999999  0.5626099999999998  0.89837  1.0000
  C   C125      1.0  0.66182  0.08548  0.37538  1.0000
  C   C126      1.0  0.31874999999999987  0.06265  0.39835  1.0000
  C   C127      1.0  0.1333  0.41122999999999993  0.3453499999999999  1.0000
  C   C128      1.0  0.8183999999999998  0.56208  0.39873  1.0000
  C   C129      1.0  0.9398199999999998  0.99997  0.93869  1.0000
  C   C130      1.0  0.05994999999999999  0.99979  0.93858  1.0000
  C   C131      1.0  0.4398199999999999  0.49997  0.93869  1.0000
  C   C132      1.0  0.5599499999999998  0.49979  0.93858  1.0000
  C   C133      1.0  0.4398199999999999  0.99997  0.43869  1.0000
  C   C134      1.0  0.5599499999999998  0.99979  0.4385699999999999  1.0000
  C   C135      1.0  0.9398399999999998  0.49997  0.43867  1.0000
  C   C136      1.0  0.06098  0.50011  0.43955  1.0000
  C   C137      1.0  0.4384499999999999  0.00021999999999999985  0.56005  1.0000
  C   C138      1.0  0.5599599999999998  0.00012999999999999993  0.56117  1.0000
  C   C139      1.0  0.9384399999999998  0.50022  0.5600399999999998  1.0000
  C   C140      1.0  0.06012999999999999  0.50012  0.56107  1.0000
  C   C141      1.0  0.9384499999999998  0.00022  0.06005  1.0000
  C   C142      1.0  0.059959999999999986  0.00013  0.06117  1.0000
  C   C143      1.0  0.4384499999999999  0.50023  0.06005  1.0000
  C   C144      1.0  0.5599599999999998  0.50013  0.06117  1.0000
  C   C145      1.0  0.19025999999999996  0.00015000000000000004  0.80986  1.0000
  C   C146      1.0  0.8098199999999998  0.99899  0.81  1.0000
  C   C147      1.0  0.6902599999999998  0.50015  0.80986  1.0000
  C   C148      1.0  0.30982  0.49899  0.81  1.0000
  C   C149      1.0  0.6902599999999998  0.00015000000000000015  0.30986  1.0000
  C   C150      1.0  0.30982  0.99899  0.31  1.0000
  C   C151      1.0  0.19032  0.49952  0.30986  1.0000
  C   C152      1.0  0.8098199999999998  0.4989299999999999  0.31  1.0000
  C   C153      1.0  0.25005  0.86343  0.74985  1.0000
  C   C154      1.0  0.7498699999999998  0.13656  0.75011  1.0000
  C   C155      1.0  0.7501799999999997  0.86344  0.7499  1.0000
  C   C156      1.0  0.25032  0.13656  0.74988  1.0000
  C   C157      1.0  0.7500499999999998  0.36343  0.74985  1.0000
  C   C158      1.0  0.24985999999999994  0.63656  0.75011  1.0000
  C   C159      1.0  0.2501799999999999  0.36344  0.7499  1.0000
  C   C160      1.0  0.7503199999999998  0.63656  0.74988  1.0000
  C   C161      1.0  0.7500499999999998  0.86343  0.24984999999999993  1.0000
  C   C162      1.0  0.24984  0.13656  0.25012  1.0000
  C   C163      1.0  0.2501699999999999  0.86344  0.24988  1.0000
  C   C164      1.0  0.7503199999999998  0.13656  0.24988  1.0000
  C   C165      1.0  0.24990999999999994  0.36344  0.24992999999999996  1.0000
  C   C166      1.0  0.7498699999999998  0.63656  0.25011  1.0000
  C   C167      1.0  0.7501799999999997  0.36344  0.2499  1.0000
  C   C168      1.0  0.25031  0.63656  0.24982  1.0000
  C   C169      1.0  0.24998999999999993  0.82112  0.74992  1.0000
  C   C170      1.0  0.74986  0.17887  0.75013  1.0000
  C   C171      1.0  0.7502699999999998  0.82113  0.74991  1.0000
  C   C172      1.0  0.2503799999999999  0.17887  0.7498899999999997  1.0000
  C   C173      1.0  0.75  0.3211199999999999  0.74992  1.0000
  C   C174      1.0  0.24985999999999994  0.67887  0.75013  1.0000
  C   C175      1.0  0.2502799999999999  0.32113  0.74991  1.0000
  C   C176      1.0  0.7503799999999998  0.67887  0.7498899999999997  1.0000
  C   C177      1.0  0.75  0.82112  0.24992  1.0000
  C   C178      1.0  0.24979999999999994  0.17887999999999996  0.25016  1.0000
  C   C179      1.0  0.25026  0.82113  0.24987  1.0000
  C   C180      1.0  0.7503799999999998  0.17887  0.24988999999999995  1.0000
  C   C181      1.0  0.24984  0.32113  0.25  1.0000
  C   C182      1.0  0.7498699999999998  0.67887  0.25013  1.0000
  C   C183      1.0  0.7502799999999997  0.32113  0.24991  1.0000
  C   C184      1.0  0.25034  0.67888  0.24983  1.0000
  C   C185      1.0  0.24992999999999996  0.7711499999999998  0.75003  1.0000
  C   C186      1.0  0.74989  0.22883999999999996  0.7500999999999998  1.0000
  C   C187      1.0  0.7503399999999998  0.7711499999999998  0.74992  1.0000
  C   C188      1.0  0.2503799999999999  0.22883999999999996  0.74991  1.0000
  C   C189      1.0  0.74993  0.27115  0.75003  1.0000
  C   C190      1.0  0.24988999999999995  0.72884  0.75009  1.0000
  C   C191      1.0  0.25035  0.27115  0.74992  1.0000
  C   C192      1.0  0.7503799999999998  0.72884  0.74991  1.0000
  C   C193      1.0  0.7499399999999998  0.7711499999999998  0.25003  1.0000
  C   C194      1.0  0.24977999999999995  0.22885  0.25016  1.0000
  C   C195      1.0  0.25033  0.7711599999999998  0.24987  1.0000
  C   C196      1.0  0.7503799999999998  0.22883999999999996  0.24991  1.0000
  C   C197      1.0  0.24978999999999996  0.27116  0.25011  1.0000
  C   C198      1.0  0.7498999999999999  0.72884  0.2501  1.0000
  C   C199      1.0  0.7503499999999997  0.27115  0.24992  1.0000
  C   C200      1.0  0.25035  0.7288499999999998  0.24984999999999993  1.0000
  C   C201      1.0  0.3655199999999999  0.96084  0.64804  1.0000
  C   C202      1.0  0.61481  0.014179999999999998  0.66676  1.0000
  C   C203      1.0  0.8654299999999998  0.4608  0.64794  1.0000
  C   C204      1.0  0.11767999999999998  0.52194  0.66414  1.0000
  C   C205      1.0  0.8655199999999997  0.96084  0.14803999999999995  1.0000
  C   C206      1.0  0.11481999999999998  0.01421  0.16675  1.0000
  C   C207      1.0  0.3655199999999999  0.4608299999999999  0.14803999999999995  1.0000
  C   C208      1.0  0.61482  0.5142  0.16675  1.0000
  C   C209      1.0  0.3415099999999999  0.00012999999999999874  0.6565599999999998  1.0000
  C   C210      1.0  0.65758  0.002779999999999998  0.65618  1.0000
  C   C211      1.0  0.8414999999999998  0.50014  0.6565599999999998  1.0000
  C   C212      1.0  0.15787999999999994  0.50158  0.65605  1.0000
  C   C213      1.0  0.8415099999999998  0.00013  0.15656  1.0000
  C   C214      1.0  0.15759  0.00278  0.15618  1.0000
  C   C215      1.0  0.3415099999999999  0.50013  0.15656  1.0000
  C   C216      1.0  0.65758  0.50278  0.15618  1.0000
  C   C217      1.0  0.3434699999999999  0.03755  0.62825  1.0000
  C   C218      1.0  0.6692799999999998  0.9963999999999997  0.61212  1.0000
  C   C219      1.0  0.8435099999999998  0.5376  0.6283  1.0000
  C   C220      1.0  0.16810999999999995  0.4861999999999999  0.61366  1.0000
  C   C221      1.0  0.8434699999999998  0.03755  0.12825  1.0000
  C   C222      1.0  0.16927999999999996  0.99637  0.11212  1.0000
  C   C223      1.0  0.3434699999999999  0.53755  0.12825  1.0000
  C   C224      1.0  0.6692799999999998  0.49638  0.11212  1.0000
  H   H1        1.0  0.3221799999999999  0.06683  0.6331  1.0000
  H   H2        1.0  0.7027299999999997  0.98998  0.60279  1.0000
  H   H3        1.0  0.8222699999999997  0.5668999999999998  0.63319  1.0000
  H   H4        1.0  0.20008  0.47268  0.60608  1.0000
  H   H5        1.0  0.82218  0.06683  0.13309  1.0000
  H   H6        1.0  0.20272999999999994  0.98993  0.10279  1.0000
  H   H7        1.0  0.3221799999999999  0.5668199999999998  0.1331  1.0000
  H   H8        1.0  0.7027299999999997  0.4899499999999999  0.10279  1.0000
  H   H9        1.0  0.4331299999999999  0.8987899999999998  0.62716  1.0000
  H   H10       1.0  0.52294  0.01792  0.67185  1.0000
  H   H11       1.0  0.53998  0.95857  0.65497  1.0000
  H   H12       1.0  0.4573599999999999  0.95287  0.65  1.0000
  H   H13       1.0  0.9327999999999997  0.39856  0.62685  1.0000
  H   H14       1.0  0.02788  0.54308  0.66695  1.0000
  H   H15       1.0  0.03475  0.47956999999999994  0.65917  1.0000
  H   H16       1.0  0.9572699999999997  0.45246  0.6498099999999998  1.0000
  H   H17       1.0  0.9331399999999997  0.8987899999999998  0.12717  1.0000
  H   H18       1.0  0.022949999999999995  0.017989999999999996  0.17184  1.0000
  H   H19       1.0  0.03995999999999999  0.95862  0.15499  1.0000
  H   H20       1.0  0.9573699999999998  0.95287  0.15  1.0000
  H   H21       1.0  0.4331299999999999  0.39879  0.12716  1.0000
  H   H22       1.0  0.52295  0.51797  0.17184  1.0000
  H   H23       1.0  0.5399699999999997  0.4586  0.15497999999999995  1.0000
  H   H24       1.0  0.4573599999999999  0.45287  0.15  1.0000
  H   H25       1.0  0.3799599999999999  0.89883  0.68438  1.0000
  H   H26       1.0  0.5779899999999998  0.01835  0.72727  1.0000
  H   H27       1.0  0.59511  0.9589899999999998  0.7105  1.0000
  H   H28       1.0  0.4040899999999999  0.95294  0.70736  1.0000
  H   H29       1.0  0.8796899999999997  0.3986499999999999  0.68413  1.0000
  H   H30       1.0  0.08259  0.54234  0.72272  1.0000
  H   H31       1.0  0.08956999999999997  0.47881  0.71498  1.0000
  H   H32       1.0  0.9040099999999998  0.45261999999999997  0.70722  1.0000
  H   H33       1.0  0.87997  0.89883  0.18438  1.0000
  H   H34       1.0  0.07799999999999997  0.01842  0.22726  1.0000
  H   H35       1.0  0.09508999999999997  0.95904  0.21052  1.0000
  H   H36       1.0  0.90409  0.95294  0.20735999999999993  1.0000
  H   H37       1.0  0.3799599999999999  0.3988199999999999  0.18438  1.0000
  H   H38       1.0  0.578  0.5184  0.22727  1.0000
  H   H39       1.0  0.5950999999999997  0.45903  0.21050999999999995  1.0000
  H   H40       1.0  0.4040899999999999  0.45293  0.20735999999999993  1.0000
  O   O1        1.0  0.3216699999999999  0.0  0.73006  1.0000
  O   O2        1.0  0.6783299999999998  0.0  0.73006  1.0000
  O   O3        1.0  0.8216699999999999  0.5  0.73006  1.0000
  O   O4        1.0  0.17832999999999993  0.5  0.73006  1.0000
  O   O5        1.0  0.8216699999999999  0.0  0.23006  1.0000
  O   O6        1.0  0.17832999999999993  0.0  0.23006  1.0000
  O   O7        1.0  0.3216699999999999  0.5  0.23006  1.0000
  O   O8        1.0  0.6783299999999998  0.5  0.23006  1.0000
  O   O9        1.0  0.26993999999999996  0.0  0.67834  1.0000
  O   O10       1.0  0.7300599999999998  0.0  0.67834  1.0000
  O   O11       1.0  0.7699399999999997  0.5  0.67834  1.0000
  O   O12       1.0  0.23005999999999993  0.5  0.67834  1.0000
  O   O13       1.0  0.7699399999999997  0.0  0.17834  1.0000
  O   O14       1.0  0.23005999999999993  0.0  0.17834  1.0000
  O   O15       1.0  0.26993999999999996  0.5  0.17834  1.0000
  O   O16       1.0  0.7300599999999998  0.5  0.17834  1.0000
  O   O17       1.0  0.2758699999999999  0.93686  0.77586  1.0000
  O   O18       1.0  0.72413  0.06314  0.77586  1.0000
  O   O19       1.0  0.72413  0.93686  0.77586  1.0000
  O   O20       1.0  0.2758699999999999  0.06314  0.77586  1.0000
  O   O21       1.0  0.77587  0.4368599999999999  0.77586  1.0000
  O   O22       1.0  0.22413  0.5631399999999998  0.77586  1.0000
  O   O23       1.0  0.22412999999999994  0.4368599999999999  0.77586  1.0000
  O   O24       1.0  0.77587  0.5631399999999998  0.77586  1.0000
  O   O25       1.0  0.77587  0.93686  0.27586  1.0000
  O   O26       1.0  0.22412999999999994  0.06314  0.27586  1.0000
  O   O27       1.0  0.22412999999999994  0.93686  0.27586  1.0000
  O   O28       1.0  0.77587  0.06314  0.27586  1.0000
  O   O29       1.0  0.2758699999999999  0.4368599999999999  0.27586  1.0000
  O   O30       1.0  0.72413  0.5631399999999998  0.27586  1.0000
  O   O31       1.0  0.72413  0.4368599999999999  0.27586  1.0000
  O   O32       1.0  0.2758699999999999  0.5631399999999998  0.27586  1.0000
  O   O33       1.0  0.22413999999999995  0.9368699999999998  0.72414  1.0000
  O   O34       1.0  0.7758599999999998  0.06313  0.72414  1.0000
  O   O35       1.0  0.7758599999999998  0.9368699999999998  0.72414  1.0000
  O   O36       1.0  0.22413999999999995  0.06313  0.72414  1.0000
  O   O37       1.0  0.7241399999999999  0.43687  0.72414  1.0000
  O   O38       1.0  0.2758599999999999  0.56313  0.72414  1.0000
  O   O39       1.0  0.2758599999999999  0.43687  0.72414  1.0000
  O   O40       1.0  0.7241399999999999  0.56313  0.72414  1.0000
  O   O41       1.0  0.7241399999999999  0.9368699999999998  0.22414  1.0000
  O   O42       1.0  0.2758599999999999  0.06313  0.22414  1.0000
  O   O43       1.0  0.2758599999999999  0.9368699999999998  0.22414  1.0000
  O   O44       1.0  0.7241399999999999  0.06313  0.22414  1.0000
  O   O45       1.0  0.22413999999999995  0.43687  0.22414  1.0000
  O   O46       1.0  0.7758599999999998  0.56313  0.22414  1.0000
  O   O47       1.0  0.7758599999999998  0.43687  0.22414  1.0000
  O   O48       1.0  0.22413999999999995  0.56313  0.22414  1.0000
  O   O49       1.0  0.23005999999999993  0.0  0.8216699999999999  1.0000
  O   O50       1.0  0.7699399999999997  0.0  0.8216699999999999  1.0000
  O   O51       1.0  0.7300599999999998  0.5  0.8216699999999999  1.0000
  O   O52       1.0  0.26993999999999996  0.5  0.8216699999999999  1.0000
  O   O53       1.0  0.7300599999999998  0.0  0.32167  1.0000
  O   O54       1.0  0.26993999999999996  0.0  0.32167  1.0000
  O   O55       1.0  0.23005999999999993  0.5  0.32167  1.0000
  O   O56       1.0  0.7699399999999997  0.5  0.32167  1.0000
  O   O57       1.0  0.17832999999999993  0.0  0.76995  1.0000
  O   O58       1.0  0.8216699999999999  0.0  0.76995  1.0000
  O   O59       1.0  0.6783299999999998  0.5  0.76995  1.0000
  O   O60       1.0  0.3216699999999999  0.5  0.76995  1.0000
  O   O61       1.0  0.6783299999999998  0.0  0.26995  1.0000
  O   O62       1.0  0.3216699999999999  0.0  0.26995  1.0000
  O   O63       1.0  0.17832999999999993  0.5  0.26995  1.0000
  O   O64       1.0  0.8216699999999999  0.5  0.26995  1.0000
  O   O65       1.0  0.9541699999999997  0.96433  0.95418  1.0000
  O   O66       1.0  0.04582999999999999  0.03566999999999999  0.95418  1.0000
  O   O67       1.0  0.04582999999999999  0.96433  0.95418  1.0000
  O   O68       1.0  0.9541699999999997  0.03566999999999999  0.95418  1.0000
  O   O69       1.0  0.4541699999999999  0.46433  0.95418  1.0000
  O   O70       1.0  0.5458299999999998  0.53567  0.95418  1.0000
  O   O71       1.0  0.5458299999999998  0.46433  0.95418  1.0000
  O   O72       1.0  0.4541699999999999  0.53567  0.95418  1.0000
  O   O73       1.0  0.4541699999999999  0.96433  0.45417999999999986  1.0000
  O   O74       1.0  0.5458299999999998  0.03566999999999999  0.45417999999999986  1.0000
  O   O75       1.0  0.5458299999999998  0.96433  0.45417999999999986  1.0000
  O   O76       1.0  0.4541699999999999  0.03566999999999999  0.45417999999999986  1.0000
  O   O77       1.0  0.9541699999999997  0.46433  0.45417999999999986  1.0000
  O   O78       1.0  0.04582999999999999  0.53567  0.45417999999999986  1.0000
  O   O79       1.0  0.04582999999999999  0.46433  0.45417999999999986  1.0000
  O   O80       1.0  0.9541699999999997  0.53567  0.45417999999999986  1.0000
  O   O81       1.0  0.45418  0.9643599999999998  0.5457899999999998  1.0000
  O   O82       1.0  0.54582  0.035639999999999984  0.5457899999999998  1.0000
  O   O83       1.0  0.54582  0.9643599999999998  0.5457899999999998  1.0000
  O   O84       1.0  0.45418  0.035639999999999984  0.5457899999999998  1.0000
  O   O85       1.0  0.9541799999999998  0.46436  0.5457899999999998  1.0000
  O   O86       1.0  0.045819999999999986  0.53564  0.5457899999999998  1.0000
  O   O87       1.0  0.045819999999999986  0.46436  0.5457899999999998  1.0000
  O   O88       1.0  0.9541799999999998  0.53564  0.5457899999999998  1.0000
  O   O89       1.0  0.9541799999999998  0.9643599999999998  0.04579  1.0000
  O   O90       1.0  0.045819999999999986  0.035639999999999984  0.04579  1.0000
  O   O91       1.0  0.045819999999999986  0.9643599999999998  0.04579  1.0000
  O   O92       1.0  0.9541799999999998  0.035639999999999984  0.04579  1.0000
  O   O93       1.0  0.45418  0.46436  0.04579  1.0000
  O   O94       1.0  0.54582  0.53564  0.04579  1.0000
  O   O95       1.0  0.54582  0.46436  0.04579  1.0000
  O   O96       1.0  0.45418  0.53564  0.04579  1.0000
  Zn  Zn1       1.0  0.2845399999999999  0.0  0.78454  1.0000
  Zn  Zn2       1.0  0.7154599999999998  0.0  0.78454  1.0000
  Zn  Zn3       1.0  0.7845399999999998  0.5  0.78454  1.0000
  Zn  Zn4       1.0  0.21546  0.5  0.78454  1.0000
  Zn  Zn5       1.0  0.7845399999999998  0.0  0.2845399999999999  1.0000
  Zn  Zn6       1.0  0.21546  0.0  0.2845399999999999  1.0000
  Zn  Zn7       1.0  0.2845399999999999  0.5  0.2845399999999999  1.0000
  Zn  Zn8       1.0  0.7154599999999998  0.5  0.2845399999999999  1.0000
  Zn  Zn9       1.0  0.21546  0.0  0.71547  1.0000
  Zn  Zn10      1.0  0.7845399999999998  0.0  0.71547  1.0000
  Zn  Zn11      1.0  0.7154599999999998  0.5  0.71547  1.0000
  Zn  Zn12      1.0  0.2845399999999999  0.5  0.71547  1.0000
  Zn  Zn13      1.0  0.7154599999999998  0.0  0.21546999999999994  1.0000
  Zn  Zn14      1.0  0.2845399999999999  0.0  0.21546999999999994  1.0000
  Zn  Zn15      1.0  0.21546  0.5  0.21546999999999994  1.0000
  Zn  Zn16      1.0  0.7845399999999998  0.5  0.21546999999999994  1.0000
  Zn  Zn17      1.0  0.0  0.9524  0.99999  1.0000
  Zn  Zn18      1.0  0.9999999999999998  0.047599999999999996  0.99999  1.0000
  Zn  Zn19      1.0  0.4999999999999999  0.4524  0.99999  1.0000
  Zn  Zn20      1.0  0.4999999999999999  0.5476  0.99999  1.0000
  Zn  Zn21      1.0  0.4999999999999999  0.9524  0.4999899999999999  1.0000
  Zn  Zn22      1.0  0.4999999999999999  0.0476  0.4999899999999999  1.0000
  Zn  Zn23      1.0  0.0  0.4524  0.4999899999999999  1.0000
  Zn  Zn24      1.0  0.0  0.5476  0.4999899999999999  1.0000
  I   I1        1.0  0.3769999999999999  0.09972  0.55767  1.0000
  I   I2        1.0  0.6563499999999998  0.98243  0.51445  1.0000
  I   I3        1.0  0.8770599999999997  0.59977  0.55772  1.0000
  I   I4        1.0  0.15264999999999995  0.45967999999999987  0.51864  1.0000
  I   I5        1.0  0.8769999999999998  0.09972  0.057669999999999985  1.0000
  I   I6        1.0  0.15634  0.98236  0.01446  1.0000
  I   I7        1.0  0.3769999999999999  0.59972  0.057669999999999985  1.0000
  I   I8        1.0  0.65634  0.48237999999999986  0.01445  1.0000
  I   I9        1.0  0.14319999999999994  0.8974  0.81167  1.0000
  I   I10       1.0  0.8685399999999998  0.90343  0.80148  1.0000
  I   I11       1.0  0.64321  0.3974  0.8116799999999997  1.0000
  I   I12       1.0  0.3685299999999999  0.40342  0.80149  1.0000
  I   I13       1.0  0.6432299999999997  0.8973899999999998  0.3117  1.0000
  I   I14       1.0  0.36850999999999995  0.90341  0.30151  1.0000
  I   I15       1.0  0.17989999999999995  0.6052399999999998  0.34938  1.0000
  I   I16       1.0  0.8690799999999997  0.4037399999999999  0.30102  1.0000
  F   F1        1.0  0.07565999999999998  0.9203  0.88646  1.0000
  F   F2        1.0  0.93507  0.92732  0.87686  1.0000
  F   F3        1.0  0.57567  0.4202999999999999  0.88647  1.0000
  F   F4        1.0  0.4350699999999999  0.42732  0.87686  1.0000
  F   F5        1.0  0.5756899999999998  0.92029  0.38647999999999993  1.0000
  F   F6        1.0  0.4350499999999999  0.9273  0.37688  1.0000
  F   F7        1.0  0.10644999999999998  0.58226  0.41782999999999987  1.0000
  F   F8        1.0  0.9354999999999998  0.42765  0.37649  1.0000
  F   F9        1.0  0.09044999999999997  0.11348999999999998  0.90138  1.0000
  F   F10       1.0  0.85067  0.041509999999999984  0.96904  1.0000
  F   F11       1.0  0.8736199999999997  0.10872999999999998  0.9366499999999998  1.0000
  F   F12       1.0  0.14035  0.08971  0.9531899999999998  1.0000
  F   F13       1.0  0.5904299999999998  0.6134899999999999  0.90137  1.0000
  F   F14       1.0  0.35068  0.54151  0.96904  1.0000
  F   F15       1.0  0.3736199999999999  0.6087299999999999  0.9366499999999998  1.0000
  F   F16       1.0  0.6403399999999998  0.58972  0.95317  1.0000
  F   F17       1.0  0.59041  0.11348999999999998  0.40135  1.0000
  F   F18       1.0  0.35068  0.04155  0.46903  1.0000
  F   F19       1.0  0.3736599999999999  0.10875  0.43662  1.0000
  F   F20       1.0  0.64032  0.08974999999999998  0.45315  1.0000
  F   F21       1.0  0.10831999999999997  0.3874899999999999  0.41866  1.0000
  F   F22       1.0  0.8505399999999997  0.54088  0.46929  1.0000
  F   F23       1.0  0.8730599999999997  0.60838  0.43713  1.0000
  F   F24       1.0  0.05608999999999999  0.40201  0.36603  1.0000
  I   I17       1.0  0.14902999999999994  0.12748  0.81943  1.0000
  I   I18       1.0  0.76394  0.02477  0.9234099999999997  1.0000
  I   I19       1.0  0.7997  0.12674  0.86995  1.0000
  I   I20       1.0  0.22699999999999995  0.09245  0.89959  1.0000
  I   I21       1.0  0.64901  0.62748  0.81941  1.0000
  I   I22       1.0  0.2639399999999999  0.52478  0.9234099999999997  1.0000
  I   I23       1.0  0.29971  0.62675  0.86994  1.0000
  I   I24       1.0  0.72698  0.59247  0.8995799999999998  1.0000
  I   I25       1.0  0.6489899999999997  0.12747  0.31938  1.0000
  I   I26       1.0  0.2639399999999999  0.024839999999999994  0.4234  1.0000
  I   I27       1.0  0.29974999999999996  0.12678  0.36991  1.0000
  I   I28       1.0  0.7269599999999998  0.0925  0.39956  1.0000
  I   I29       1.0  0.19210999999999995  0.37573  0.36209999999999987  1.0000
  I   I30       1.0  0.7638899999999997  0.52371  0.42364  1.0000
  I   I31       1.0  0.79893  0.62621  0.3706099999999999  1.0000
  I   I32       1.0  0.11142999999999997  0.3965  0.28021  1.0000
