data_image0
_chemical_formula_structural       Zn2CZn2HCO8HO6C4Zn2CZn2HCO8HO6C4Zn2CZn2HCO8HO6C4Zn2CZn2HCO8HO6C4Zn2CZn2HCO8HO6C4Zn2CZn2HCO8HO6C4Zn2CZn2HCO8HO6C4Zn2CZn2HCO8HO6C4Zn2CZn2HCO8HO6C4Zn2CZn2HCO8HO6C4Zn2CZn2HCO8HO6C4Zn2CZn2HCO8HO6C10H2C3H2CH4C2H8C6H2C3H2CH4C2H8C6H2C3H2CH4C2H8C6H2C3H2CH4C2H8C6H2C3H2CH4C2H8C6H2C3H2CH4C2H8C6H2C3H2CH4C2H8C6H2C3H2CH4C2H8C6H2C3H2CH4C2H8C6H2C3H2CH4C2H8C6H2C3H2CH4C2H8C6H2C3H2CH4C2H8C6H2C3H2CH4C2H8C6H2C3H2CH4C2H8C6H2C3H2CH4C2H8C6H2C3H2CH4C2H8C6H2C3H2CH4C2H8C6H2C3H2CH4C2H8C6H2C3H2CH4C2H8C6H2C3H2CH4C2H8C6H2C3H2CH4C2H8C6H2C3H2CH4C2H8C6H2C3H2CH4C2H8C6H2C3H2CH4C2H8C6H2C3H2CH4C2H8C6H2C3H2CH4C2H8C6H2C3H2CH4C2H8C6H2C3H2CH4C2H8C6H2C3H2CH4C2H8C6H2C3H2CH4C2H8C6H2C3H2CH4C2H8C6H2C3H2CH4C2H8C6H2C3H2CH4C2H8C6H2C3H2CH4C2H8C6H2C3H2CH4C2H8C6H2C3H2CH4C2H8
_chemical_formula_sum              "Zn48 C504 H600 O168"
_cell_length_a       27.35223
_cell_length_b       24.2477
_cell_length_c       37.68287
_cell_angle_alpha    86.90593
_cell_angle_beta     88.46071000000002
_cell_angle_gamma    122.81043

_space_group_name_H-M_alt    "P 1"
_space_group_IT_number       1

loop_
  _space_group_symop_operation_xyz
  'x, y, z'

loop_
  _atom_site_type_symbol
  _atom_site_label
  _atom_site_symmetry_multiplicity
  _atom_site_fract_x
  _atom_site_fract_y
  _atom_site_fract_z
  _atom_site_occupancy
  Zn  Zn1       1.0  0.9394500000000001  0.9402800000000001  0.31921  1.0000
  Zn  Zn2       1.0  0.057839999999999954  0.95115  0.28191  1.0000
  C   C1        1.0  0.026099999999999856  0.9734599999999998  0.43677000000000005  1.0000
  Zn  Zn3       1.0  0.03993000000000002  0.95125  0.36200000000000004  1.0000
  Zn  Zn4       1.0  0.9194499999999999  0.93902  0.39814  1.0000
  H   H1        1.0  0.054130000000000005  0.03745  0.3156  1.0000
  C   C2        1.0  0.014120000000000035  0.82922  0.33525  1.0000
  O   O1        1.0  0.85295  0.9416399999999998  0.3793300000000001  1.0000
  O   O2        1.0  0.84784  0.8911100000000001  0.32912  1.0000
  O   O3        1.0  0.031050000000000008  0.98871  0.31730000000000014  1.0000
  O   O4        1.0  0.004040000000000012  0.9301  0.24266000000000001  1.0000
  O   O5        1.0  0.94606  0.02621000000000001  0.31994  1.0000
  O   O6        1.0  0.9197  0.89397  0.27597  1.0000
  O   O7        1.0  0.9785899999999997  0.04017000000000001  0.37599  1.0000
  O   O8        1.0  0.1256099999999999  0.95166  0.29932  1.0000
  H   H2        1.0  0.9251  0.85385  0.36512  1.0000
  O   O9        1.0  0.13235  0.99962  0.35112000000000004  1.0000
  O   O10       1.0  0.9481399999999999  0.90256  0.36376  1.0000
  O   O11       1.0  0.9714699999999998  0.9570000000000001  0.4378600000000001  1.0000
  O   O12       1.0  0.03396999999999991  0.86682  0.36199  1.0000
  O   O13       1.0  0.05908000000000005  0.9956400000000001  0.40673  1.0000
  O   O14       1.0  0.0019500000000000277  0.84994  0.30569  1.0000
  C   C3        1.0  0.82567  0.91332  0.35104  1.0000
  C   C4        1.0  0.9512099999999999  0.91866  0.24571000000000004  1.0000
  C   C5        1.0  0.96596  0.062429999999999986  0.3473400000000001  1.0000
  C   C6        1.0  0.15531000000000003  0.98206  0.32648  1.0000
  Zn  Zn5       1.0  0.9798999999999999  0.4779900000000001  0.29863000000000006  1.0000
  Zn  Zn6       1.0  0.08470000000000003  0.44856  0.27508  1.0000
  C   C7        1.0  0.03765000000000001  0.49292  0.42326000000000014  1.0000
  Zn  Zn7       1.0  0.05848999999999999  0.45905  0.35190000000000005  1.0000
  Zn  Zn8       1.0  0.9436899999999996  0.46149  0.37709  1.0000
  H   H3        1.0  0.09694  0.54889  0.30269  1.0000
  C   C8        1.0  0.028379999999999978  0.33185  0.33137  1.0000
  O   O15       1.0  0.89626  0.4902599999999999  0.35438  1.0000
  O   O16       1.0  0.8897699999999997  0.44645  0.30144000000000004  1.0000
  O   O17       1.0  0.06585  0.50144  0.3044  1.0000
  O   O18       1.0  0.028960000000000024  0.42209  0.23779000000000003  1.0000
  O   O19       1.0  0.0029899999999999775  0.56917  0.30519  1.0000
  O   O20       1.0  0.9703399999999999  0.4598  0.24799  1.0000
  O   O21       1.0  0.018339999999999988  0.56163  0.36386  1.0000
  O   O22       1.0  0.14522999999999997  0.44247  0.2988  1.0000
  H   H4        1.0  0.9421800000000001  0.37521000000000004  0.3406  1.0000
  O   O23       1.0  0.14879  0.49457  0.34857  1.0000
  O   O24       1.0  0.96966  0.423  0.34245  1.0000
  O   O25       1.0  0.9814699999999997  0.45479  0.41965  1.0000
  O   O26       1.0  0.04234000000000003  0.36872  0.3583  1.0000
  O   O27       1.0  0.07572  0.50621  0.39661  1.0000
  O   O28       1.0  0.019409999999999997  0.35243  0.30088000000000004  1.0000
  C   C9        1.0  0.86835  0.46611  0.32574  1.0000
  C   C10       1.0  0.010430000000000012  0.45981  0.22784000000000001  1.0000
  C   C11       1.0  0.020679999999999987  0.59686  0.33526  1.0000
  C   C12       1.0  0.17122  0.47123  0.32734  1.0000
  Zn  Zn9       1.0  0.43763999999999986  0.93894  0.30034  1.0000
  Zn  Zn10      1.0  0.5435099999999999  0.91871  0.26617  1.0000
  C   C13       1.0  0.51804  0.95518  0.41938  1.0000
  Zn  Zn11      1.0  0.52914  0.92808  0.34478  1.0000
  Zn  Zn12      1.0  0.4128100000000001  0.9142400000000003  0.38171  1.0000
  H   H5        1.0  0.5558099999999998  0.016670000000000004  0.29662  1.0000
  C   C14       1.0  0.4997699999999999  0.80318  0.32229  1.0000
  O   O29       1.0  0.35518  0.93435  0.3679  1.0000
  O   O30       1.0  0.34706  0.90524  0.31052  1.0000
  O   O31       1.0  0.52643  0.9686800000000001  0.29906  1.0000
  O   O32       1.0  0.4780899999999999  0.8858  0.23481  1.0000
  O   O33       1.0  0.458  0.026659999999999996  0.3103  1.0000
  O   O34       1.0  0.42217999999999994  0.9258  0.24907000000000004  1.0000
  O   O35       1.0  0.4784699999999999  0.018689999999999995  0.36814  1.0000
  O   O36       1.0  0.61091  0.9172600000000001  0.28446  1.0000
  H   H6        1.0  0.4120999999999999  0.83652  0.33907  1.0000
  O   O37       1.0  0.61997  0.9691700000000001  0.33529  1.0000
  O   O38       1.0  0.4373699999999999  0.88445  0.34141  1.0000
  O   O39       1.0  0.46157999999999993  0.9124400000000001  0.41937  1.0000
  O   O40       1.0  0.5189999999999999  0.84092  0.34882  1.0000
  O   O41       1.0  0.5510099999999999  0.9753100000000001  0.38939000000000007  1.0000
  O   O42       1.0  0.48469  0.8226200000000001  0.29405  1.0000
  C   C15       1.0  0.3274  0.92001  0.33853  1.0000
  C   C16       1.0  0.45686999999999994  0.92136  0.22598000000000001  1.0000
  C   C17       1.0  0.47613999999999995  0.05292  0.34056  1.0000
  C   C18       1.0  0.64001  0.94572  0.31238  1.0000
  Zn  Zn13      1.0  0.44212  0.4215400000000001  0.32976  1.0000
  Zn  Zn14      1.0  0.55384  0.4258700000000001  0.29223  1.0000
  C   C19       1.0  0.5351899999999999  0.4635199999999999  0.44421000000000005  1.0000
  Zn  Zn15      1.0  0.53872  0.4201599999999999  0.3732300000000001  1.0000
  Zn  Zn16      1.0  0.43508999999999987  0.4408  0.40836  1.0000
  H   H7        1.0  0.5596499999999999  0.51597  0.32908000000000004  1.0000
  C   C20       1.0  0.49106000000000005  0.29648  0.34072  1.0000
  O   O43       1.0  0.35889999999999994  0.4251  0.39553  1.0000
  O   O44       1.0  0.35192000000000007  0.37827000000000005  0.3428  1.0000
  O   O45       1.0  0.53439  0.46737000000000006  0.3297100000000001  1.0000
  O   O46       1.0  0.50528  0.4217699999999999  0.25252  1.0000
  O   O47       1.0  0.4490299999999999  0.5062599999999999  0.32132  1.0000
  O   O48       1.0  0.41921  0.37283  0.28642  1.0000
  O   O49       1.0  0.4784099999999999  0.53444  0.37651000000000007  1.0000
  O   O50       1.0  0.6114299999999998  0.4069  0.30943  1.0000
  H   H8        1.0  0.42175999999999986  0.34118999999999994  0.38076000000000004  1.0000
  O   O51       1.0  0.62878  0.45725  0.36124  1.0000
  O   O52       1.0  0.45039  0.38916  0.37634  1.0000
  O   O53       1.0  0.51031  0.49189000000000005  0.43022  1.0000
  O   O54       1.0  0.51835  0.33045  0.36757000000000006  1.0000
  O   O55       1.0  0.55937  0.44139  0.42354000000000014  1.0000
  O   O56       1.0  0.4854099999999999  0.32584  0.31213  1.0000
  C   C21       1.0  0.33253999999999995  0.40220000000000006  0.36593  1.0000
  C   C22       1.0  0.44937  0.39929  0.2556  1.0000
  C   C23       1.0  0.4599599999999999  0.54494  0.34689  1.0000
  C   C24       1.0  0.64571  0.43619  0.33512  1.0000
  Zn  Zn17      1.0  0.88012  0.97735  0.9839500000000001  1.0000
  Zn  Zn18      1.0  0.8411599999999998  0.82119  0.96662  1.0000
  C   C25       1.0  0.85486  0.91154  0.11217  1.0000
  Zn  Zn19      1.0  0.8394899999999997  0.86125  0.04187000000000001  1.0000
  Zn  Zn20      1.0  0.8465399999999998  0.99774  0.058750000000000004  1.0000
  H   H9        1.0  0.92563  0.90678  0.99953  1.0000
  C   C26       1.0  0.72713  0.76458  0.01634  1.0000
  O   O57       1.0  0.8758399999999998  0.08525  0.03532000000000001  1.0000
  O   O58       1.0  0.86856  0.057429999999999974  0.9778700000000001  1.0000
  O   O59       1.0  0.8856000000000002  0.8958600000000001  0.99638  1.0000
  O   O60       1.0  0.8353099999999998  0.86556  0.9219600000000001  1.0000
  O   O61       1.0  0.9612699999999997  0.03864999999999999  0.99747  1.0000
  O   O62       1.0  0.87019  0.9724  0.9324  1.0000
  O   O63       1.0  0.93808  0.0262  0.05759  1.0000
  O   O64       1.0  0.8311  0.7470600000000001  0.9976700000000001  1.0000
  H   H10       1.0  0.78015  0.9140900000000001  0.01602  1.0000
  O   O65       1.0  0.8638399999999998  0.79203  0.04998  1.0000
  O   O66       1.0  0.82008  0.93127  0.02342  1.0000
  O   O67       1.0  0.8289899999999998  0.94256  0.10414000000000002  1.0000
  O   O68       1.0  0.75672  0.78727  0.04476  1.0000
  O   O69       1.0  0.8758699999999998  0.89325  0.08695  1.0000
  O   O70       1.0  0.7521  0.79268  0.98435  1.0000
  C   C27       1.0  0.8860099999999999  0.10220999999999998  0.00092  1.0000
  C   C28       1.0  0.8710999999999998  0.92926  0.9129700000000001  1.0000
  C   C29       1.0  0.97602  0.05721  0.0298  1.0000
  C   C30       1.0  0.8659399999999999  0.75978  0.02371  1.0000
  Zn  Zn21      1.0  0.06781999999999994  0.63543  0.95704  1.0000
  Zn  Zn22      1.0  0.03447000000000001  0.49334  0.9264800000000001  1.0000
  C   C31       1.0  0.05772999999999999  0.54646  0.07924  1.0000
  Zn  Zn23      1.0  0.02435999999999999  0.50706  0.0067  1.0000
  Zn  Zn24      1.0  0.08467999999999996  0.66266  0.03511  1.0000
  H   H11       1.0  0.11737999999999998  0.5642  0.9667100000000001  1.0000
  C   C32       1.0  0.91677  0.44236000000000003  0.9684300000000001  1.0000
  O   O71       1.0  0.09883999999999998  0.74572  0.013000000000000003  1.0000
  O   O72       1.0  0.05524000000000011  0.71396  0.96076  1.0000
  O   O73       1.0  0.07754000000000001  0.55423  0.9639300000000001  1.0000
  O   O74       1.0  0.046779999999999974  0.55394  0.88473  1.0000
  O   O75       1.0  0.15340000000000006  0.70172  0.95031  1.0000
  O   O76       1.0  0.02412999999999995  0.6177  0.9144100000000001  1.0000
  O   O77       1.0  0.16629000000000005  0.68491  0.008410000000000003  1.0000
  O   O78       1.0  0.0008100000000000389  0.4013300000000001  0.94481  1.0000
  H   H12       1.0  0.9901299999999997  0.59091  0.0061800000000000015  1.0000
  O   O79       1.0  0.026519999999999985  0.42126  0.0020800000000000007  1.0000
  O   O80       1.0  0.028669999999999994  0.59623  0.00431  1.0000
  O   O81       1.0  0.0977  0.6085  0.0697  1.0000
  O   O82       1.0  0.9391899999999999  0.45462  0.9998000000000001  1.0000
  O   O83       1.0  0.04348000000000002  0.50131  0.05657  1.0000
  O   O84       1.0  0.9492199999999998  0.4787100000000001  0.93959  1.0000
  C   C33       1.0  0.06305999999999994  0.7443999999999998  0.9899400000000003  1.0000
  C   C34       1.0  0.04002000000000001  0.60363  0.8848900000000001  1.0000
  C   C35       1.0  0.18748999999999988  0.7171699999999999  0.97691  1.0000
  C   C36       1.0  0.9992099999999998  0.37992  0.97782  1.0000
  Zn  Zn25      1.0  0.55613  0.13631999999999997  0.9617800000000001  1.0000
  Zn  Zn26      1.0  0.5466899999999999  0.002199999999999994  0.9360700000000001  1.0000
  C   C37       1.0  0.54901  0.059230000000000005  0.08726  1.0000
  Zn  Zn27      1.0  0.5318199999999998  0.018550000000000004  0.01455  1.0000
  Zn  Zn28      1.0  0.56252  0.16748  0.03998  1.0000
  H   H13       1.0  0.62396  0.08733999999999997  0.9746500000000002  1.0000
  C   C38       1.0  0.4251999999999999  0.94061  0.9766000000000001  1.0000
  O   O85       1.0  0.56478  0.24215  0.015120000000000003  1.0000
  O   O86       1.0  0.5271899999999998  0.20187999999999998  0.9624100000000001  1.0000
  O   O87       1.0  0.58213  0.06895000000000001  0.9716  1.0000
  O   O88       1.0  0.5536199999999999  0.057949999999999995  0.89323  1.0000
  O   O89       1.0  0.63837  0.21397000000000002  0.9572200000000001  1.0000
  O   O90       1.0  0.51241  0.10854999999999997  0.9183500000000001  1.0000
  O   O91       1.0  0.65085  0.20420000000000002  0.01653  1.0000
  O   O92       1.0  0.52058  0.91342  0.9577700000000002  1.0000
  H   H14       1.0  0.4763199999999999  0.08075000000000002  0.009250000000000001  1.0000
  O   O93       1.0  0.55337  0.9468699999999999  0.012360000000000003  1.0000
  O   O94       1.0  0.5177799999999999  0.0952  0.009040000000000001  1.0000
  O   O95       1.0  0.57731  0.12374000000000002  0.08108  1.0000
  O   O96       1.0  0.4484199999999999  0.9504  0.007710000000000001  1.0000
  O   O97       1.0  0.55467  0.024019999999999993  0.06409000000000002  1.0000
  O   O98       1.0  0.4572799999999999  0.97643  0.94759  1.0000
  C   C39       1.0  0.52836  0.23224  0.9905  1.0000
  C   C40       1.0  0.5257  0.08795  0.8903400000000001  1.0000
  C   C41       1.0  0.67122  0.23561999999999997  0.98455  1.0000
  C   C42       1.0  0.5274999999999999  0.89999  0.9907900000000001  1.0000
  Zn  Zn29      1.0  0.3775699999999999  0.49068000000000006  0.99362  1.0000
  Zn  Zn30      1.0  0.3180499999999999  0.33305  0.97046  1.0000
  C   C43       1.0  0.3608399999999999  0.41409  0.12081  1.0000
  Zn  Zn31      1.0  0.3299199999999999  0.36747  0.04866  1.0000
  Zn  Zn32      1.0  0.3562099999999999  0.51028  0.07215  1.0000
  H   H15       1.0  0.4102499999999999  0.4063300000000001  0.0018100000000000004  1.0000
  C   C44       1.0  0.21244999999999994  0.28374  0.02579  1.0000
  O   O99       1.0  0.38352  0.59881  0.051640000000000005  1.0000
  O   O100      1.0  0.37977999999999995  0.58048  0.99272  1.0000
  O   O101      1.0  0.3718  0.40116  0.00152  1.0000
  O   O102      1.0  0.3121899999999999  0.38633  0.9298600000000001  1.0000
  O   O103      1.0  0.46056  0.53953  0.00431  1.0000
  O   O104      1.0  0.3669899999999999  0.4949  0.9418500000000001  1.0000
  O   O105      1.0  0.44676999999999994  0.53386  0.06505  1.0000
  O   O106      1.0  0.29975999999999997  0.25134  0.9975400000000001  1.0000
  H   H16       1.0  0.28108  0.43623000000000006  0.029840000000000002  1.0000
  O   O107      1.0  0.34052  0.28653  0.05021000000000001  1.0000
  O   O108      1.0  0.3205799999999999  0.44756  0.03522  1.0000
  O   O109      1.0  0.34015  0.45153  0.11595000000000001  1.0000
  O   O110      1.0  0.24451999999999993  0.30251  0.05346  1.0000
  O   O111      1.0  0.3722  0.3899700000000001  0.09354  1.0000
  O   O112      1.0  0.23526999999999992  0.31420999999999993  0.9938900000000002  1.0000
  C   C45       1.0  0.40017  0.6211  0.01809  1.0000
  C   C46       1.0  0.35318999999999995  0.44839000000000007  0.9200100000000001  1.0000
  C   C47       1.0  0.4809599999999999  0.56118  0.03534000000000001  1.0000
  C   C48       1.0  0.3342499999999999  0.25409  0.021990000000000003  1.0000
  Zn  Zn33      1.0  0.9528199999999998  0.013759999999999998  0.6976  1.0000
  Zn  Zn34      1.0  0.07534000000000002  0.02474000000000002  0.72962  1.0000
  C   C49       1.0  0.023220000000000032  0.99589  0.5776  1.0000
  Zn  Zn35      1.0  0.05341999999999998  0.02152999999999996  0.6509800000000002  1.0000
  Zn  Zn36      1.0  0.94272  0.02197999999999999  0.61681  1.0000
  H   H17       1.0  0.99109  0.93224  0.6983600000000001  1.0000
  C   C50       1.0  0.14664999999999995  0.14613999999999996  0.6758600000000001  1.0000
  O   O113      1.0  0.87161  0.013219999999999992  0.63539  1.0000
  O   O114      1.0  0.90061  0.05399000000000001  0.68957  1.0000
  O   O115      1.0  0.01025000000000004  0.98064  0.6971  1.0000
  O   O116      1.0  0.04013999999999999  0.048889999999999996  0.76838  1.0000
  O   O117      1.0  0.8826099999999999  0.9241399999999999  0.69484  1.0000
  O   O118      1.0  0.96209  0.04555000000000001  0.74545  1.0000
  O   O119      1.0  0.90216  0.91844  0.63616  1.0000
  O   O120      1.0  0.14479  0.026620000000000005  0.70822  1.0000
  H   H18       1.0  0.02132  0.10874  0.65332  1.0000
  O   O121      1.0  0.10267999999999998  0.97908  0.65778  1.0000
  O   O122      1.0  0.0009099999999999966  0.060309999999999996  0.65324  1.0000
  O   O123      1.0  0.9845799999999998  0.01215  0.57588  1.0000
  O   O124      1.0  0.12691999999999998  0.1115  0.64793  1.0000
  O   O125      1.0  0.03115000000000008  0.9735700000000002  0.6078800000000001  1.0000
  O   O126      1.0  0.11409000000000002  0.12537000000000004  0.70596  1.0000
  C   C51       1.0  0.86867  0.04378999999999999  0.66215  1.0000
  C   C52       1.0  0.9848299999999999  0.02991  0.77146  1.0000
  C   C53       1.0  0.8669399999999998  0.89354  0.66543  1.0000
  C   C54       1.0  0.14821  0.007280000000000008  0.67669  1.0000
  Zn  Zn37      1.0  0.97298  0.61196  0.67551  1.0000
  Zn  Zn38      1.0  0.10025000000000013  0.6475400000000001  0.7058200000000002  1.0000
  C   C55       1.0  0.03445999999999999  0.57878  0.55847  1.0000
  Zn  Zn39      1.0  0.07474000000000006  0.61889  0.62954  1.0000
  Zn  Zn40      1.0  0.9687099999999996  0.62905  0.59347  1.0000
  H   H19       1.0  0.020690000000000007  0.54111  0.68276  1.0000
  C   C56       1.0  0.18049999999999983  0.7400599999999999  0.64312  1.0000
  O   O127      1.0  0.8929599999999996  0.61786  0.6100800000000002  1.0000
  O   O128      1.0  0.9154799999999997  0.64436  0.66707  1.0000
  O   O129      1.0  0.03601000000000002  0.58824  0.67679  1.0000
  O   O130      1.0  0.06985999999999995  0.7009  0.72063  1.0000
  O   O131      1.0  0.91017  0.51933  0.6685700000000001  1.0000
  O   O132      1.0  0.9724400000000001  0.63319  0.72633  1.0000
  O   O133      1.0  0.92848  0.5244  0.60866  1.0000
  O   O134      1.0  0.15867  0.62596  0.69258  1.0000
  H   H20       1.0  0.04640000000000005  0.7112400000000001  0.63323  1.0000
  O   O135      1.0  0.12179999999999995  0.57401  0.64123  1.0000
  O   O136      1.0  0.024610000000000038  0.66299  0.63176  1.0000
  O   O137      1.0  0.016010000000000135  0.61909  0.55541  1.0000
  O   O138      1.0  0.15250000000000014  0.7024100000000002  0.61766  1.0000
  O   O139      1.0  0.0445  0.56173  0.58984  1.0000
  O   O140      1.0  0.15056  0.73721  0.6712700000000003  1.0000
  C   C57       1.0  0.8766299999999996  0.61898  0.6431900000000002  1.0000
  C   C58       1.0  0.021980000000000006  0.6708  0.74106  1.0000
  C   C59       1.0  0.89425  0.49392  0.6377  1.0000
  C   C60       1.0  0.15630999999999998  0.58799  0.66782  1.0000
  Zn  Zn41      1.0  0.4846399999999999  0.0774  0.6718600000000001  1.0000
  Zn  Zn42      1.0  0.6128199999999998  0.11831999999999995  0.7033500000000003  1.0000
  C   C61       1.0  0.55245  0.06542  0.55182  1.0000
  Zn  Zn43      1.0  0.59325  0.10663999999999998  0.62397  1.0000
  Zn  Zn44      1.0  0.4782599999999999  0.10001999999999998  0.5903800000000001  1.0000
  H   H21       1.0  0.5418399999999999  0.01771999999999999  0.67296  1.0000
  C   C62       1.0  0.68526  0.23185000000000003  0.64536  1.0000
  O   O141      1.0  0.3981299999999998  0.07424999999999997  0.6080500000000002  1.0000
  O   O142      1.0  0.41639999999999994  0.09402  0.66636  1.0000
  O   O143      1.0  0.55365  0.06429999999999998  0.67049  1.0000
  O   O144      1.0  0.57694  0.15553  0.7313800000000001  1.0000
  O   O145      1.0  0.4299899999999999  0.98408  0.6630100000000001  1.0000
  O   O146      1.0  0.47928  0.09308  0.72265  1.0000
  O   O147      1.0  0.44999  0.99793  0.60294  1.0000
  O   O148      1.0  0.68071  0.11689999999999998  0.68593  1.0000
  H   H22       1.0  0.54927  0.18349999999999997  0.6322200000000002  1.0000
  O   O149      1.0  0.65097  0.07467  0.63164  1.0000
  O   O150      1.0  0.53271  0.13638  0.62913  1.0000
  O   O151      1.0  0.53058  0.10237000000000002  0.55085  1.0000
  O   O152      1.0  0.66362  0.19784  0.61759  1.0000
  O   O153      1.0  0.5728  0.05576  0.58118  1.0000
  O   O154      1.0  0.65194  0.21461  0.67465  1.0000
  C   C63       1.0  0.37937  0.06978  0.64141  1.0000
  C   C64       1.0  0.52235  0.12404  0.74381  1.0000
  C   C65       1.0  0.41577  0.96251  0.63117  1.0000
  C   C66       1.0  0.6830499999999999  0.08546999999999998  0.6591300000000001  1.0000
  Zn  Zn45      1.0  0.43483  0.5301000000000002  0.70281  1.0000
  Zn  Zn46      1.0  0.56078  0.55047  0.73533  1.0000
  C   C67       1.0  0.5000299999999999  0.5035799999999999  0.58366  1.0000
  Zn  Zn47      1.0  0.53846  0.54226  0.6564200000000002  1.0000
  Zn  Zn48      1.0  0.4299099999999999  0.54392  0.62169  1.0000
  H   H23       1.0  0.47889  0.45360000000000006  0.7049100000000001  1.0000
  C   C68       1.0  0.6284099999999998  0.6701  0.6792400000000002  1.0000
  O   O155      1.0  0.3563699999999999  0.53227  0.63936  1.0000
  O   O156      1.0  0.38155999999999995  0.5691  0.6946800000000002  1.0000
  O   O157      1.0  0.4961  0.50168  0.7029100000000003  1.0000
  O   O158      1.0  0.5217299999999998  0.5713499999999999  0.7736900000000002  1.0000
  O   O159      1.0  0.36651  0.43961  0.69702  1.0000
  O   O160      1.0  0.43874  0.55685  0.75197  1.0000
  O   O161      1.0  0.3926699999999999  0.43971  0.63885  1.0000
  O   O162      1.0  0.6328599999999998  0.55751  0.71492  1.0000
  H   H24       1.0  0.50427  0.62803  0.66052  1.0000
  O   O163      1.0  0.59442  0.50776  0.66428  1.0000
  O   O164      1.0  0.4847299999999999  0.57988  0.65947  1.0000
  O   O165      1.0  0.47829999999999995  0.54044  0.58232  1.0000
  O   O166      1.0  0.6094199999999997  0.63335  0.65206  1.0000
  O   O167      1.0  0.51649  0.49048  0.6137600000000001  1.0000
  O   O168      1.0  0.59689  0.64975  0.70987  1.0000
  C   C69       1.0  0.3512699999999999  0.5608  0.6666000000000001  1.0000
  C   C70       1.0  0.46486  0.5447  0.77732  1.0000
  C   C71       1.0  0.3552799999999999  0.41062  0.66697  1.0000
  C   C72       1.0  0.6398099999999998  0.54182  0.6829500000000001  1.0000
  C   C73       1.0  0.84326  0.42529  0.63723  1.0000
  C   C74       1.0  0.8017099999999998  0.40585  0.61093  1.0000
  C   C75       1.0  0.75586  0.3391799999999999  0.6114000000000003  1.0000
  C   C76       1.0  0.7425199999999997  0.29595999999999995  0.64164  1.0000
  C   C77       1.0  0.78246  0.3166000000000001  0.66903  1.0000
  C   C78       1.0  0.8335699999999999  0.3798  0.66538  1.0000
  H   H25       1.0  0.72776  0.32233  0.5894400000000001  1.0000
  H   H26       1.0  0.8655199999999997  0.39407999999999993  0.6852100000000002  1.0000
  C   C79       1.0  0.80501  0.4554500000000001  0.58281  1.0000
  C   C80       1.0  0.7760999999999998  0.2700499999999999  0.6999100000000003  1.0000
  C   C81       1.0  0.74579  0.44603999999999977  0.5753500000000003  1.0000
  H   H27       1.0  0.72064  0.4039  0.55884  1.0000
  H   H28       1.0  0.75457  0.4907099999999999  0.55931  1.0000
  C   C82       1.0  0.8127  0.24153  0.69131  1.0000
  H   H29       1.0  0.85926  0.28196999999999994  0.6858000000000001  1.0000
  H   H30       1.0  0.79747  0.21466999999999994  0.6670400000000001  1.0000
  H   H31       1.0  0.8331  0.5062  0.59051  1.0000
  H   H32       1.0  0.7304699999999997  0.23031  0.70745  1.0000
  C   C83       1.0  0.70848  0.43618000000000007  0.6091100000000002  1.0000
  C   C84       1.0  0.8087799999999998  0.19519000000000003  0.72186  1.0000
  H   H33       1.0  0.73596  0.46639  0.63013  1.0000
  H   H34       1.0  0.6770999999999998  0.45035  0.6028500000000001  1.0000
  H   H35       1.0  0.6829899999999998  0.38374  0.61966  1.0000
  H   H36       1.0  0.8251499999999998  0.45238000000000006  0.55761  1.0000
  H   H37       1.0  0.83058  0.22317000000000004  0.7450500000000002  1.0000
  H   H38       1.0  0.83103  0.17107  0.71276  1.0000
  H   H39       1.0  0.76277  0.15639  0.73019  1.0000
  H   H40       1.0  0.7921299999999998  0.2979299999999999  0.72399  1.0000
  C   C85       1.0  0.3627799999999999  0.89585  0.62807  1.0000
  C   C86       1.0  0.32532  0.88261  0.59984  1.0000
  C   C87       1.0  0.26592000000000005  0.8304500000000001  0.60539  1.0000
  C   C88       1.0  0.24415000000000003  0.7916600000000001  0.63797  1.0000
  C   C89       1.0  0.28372  0.80237  0.66488  1.0000
  C   C90       1.0  0.34315  0.85052  0.65782  1.0000
  H   H41       1.0  0.23597999999999988  0.8208499999999999  0.58496  1.0000
  H   H42       1.0  0.3732  0.85842  0.6781  1.0000
  C   C91       1.0  0.34945000000000004  0.9237500000000001  0.5640600000000001  1.0000
  C   C92       1.0  0.26392  0.76939  0.7026200000000001  1.0000
  C   C93       1.0  0.31071000000000004  0.8988000000000002  0.53218  1.0000
  H   H43       1.0  0.2864899999999999  0.84435  0.53226  1.0000
  H   H44       1.0  0.3394899999999999  0.9186199999999998  0.5072200000000001  1.0000
  C   C94       1.0  0.28945999999999994  0.72789  0.7121200000000001  1.0000
  H   H45       1.0  0.33768  0.76002  0.71213  1.0000
  H   H46       1.0  0.27896  0.69217  0.69196  1.0000
  H   H47       1.0  0.36199  0.97486  0.56773  1.0000
  H   H48       1.0  0.21652000000000007  0.7393900000000002  0.70834  1.0000
  C   C95       1.0  0.26905  0.92253  0.53028  1.0000
  C   C96       1.0  0.26618  0.69092  0.7489600000000002  1.0000
  H   H49       1.0  0.29411000000000004  0.9768000000000001  0.52429  1.0000
  H   H50       1.0  0.23921000000000003  0.8991300000000001  0.5087  1.0000
  H   H51       1.0  0.24257999999999993  0.9099299999999999  0.55573  1.0000
  H   H52       1.0  0.3899699999999999  0.92608  0.55605  1.0000
  H   H53       1.0  0.27964  0.72638  0.76974  1.0000
  H   H54       1.0  0.28424999999999995  0.66008  0.75428  1.0000
  H   H55       1.0  0.21788999999999992  0.6583  0.75056  1.0000
  H   H56       1.0  0.28  0.80881  0.7212300000000001  1.0000
  C   C97       1.0  0.81454  0.5951  0.65282  1.0000
  C   C98       1.0  0.7870099999999998  0.56344  0.6869500000000001  1.0000
  C   C99       1.0  0.7315099999999999  0.55043  0.6961500000000002  1.0000
  C   C100      1.0  0.69805  0.55611  0.67056  1.0000
  C   C101      1.0  0.72404  0.58383  0.6353700000000001  1.0000
  C   C102      1.0  0.782  0.60274  0.62717  1.0000
  H   H57       1.0  0.71357  0.53434  0.7234400000000001  1.0000
  H   H58       1.0  0.8014099999999997  0.62237  0.60036  1.0000
  C   C103      1.0  0.81703  0.54563  0.7143500000000002  1.0000
  C   C104      1.0  0.6908399999999998  0.59055  0.60545  1.0000
  C   C105      1.0  0.7771499999999999  0.47892  0.7361  1.0000
  H   H59       1.0  0.7479899999999999  0.48227  0.7556400000000001  1.0000
  H   H60       1.0  0.8050399999999999  0.46777  0.75182  1.0000
  C   C106      1.0  0.71802  0.66274  0.5914400000000001  1.0000
  H   H61       1.0  0.76402  0.68519  0.5815300000000001  1.0000
  H   H62       1.0  0.71726  0.69131  0.61316  1.0000
  H   H63       1.0  0.8521299999999998  0.54286  0.7019400000000002  1.0000
  H   H64       1.0  0.6443899999999999  0.56899  0.6126100000000001  1.0000
  C   C107      1.0  0.74116  0.42198  0.7128200000000002  1.0000
  C   C108      1.0  0.68532  0.66865  0.56078  1.0000
  H   H65       1.0  0.7669099999999996  0.42763  0.68816  1.0000
  H   H66       1.0  0.7274999999999999  0.37446  0.7276700000000002  1.0000
  H   H67       1.0  0.70138  0.42013000000000006  0.70532  1.0000
  H   H68       1.0  0.83737  0.58543  0.7325500000000003  1.0000
  H   H69       1.0  0.6885099999999998  0.6438  0.53779  1.0000
  H   H70       1.0  0.7050299999999998  0.72141  0.55206  1.0000
  H   H71       1.0  0.63867  0.6463  0.56929  1.0000
  H   H72       1.0  0.6923999999999998  0.56295  0.58328  1.0000
  C   C109      1.0  0.30399  0.57258  0.66822  1.0000
  C   C110      1.0  0.29706999999999995  0.60729  0.63944  1.0000
  C   C111      1.0  0.24446  0.60399  0.6376  1.0000
  C   C112      1.0  0.2016  0.57323  0.6658  1.0000
  C   C113      1.0  0.20903  0.53997  0.69505  1.0000
  C   C114      1.0  0.26037  0.54018  0.69602  1.0000
  H   H73       1.0  0.23911999999999992  0.63066  0.6156100000000001  1.0000
  H   H74       1.0  0.26520999999999995  0.51248  0.71765  1.0000
  C   C115      1.0  0.34731  0.65359  0.61248  1.0000
  C   C116      1.0  0.16047999999999998  0.49953000000000003  0.72387  1.0000
  C   C117      1.0  0.37606000000000006  0.7259900000000001  0.6205  1.0000
  H   H75       1.0  0.3424199999999999  0.73757  0.6254000000000002  1.0000
  H   H76       1.0  0.4041199999999999  0.7578899999999998  0.5967300000000002  1.0000
  C   C118      1.0  0.11363999999999999  0.43298999999999993  0.71104  1.0000
  H   H77       1.0  0.1331  0.40406  0.7054  1.0000
  H   H78       1.0  0.09655000000000005  0.44075000000000003  0.68611  1.0000
  H   H79       1.0  0.38104999999999983  0.6416799999999999  0.6102900000000001  1.0000
  H   H80       1.0  0.14062  0.52676  0.7322300000000002  1.0000
  C   C119      1.0  0.41385  0.74309  0.65233  1.0000
  C   C120      1.0  0.06281  0.39321000000000006  0.7389900000000003  1.0000
  H   H81       1.0  0.44908  0.73408  0.64732  1.0000
  H   H82       1.0  0.4341399999999999  0.79597  0.6565700000000001  1.0000
  H   H83       1.0  0.38711999999999985  0.71332  0.6768900000000001  1.0000
  H   H84       1.0  0.3299899999999999  0.6478899999999999  0.5856400000000003  1.0000
  H   H85       1.0  0.07832999999999997  0.38356999999999997  0.76409  1.0000
  H   H86       1.0  0.030069999999999986  0.34528000000000003  0.72895  1.0000
  H   H87       1.0  0.041499999999999995  0.42022  0.74454  1.0000
  H   H88       1.0  0.17840999999999999  0.4907500000000001  0.7481400000000001  1.0000
  C   C121      1.0  0.6891900000000001  0.7287600000000001  0.67705  1.0000
  C   C122      1.0  0.7025  0.79184  0.66463  1.0000
  C   C123      1.0  0.7613199999999998  0.84411  0.65794  1.0000
  C   C124      1.0  0.8069  0.8349100000000002  0.66452  1.0000
  C   C125      1.0  0.7934099999999997  0.77198  0.67713  1.0000
  C   C126      1.0  0.73483  0.72034  0.68473  1.0000
  H   H89       1.0  0.7714999999999997  0.89282  0.64937  1.0000
  H   H90       1.0  0.72498  0.67358  0.69651  1.0000
  C   C127      1.0  0.6550799999999998  0.806  0.6617  1.0000
  C   C128      1.0  0.8411899999999998  0.7596  0.68343  1.0000
  C   C129      1.0  0.64528  0.8185200000000001  0.62294  1.0000
  H   H91       1.0  0.68663  0.85975  0.6091400000000001  1.0000
  H   H92       1.0  0.61332  0.83331  0.62301  1.0000
  C   C130      1.0  0.8579  0.76838  0.72218  1.0000
  H   H93       1.0  0.8205800000000001  0.7295200000000002  0.74007  1.0000
  H   H94       1.0  0.8684799999999998  0.8170900000000001  0.7298800000000001  1.0000
  H   H95       1.0  0.6130099999999999  0.7665299999999999  0.67558  1.0000
  H   H96       1.0  0.88009  0.79288  0.6650100000000001  1.0000
  C   C131      1.0  0.62117  0.75765  0.6021100000000001  1.0000
  C   C132      1.0  0.9106999999999997  0.7637899999999999  0.72753  1.0000
  H   H97       1.0  0.57911  0.71641  0.6150800000000002  1.0000
  H   H98       1.0  0.61364  0.7690899999999999  0.5746500000000001  1.0000
  H   H99       1.0  0.65278  0.7426  0.60045  1.0000
  H   H100      1.0  0.6686499999999997  0.8508200000000001  0.6757100000000003  1.0000
  H   H101      1.0  0.9008399999999998  0.7147200000000001  0.72113  1.0000
  H   H102      1.0  0.9219099999999998  0.7709199999999999  0.75572  1.0000
  H   H103      1.0  0.9489199999999998  0.80264  0.71025  1.0000
  H   H104      1.0  0.8260699999999997  0.7087099999999998  0.6772700000000001  1.0000
  C   C133      1.0  0.30429  0.34142  0.6667200000000001  1.0000
  C   C134      1.0  0.26269  0.32125000000000004  0.64036  1.0000
  C   C135      1.0  0.21420999999999998  0.25557  0.64256  1.0000
  C   C136      1.0  0.20288999999999996  0.21182000000000004  0.67223  1.0000
  C   C137      1.0  0.24492999999999998  0.23175000000000004  0.69826  1.0000
  C   C138      1.0  0.29434  0.29655000000000004  0.69541  1.0000
  H   H105      1.0  0.18388999999999994  0.23935  0.62171  1.0000
  H   H106      1.0  0.32603  0.31166000000000005  0.71546  1.0000
  C   C139      1.0  0.2680699999999999  0.3688100000000001  0.6101700000000001  1.0000
  C   C140      1.0  0.2423699999999999  0.18335999999999997  0.72668  1.0000
  C   C141      1.0  0.21498  0.37502  0.6092900000000001  1.0000
  H   H107      1.0  0.17593000000000003  0.32841000000000004  0.60203  1.0000
  H   H108      1.0  0.22434999999999997  0.41384  0.58809  1.0000
  C   C142      1.0  0.2849099999999999  0.16335000000000002  0.71607  1.0000
  H   H109      1.0  0.32997  0.20774  0.71181  1.0000
  H   H110      1.0  0.27283  0.13933999999999996  0.69072  1.0000
  H   H111      1.0  0.30716  0.41891  0.61075  1.0000
  H   H112      1.0  0.19822  0.13900000000000007  0.73254  1.0000
  C   C143      1.0  0.20114000000000004  0.39357  0.64458  1.0000
  C   C144      1.0  0.28485  0.11640999999999996  0.7447200000000003  1.0000
  H   H113      1.0  0.24138  0.43446  0.65483  1.0000
  H   H114      1.0  0.17034999999999997  0.40947  0.64053  1.0000
  H   H115      1.0  0.18055  0.35064  0.66471  1.0000
  H   H116      1.0  0.2725899999999999  0.35060999999999987  0.5846400000000003  1.0000
  H   H117      1.0  0.2965399999999999  0.13935000000000006  0.77045  1.0000
  H   H118      1.0  0.3176699999999998  0.10529  0.7365  1.0000
  H   H119      1.0  0.2413299999999999  0.06966999999999995  0.7483400000000002  1.0000
  H   H120      1.0  0.25499000000000005  0.20753000000000002  0.7520800000000001  1.0000
  C   C145      1.0  0.8237099999999998  0.058559999999999966  0.6633000000000002  1.0000
  C   C146      1.0  0.8259099999999998  0.10477999999999998  0.6376300000000003  1.0000
  C   C147      1.0  0.7768799999999998  0.10838  0.63443  1.0000
  C   C148      1.0  0.72747  0.06988999999999997  0.6578300000000002  1.0000
  C   C149      1.0  0.7244699999999997  0.022429999999999974  0.6828000000000002  1.0000
  C   C150      1.0  0.77281  0.01710000000000001  0.68519  1.0000
  H   H121      1.0  0.77847  0.14413  0.6150200000000001  1.0000
  H   H122      1.0  0.77046  0.9796400000000001  0.70361  1.0000
  C   C151      1.0  0.88089  0.15196999999999997  0.61403  1.0000
  C   C152      1.0  0.66967  0.97682  0.70684  1.0000
  C   C153      1.0  0.9187299999999998  0.21899  0.62945  1.0000
  H   H123      1.0  0.8917599999999998  0.23865000000000003  0.6368  1.0000
  H   H124      1.0  0.95224  0.25425  0.6084600000000002  1.0000
  C   C154      1.0  0.61692  0.9315800000000001  0.6854800000000001  1.0000
  H   H125      1.0  0.63077  0.91593  0.66222  1.0000
  H   H126      1.0  0.5972499999999998  0.9584900000000002  0.67517  1.0000
  H   H127      1.0  0.9074899999999998  0.13114  0.60838  1.0000
  H   H128      1.0  0.65944  0.006489999999999977  0.7232600000000001  1.0000
  C   C155      1.0  0.95008  0.21594000000000002  0.6617200000000001  1.0000
  C   C156      1.0  0.56966  0.8705  0.7083  1.0000
  H   H129      1.0  0.97691  0.19581999999999997  0.65488  1.0000
  H   H130      1.0  0.9792699999999999  0.26631  0.67029  1.0000
  H   H131      1.0  0.91829  0.18487  0.68428  1.0000
  H   H132      1.0  0.8681299999999998  0.16057000000000002  0.58754  1.0000
  H   H133      1.0  0.5867099999999998  0.8404999999999999  0.71821  1.0000
  H   H134      1.0  0.53225  0.8398800000000001  0.69204  1.0000
  H   H135      1.0  0.55405  0.8850100000000001  0.7313200000000001  1.0000
  H   H136      1.0  0.6775599999999998  0.94625  0.7259600000000003  1.0000
  C   C157      1.0  0.20261999999999994  0.01392999999999999  0.6637  1.0000
  C   C158      1.0  0.23569999999999997  0.05512999999999999  0.63269  1.0000
  C   C159      1.0  0.29441  0.07591  0.6274900000000001  1.0000
  C   C160      1.0  0.3181  0.04884000000000001  0.64932  1.0000
  C   C161      1.0  0.28214  0.00040999999999999544  0.67746  1.0000
  C   C162      1.0  0.22558  0.98559  0.68502  1.0000
  H   H137      1.0  0.32107  0.11138  0.60537  1.0000
  H   H138      1.0  0.19913000000000003  0.9512900000000001  0.7076  1.0000
  C   C163      1.0  0.20831  0.07227999999999998  0.6031400000000001  1.0000
  C   C164      1.0  0.30095000000000005  0.9603600000000001  0.69801  1.0000
  C   C165      1.0  0.20414  0.037200000000000004  0.56946  1.0000
  H   H139      1.0  0.2481599999999999  0.05100999999999998  0.5592100000000001  1.0000
  H   H140      1.0  0.18625999999999998  0.05393999999999999  0.54841  1.0000
  C   C166      1.0  0.31435000000000013  0.9805600000000001  0.73625  1.0000
  H   H141      1.0  0.2792299999999999  0.9845900000000001  0.74871  1.0000
  H   H142      1.0  0.35603  0.029339999999999998  0.73579  1.0000
  H   H143      1.0  0.16456999999999997  0.06111999999999999  0.6109  1.0000
  H   H144      1.0  0.33881000000000006  0.9639600000000002  0.6846200000000002  1.0000
  C   C167      1.0  0.16462000000000002  0.9623300000000001  0.57595  1.0000
  C   C168      1.0  0.31894  0.9302  0.7594900000000001  1.0000
  H   H145      1.0  0.12206000000000002  0.9479  0.5889700000000001  1.0000
  H   H146      1.0  0.15697  0.93978  0.55014  1.0000
  H   H147      1.0  0.18527  0.94304  0.59319  1.0000
  H   H148      1.0  0.23577999999999993  0.12632  0.5961700000000002  1.0000
  H   H149      1.0  0.27718  0.88138  0.76098  1.0000
  H   H150      1.0  0.32777000000000006  0.9458900000000001  0.78696  1.0000
  H   H151      1.0  0.35480999999999996  0.92588  0.7486700000000001  1.0000
  H   H152      1.0  0.2649899999999999  0.90751  0.69871  1.0000
  C   C169      1.0  0.37561  0.46772  0.8820100000000001  1.0000
  C   C170      1.0  0.3677799999999999  0.5121  0.8606200000000002  1.0000
  C   C171      1.0  0.3981499999999999  0.53759  0.82686  1.0000
  C   C172      1.0  0.43397999999999987  0.5174399999999999  0.8133900000000002  1.0000
  C   C173      1.0  0.43772  0.46891000000000005  0.83361  1.0000
  C   C174      1.0  0.40955999999999987  0.44572000000000006  0.86798  1.0000
  H   H153      1.0  0.39332  0.5727900000000001  0.81097  1.0000
  H   H154      1.0  0.41499  0.4111600000000001  0.88407  1.0000
  C   C175      1.0  0.32392000000000004  0.5289200000000001  0.87188  1.0000
  C   C176      1.0  0.47259  0.44229  0.8193300000000001  1.0000
  C   C177      1.0  0.26608  0.48768000000000006  0.8542  1.0000
  H   H155      1.0  0.27423  0.49081  0.82487  1.0000
  H   H156      1.0  0.23922999999999997  0.50855  0.85917  1.0000
  C   C178      1.0  0.53446  0.48000999999999994  0.8323500000000003  1.0000
  H   H157      1.0  0.53256  0.46502000000000004  0.8610100000000002  1.0000
  H   H158      1.0  0.55366  0.53395  0.82972  1.0000
  H   H159      1.0  0.31515  0.52393  0.9011100000000002  1.0000
  H   H160      1.0  0.4737899999999999  0.44381  0.78977  1.0000
  C   C179      1.0  0.23122999999999994  0.4155  0.86885  1.0000
  C   C180      1.0  0.5744099999999998  0.46597  0.81128  1.0000
  H   H161      1.0  0.22382999999999992  0.41142999999999996  0.8982700000000001  1.0000
  H   H162      1.0  0.18820999999999993  0.3892  0.85709  1.0000
  H   H163      1.0  0.2545  0.39132  0.86174  1.0000
  H   H164      1.0  0.3425599999999999  0.58176  0.86374  1.0000
  H   H165      1.0  0.5543899999999998  0.41209  0.8112400000000002  1.0000
  H   H166      1.0  0.61692  0.48841  0.8235600000000002  1.0000
  H   H167      1.0  0.58225  0.48741  0.78334  1.0000
  H   H168      1.0  0.4506299999999999  0.38933999999999996  0.82872  1.0000
  C   C181      1.0  0.50424  0.83143  0.00351  1.0000
  C   C182      1.0  0.45745  0.79814  0.029900000000000006  1.0000
  C   C183      1.0  0.41963999999999996  0.72976  0.03055  1.0000
  C   C184      1.0  0.43228999999999995  0.6928600000000001  0.00915  1.0000
  C   C185      1.0  0.4827799999999999  0.7260399999999999  0.98519  1.0000
  C   C186      1.0  0.51813  0.7949800000000001  0.9828  1.0000
  H   H169      1.0  0.38193  0.70464  0.04948000000000002  1.0000
  H   H170      1.0  0.5547999999999998  0.82058  0.9631200000000001  1.0000
  C   C187      1.0  0.44998000000000005  0.8334800000000001  0.0596  1.0000
  C   C188      1.0  0.49801  0.68969  0.96036  1.0000
  C   C189      1.0  0.47483000000000003  0.82538  0.09417  1.0000
  H   H171      1.0  0.45677999999999996  0.7724199999999999  0.10154  1.0000
  H   H172      1.0  0.46094  0.84406  0.11595000000000001  1.0000
  C   C190      1.0  0.46982  0.68231  0.92481  1.0000
  H   H173      1.0  0.4826499999999999  0.7315500000000003  0.9126500000000001  1.0000
  H   H174      1.0  0.42155  0.6515999999999998  0.92925  1.0000
  H   H175      1.0  0.46884  0.88623  0.05245  1.0000
  H   H176      1.0  0.4854899999999999  0.64118  0.97257  1.0000
  C   C191      1.0  0.54139  0.86362  0.09164  1.0000
  C   C192      1.0  0.48888999999999977  0.65036  0.89871  1.0000
  H   H177      1.0  0.5602  0.9169700000000001  0.08547  1.0000
  H   H178      1.0  0.55665  0.85693  0.11756000000000001  1.0000
  H   H179      1.0  0.55743  0.84541  0.07082  1.0000
  H   H180      1.0  0.4026099999999999  0.81207  0.0652  1.0000
  H   H181      1.0  0.53703  0.68051  0.8934600000000003  1.0000
  H   H182      1.0  0.46861999999999976  0.64678  0.87312  1.0000
  H   H183      1.0  0.4750799999999999  0.60012  0.9095800000000002  1.0000
  H   H184      1.0  0.5462199999999998  0.7174699999999999  0.9552700000000001  1.0000
  C   C193      1.0  0.38016  0.24330000000000002  0.01184  1.0000
  C   C194      1.0  0.38432999999999995  0.19345999999999997  0.029810000000000007  1.0000
  C   C195      1.0  0.4339099999999999  0.19145  0.022750000000000003  1.0000
  C   C196      1.0  0.47938  0.23890000000000003  0.99876  1.0000
  C   C197      1.0  0.47472000000000003  0.28808000000000006  0.98054  1.0000
  C   C198      1.0  0.42416  0.28831  0.98635  1.0000
  H   H185      1.0  0.43659999999999993  0.15201  0.03542  1.0000
  H   H186      1.0  0.41984  0.32512  0.9717900000000002  1.0000
  C   C199      1.0  0.33465  0.13935  0.05462  1.0000
  C   C200      1.0  0.52315  0.34031  0.95464  1.0000
  C   C201      1.0  0.35147  0.1413  0.09334000000000003  1.0000
  H   H187      1.0  0.39154000000000005  0.14037  0.09478  1.0000
  H   H188      1.0  0.31577  0.09638  0.10901000000000001  1.0000
  C   C202      1.0  0.5129699999999999  0.31939000000000006  0.9164400000000001  1.0000
  H   H189      1.0  0.47576999999999997  0.32117  0.9067200000000001  1.0000
  H   H190      1.0  0.50187  0.26811000000000007  0.91559  1.0000
  H   H191      1.0  0.29434  0.13987  0.05378  1.0000
  H   H192      1.0  0.5659699999999998  0.35101  0.96259  1.0000
  C   C203      1.0  0.36063  0.20148  0.11056  1.0000
  C   C204      1.0  0.5668799999999999  0.36452  0.8914  1.0000
  H   H193      1.0  0.3205799999999999  0.20244  0.1096  1.0000
  H   H194      1.0  0.37008999999999986  0.19896000000000003  0.13886  1.0000
  H   H195      1.0  0.39802  0.2475  0.09677000000000002  1.0000
  H   H196      1.0  0.3227399999999999  0.09118  0.04532  1.0000
  H   H197      1.0  0.5814699999999998  0.41683  0.8930400000000001  1.0000
  H   H198      1.0  0.55623  0.35149000000000014  0.8636900000000001  1.0000
  H   H199      1.0  0.60287  0.35817  0.89826  1.0000
  H   H200      1.0  0.5253  0.38736  0.9556800000000001  1.0000
  C   C205      1.0  0.51405  0.10417  0.85494  1.0000
  C   C206      1.0  0.46509  0.05736  0.8373  1.0000
  C   C207      1.0  0.4633599999999999  0.06894999999999998  0.80055  1.0000
  C   C208      1.0  0.50925  0.12633000000000003  0.7817800000000001  1.0000
  C   C209      1.0  0.55045  0.17848999999999995  0.8011900000000001  1.0000
  C   C210      1.0  0.5555599999999998  0.16485  0.83701  1.0000
  H   H201      1.0  0.4285899999999999  0.03135999999999999  0.78621  1.0000
  H   H202      1.0  0.59296  0.20056000000000002  0.85062  1.0000
  C   C211      1.0  0.4134899999999999  0.9965200000000001  0.8574400000000001  1.0000
  C   C212      1.0  0.59161  0.24738999999999994  0.7834300000000001  1.0000
  C   C213      1.0  0.40598999999999996  0.93203  0.84693  1.0000
  H   H203      1.0  0.40213  0.92838  0.81776  1.0000
  H   H204      1.0  0.3646099999999999  0.8900400000000002  0.86029  1.0000
  C   C214      1.0  0.5918799999999997  0.30042  0.8042700000000003  1.0000
  H   H205      1.0  0.60052  0.29612  0.8325600000000002  1.0000
  H   H206      1.0  0.5486899999999998  0.29451000000000005  0.80349  1.0000
  H   H207      1.0  0.4155699999999999  0.99849  0.88676  1.0000
  H   H208      1.0  0.57904  0.25194  0.75614  1.0000
  C   C215      1.0  0.4557999999999999  0.92488  0.8577900000000002  1.0000
  C   C216      1.0  0.63912  0.36934  0.78861  1.0000
  H   H209      1.0  0.4596100000000001  0.9267100000000001  0.88699  1.0000
  H   H210      1.0  0.44686999999999993  0.8766300000000001  0.85049  1.0000
  H   H211      1.0  0.49764  0.96434  0.8437000000000002  1.0000
  H   H212      1.0  0.3733099999999999  0.99506  0.85125  1.0000
  H   H213      1.0  0.68224  0.37504  0.78809  1.0000
  H   H214      1.0  0.64128  0.40651  0.8055100000000001  1.0000
  H   H215      1.0  0.62959  0.3785  0.76124  1.0000
  H   H216      1.0  0.6361999999999999  0.25683  0.7811300000000002  1.0000
  C   C217      1.0  0.73345  0.2914300000000001  0.97848  1.0000
  C   C218      1.0  0.7557199999999998  0.35017000000000004  0.9959300000000001  1.0000
  C   C219      1.0  0.8150799999999999  0.40072  0.99018  1.0000
  C   C220      1.0  0.8525999999999998  0.39498  0.9668400000000001  1.0000
  C   C221      1.0  0.8290099999999999  0.3389  0.9465600000000001  1.0000
  C   C222      1.0  0.7695899999999999  0.28764999999999996  0.95296  1.0000
  H   H217      1.0  0.8318599999999999  0.44561  0.0033900000000000002  1.0000
  H   H218      1.0  0.7509399999999999  0.24556000000000003  0.9372  1.0000
  C   C223      1.0  0.7157799999999999  0.36377  0.01693  1.0000
  C   C224      1.0  0.86332  0.33709000000000006  0.91463  1.0000
  C   C225      1.0  0.70649  0.41367999999999994  0.9964200000000001  1.0000
  H   H219      1.0  0.7475299999999999  0.46332  0.99452  1.0000
  H   H220      1.0  0.6729299999999998  0.4169  0.011730000000000004  1.0000
  C   C226      1.0  0.8625300000000001  0.27309  0.91552  1.0000
  H   H221      1.0  0.8182099999999998  0.23076999999999995  0.9110600000000001  1.0000
  H   H222      1.0  0.87453  0.26342999999999994  0.9418600000000001  1.0000
  H   H223      1.0  0.67298  0.31867  0.02525000000000001  1.0000
  H   H224      1.0  0.9091499999999998  0.37895999999999996  0.9121800000000001  1.0000
  C   C227      1.0  0.68661  0.39517  0.9589100000000002  1.0000
  C   C228      1.0  0.90477  0.27662  0.88676  1.0000
  H   H225      1.0  0.6493199999999999  0.34319999999999995  0.9595700000000001  1.0000
  H   H226      1.0  0.67298  0.42767  0.94758  1.0000
  H   H227      1.0  0.7228699999999999  0.40199  0.9411500000000002  1.0000
  H   H228      1.0  0.7358799999999998  0.38443  0.04213  1.0000
  H   H229      1.0  0.8951199999999998  0.28874  0.86007  1.0000
  H   H230      1.0  0.89998  0.22816000000000006  0.88677  1.0000
  H   H231      1.0  0.9504699999999998  0.31443  0.8920100000000001  1.0000
  H   H232      1.0  0.84352  0.34124999999999994  0.89006  1.0000
  C   C229      1.0  0.36455999999999983  0.8841399999999999  0.97367  1.0000
  C   C230      1.0  0.31801  0.89324  0.96928  1.0000
  C   C231      1.0  0.26087  0.83784  0.96765  1.0000
  C   C232      1.0  0.2490699999999999  0.7737799999999999  0.9721000000000001  1.0000
  C   C233      1.0  0.2958399999999999  0.7647799999999999  0.97513  1.0000
  C   C234      1.0  0.35323  0.82019  0.9754600000000001  1.0000
  H   H233      1.0  0.22516  0.8447  0.96444  1.0000
  H   H234      1.0  0.3891999999999999  0.81345  0.9769200000000001  1.0000
  C   C235      1.0  0.32774  0.96122  0.96798  1.0000
  C   C236      1.0  0.2857999999999999  0.6968799999999999  0.9750500000000001  1.0000
  C   C237      1.0  0.30235  0.97178  0.00191  1.0000
  H   H235      1.0  0.2549  0.9337900000000001  0.006100000000000002  1.0000
  H   H236      1.0  0.30739999999999995  0.02041  0.99816  1.0000
  C   C238      1.0  0.28059000000000006  0.6755900000000001  0.9370000000000002  1.0000
  H   H237      1.0  0.32102  0.71178  0.92037  1.0000
  H   H238      1.0  0.24318000000000006  0.67399  0.92501  1.0000
  H   H239      1.0  0.3743399999999999  0.0015600000000000017  0.96313  1.0000
  H   H240      1.0  0.24610999999999994  0.66023  0.99203  1.0000
  C   C239      1.0  0.3326099999999999  0.97054  0.0352  1.0000
  C   C240      1.0  0.27136  0.60766  0.93647  1.0000
  H   H241      1.0  0.37982  0.009159999999999998  0.03194000000000001  1.0000
  H   H242      1.0  0.31348999999999994  0.9802  0.05854  1.0000
  H   H243      1.0  0.3265600000000001  0.9216700000000001  0.04066  1.0000
  H   H244      1.0  0.30563999999999986  0.9664699999999999  0.94492  1.0000
  H   H245      1.0  0.30931  0.60841  0.9468900000000002  1.0000
  H   H246      1.0  0.26665  0.59338  0.9086800000000002  1.0000
  H   H247      1.0  0.23113  0.57032  0.9528400000000001  1.0000
  H   H248      1.0  0.3226299999999999  0.6969799999999999  0.98691  1.0000
  C   C241      1.0  0.043589999999999914  0.63826  0.8509  1.0000
  C   C242      1.0  0.08657999999999992  0.65224  0.8242100000000001  1.0000
  C   C243      1.0  0.07528000000000004  0.65594  0.7886300000000002  1.0000
  C   C244      1.0  0.026900000000000035  0.65828  0.77926  1.0000
  C   C245      1.0  0.98911  0.6563  0.80667  1.0000
  C   C246      1.0  0.9974200000000001  0.64499  0.8423800000000002  1.0000
  H   H249      1.0  0.10579000000000004  0.6599  0.76812  1.0000
  H   H250      1.0  0.9667999999999997  0.63939  0.8633900000000001  1.0000
  C   C247      1.0  0.14606  0.6667100000000001  0.83334  1.0000
  C   C248      1.0  0.94098  0.66752  0.79888  1.0000
  C   C249      1.0  0.19486  0.73927  0.8239100000000003  1.0000
  H   H251      1.0  0.19578  0.75328  0.7952  1.0000
  H   H252      1.0  0.23741000000000004  0.74536  0.82864  1.0000
  C   C250      1.0  0.88074  0.6032100000000001  0.80546  1.0000
  H   H253      1.0  0.8768999999999999  0.5781400000000001  0.8319400000000002  1.0000
  H   H254      1.0  0.8751899999999999  0.5693900000000001  0.78497  1.0000
  H   H255      1.0  0.14757999999999993  0.65422  0.8619  1.0000
  H   H256      1.0  0.9459499999999998  0.68917  0.77138  1.0000
  C   C251      1.0  0.18867999999999985  0.78601  0.8464400000000002  1.0000
  C   C252      1.0  0.8317499999999998  0.61583  0.80455  1.0000
  H   H257      1.0  0.18627000000000002  0.7718300000000002  0.87527  1.0000
  H   H258      1.0  0.2271399999999999  0.83698  0.8404100000000002  1.0000
  H   H259      1.0  0.14894  0.78536  0.84018  1.0000
  H   H260      1.0  0.1558  0.63542  0.8180600000000002  1.0000
  H   H261      1.0  0.83336  0.64372  0.82742  1.0000
  H   H262      1.0  0.78894  0.56812  0.80646  1.0000
  H   H263      1.0  0.83554  0.64438  0.77946  1.0000
  H   H264      1.0  0.9439699999999999  0.70414  0.81676  1.0000
  C   C253      1.0  0.6637199999999998  0.7120400000000001  0.02085  1.0000
  C   C254      1.0  0.64084  0.64996  0.006840000000000001  1.0000
  C   C255      1.0  0.5827799999999999  0.59834  0.016480000000000005  1.0000
  C   C256      1.0  0.54512  0.60877  0.0368  1.0000
  C   C257      1.0  0.5681099999999999  0.67068  0.05109000000000002  1.0000
  C   C258      1.0  0.62724  0.72122  0.04324  1.0000
  H   H265      1.0  0.5657899999999998  0.55076  0.00611  1.0000
  H   H266      1.0  0.64499  0.76779  0.054950000000000006  1.0000
  C   C259      1.0  0.6764699999999999  0.63805  0.9804300000000001  1.0000
  C   C260      1.0  0.53183  0.68238  0.07685  1.0000
  C   C261      1.0  0.65498  0.63204  0.9426500000000001  1.0000
  H   H267      1.0  0.6077499999999998  0.59311  0.9430400000000002  1.0000
  H   H268      1.0  0.67856  0.61664  0.9255300000000001  1.0000
  C   C262      1.0  0.5361  0.66197  0.11531000000000001  1.0000
  H   H269      1.0  0.5823099999999999  0.69095  0.12236000000000001  1.0000
  H   H270      1.0  0.52053  0.60894  0.11788000000000003  1.0000
  H   H271      1.0  0.72376  0.6757599999999999  0.97951  1.0000
  H   H272      1.0  0.48582000000000003  0.65591  0.07021000000000002  1.0000
  C   C263      1.0  0.66545  0.69662  0.92578  1.0000
  C   C264      1.0  0.49959  0.67347  0.14156000000000002  1.0000
  H   H273      1.0  0.71279  0.73527  0.92335  1.0000
  H   H274      1.0  0.64901  0.68906  0.89869  1.0000
  H   H275      1.0  0.6419299999999999  0.7133900000000001  0.94182  1.0000
  H   H276      1.0  0.6720199999999997  0.59098  0.98936  1.0000
  H   H277      1.0  0.51479  0.7263700000000001  0.13988  1.0000
  H   H278      1.0  0.50402  0.65883  0.16909000000000005  1.0000
  H   H279      1.0  0.45286000000000004  0.64353  0.1358  1.0000
  H   H280      1.0  0.54747  0.73548  0.07453  1.0000
  C   C265      1.0  0.03663  0.11204  0.03488  1.0000
  C   C266      1.0  0.08448  0.10613  0.02714  1.0000
  C   C267      1.0  0.14142  0.16308  0.023430000000000003  1.0000
  C   C268      1.0  0.15177999999999994  0.22487000000000001  0.030090000000000002  1.0000
  C   C269      1.0  0.10471  0.22928  0.04232000000000002  1.0000
  C   C270      1.0  0.047200000000000006  0.17343  0.04295  1.0000
  H   H281      1.0  0.17788  0.15885  0.01635  1.0000
  H   H282      1.0  0.01073  0.178  0.04941  1.0000
  C   C271      1.0  0.07621  0.03908  0.026080000000000006  1.0000
  C   C272      1.0  0.11525999999999999  0.2927  0.05536  1.0000
  C   C273      1.0  0.08673999999999997  0.015350000000000004  0.06201  1.0000
  H   H283      1.0  0.12984999999999997  0.05366  0.07101  1.0000
  H   H284      1.0  0.08782999999999991  0.9708599999999998  0.05827  1.0000
  C   C274      1.0  0.12025000000000001  0.33945  0.02434  1.0000
  H   H285      1.0  0.07810999999999994  0.3164  0.01177  1.0000
  H   H286      1.0  0.15442999999999998  0.34862  0.0039000000000000003  1.0000
  H   H287      1.0  0.03251999999999999  0.0012  0.01779  1.0000
  H   H288      1.0  0.15532999999999994  0.31723  0.07032  1.0000
  C   C275      1.0  0.03913000000000003  0.9974600000000001  0.09103  1.0000
  C   C276      1.0  0.13532000000000002  0.40542000000000006  0.03692  1.0000
  H   H289      1.0  0.99555  0.9607400000000001  0.08205  1.0000
  H   H290      1.0  0.04644999999999996  0.97569  0.11538000000000001  1.0000
  H   H291      1.0  0.04009  0.04192  0.09801  1.0000
  H   H292      1.0  0.10781  0.04242  0.00549  1.0000
  H   H293      1.0  0.10124999999999998  0.39819000000000004  0.056830000000000006  1.0000
  H   H294      1.0  0.13801  0.43765000000000004  0.01384  1.0000
  H   H295      1.0  0.17813999999999997  0.4303600000000001  0.04897  1.0000
  H   H296      1.0  0.07884000000000001  0.28162  0.07455  1.0000
  C   C277      1.0  0.9193299999999998  0.7601600000000001  0.016970000000000002  1.0000
  C   C278      1.0  0.9393599999999998  0.73353  0.04282  1.0000
  C   C279      1.0  0.98948  0.7332300000000002  0.03435  1.0000
  C   C280      1.0  0.02042000000000005  0.76017  0.00109  1.0000
  C   C281      1.0  0.003210000000000095  0.7917700000000001  0.9766500000000002  1.0000
  C   C282      1.0  0.95256  0.79098  0.98471  1.0000
  H   H297      1.0  0.002759999999999969  0.70895  0.053070000000000006  1.0000
  H   H298      1.0  0.9390299999999999  0.8147  0.9658  1.0000
  C   C283      1.0  0.9072  0.70348  0.07917  1.0000
  C   C284      1.0  0.03854000000000002  0.82672  0.9418600000000001  1.0000
  C   C285      1.0  0.94318  0.743  0.10973000000000001  1.0000
  H   H299      1.0  0.9851599999999998  0.7459000000000001  0.10945  1.0000
  H   H300      1.0  0.9185999999999998  0.71638  0.13546  1.0000
  C   C286      1.0  0.008959999999999977  0.7859899999999999  0.91022  1.0000
  H   H301      1.0  0.96828  0.7845500000000001  0.90582  1.0000
  H   H302      1.0  0.9967700000000002  0.73444  0.91582  1.0000
  H   H303      1.0  0.86372  0.69668  0.08139  1.0000
  H   H304      1.0  0.08382999999999985  0.8385899999999998  0.9427600000000002  1.0000
  C   C287      1.0  0.9555799999999999  0.8126100000000002  0.10829000000000001  1.0000
  C   C288      1.0  0.04891999999999999  0.81515  0.87616  1.0000
  H   H305      1.0  0.9142299999999998  0.81076  0.11016000000000001  1.0000
  H   H306      1.0  0.9810299999999997  0.83811  0.13116  1.0000
  H   H307      1.0  0.9813299999999998  0.84158  0.0833  1.0000
  H   H308      1.0  0.8984200000000001  0.65303  0.08321000000000003  1.0000
  H   H309      1.0  0.06243999999999999  0.867  0.8698600000000001  1.0000
  H   H310      1.0  0.025530000000000008  0.78621  0.8536100000000001  1.0000
  H   H311      1.0  0.08831999999999998  0.81334  0.8792400000000001  1.0000
  H   H312      1.0  0.04270999999999996  0.87475  0.93793  1.0000
  C   C289      1.0  0.9729399999999999  0.30933999999999995  0.9861100000000002  1.0000
  C   C290      1.0  0.92016  0.27097  0.00757  1.0000
  C   C291      1.0  0.8864699999999999  0.20279  0.00558  1.0000
  C   C292      1.0  0.9095799999999999  0.17103000000000002  0.9886600000000001  1.0000
  C   C293      1.0  0.9633899999999999  0.20923  0.9680000000000001  1.0000
  C   C294      1.0  0.99313  0.2779600000000001  0.9658900000000001  1.0000
  H   H313      1.0  0.8445199999999999  0.17363  0.020550000000000006  1.0000
  H   H314      1.0  0.03259000000000002  0.30732  0.9485600000000001  1.0000
  C   C295      1.0  0.9008  0.30084  0.03451  1.0000
  C   C296      1.0  0.9893399999999998  0.17807999999999996  0.94733  1.0000
  C   C297      1.0  0.9064099999999998  0.28138  0.07299  1.0000
  H   H315      1.0  0.8833699999999999  0.22700999999999996  0.07772  1.0000
  H   H316      1.0  0.88485  0.2972  0.09149  1.0000
  C   C298      1.0  0.97354  0.17296999999999998  0.90841  1.0000
  H   H317      1.0  0.9889999999999999  0.22273  0.89575  1.0000
  H   H318      1.0  0.92541  0.14116  0.9072  1.0000
  H   H319      1.0  0.9248299999999999  0.35491  0.03054  1.0000
  H   H320      1.0  0.97555  0.12905  0.9593800000000001  1.0000
  C   C299      1.0  0.9699399999999996  0.31325  0.08197  1.0000
  C   C300      1.0  0.0016400000000000045  0.14389  0.88734  1.0000
  H   H321      1.0  0.9936399999999997  0.36769  0.07773  1.0000
  H   H322      1.0  0.9716199999999996  0.29989  0.11035  1.0000
  H   H323      1.0  0.9919299999999999  0.29554  0.06523000000000001  1.0000
  H   H324      1.0  0.85431  0.28281  0.031100000000000003  1.0000
  H   H325      1.0  0.049689999999999956  0.17346999999999999  0.8890600000000001  1.0000
  H   H326      1.0  0.9922599999999998  0.14428  0.85891  1.0000
  H   H327      1.0  0.9838899999999999  0.09233999999999999  0.89776  1.0000
  H   H328      1.0  0.03763  0.2086  0.94827  1.0000
  C   C301      1.0  0.8973099999999998  0.95125  0.87605  1.0000
  C   C302      1.0  0.9391999999999998  0.93892  0.863  1.0000
  C   C303      1.0  0.96179  0.9592500000000002  0.82746  1.0000
  C   C304      1.0  0.9522899999999999  0.002199999999999994  0.80691  1.0000
  C   C305      1.0  0.9145499999999998  0.019999999999999983  0.82142  1.0000
  C   C306      1.0  0.8843099999999998  0.99025  0.85472  1.0000
  H   H329      1.0  0.9911  0.94615  0.81682  1.0000
  H   H330      1.0  0.8530699999999998  0.0008799999999999976  0.86494  1.0000
  C   C307      1.0  0.9682500000000002  0.9155300000000001  0.8877800000000001  1.0000
  C   C308      1.0  0.9074  0.07203  0.80302  1.0000
  C   C309      1.0  0.026769999999999967  0.97415  0.8987400000000001  1.0000
  H   H331      1.0  0.04506000000000001  0.01754000000000001  0.87895  1.0000
  H   H332      1.0  0.059400000000000105  0.9604000000000001  0.8993200000000001  1.0000
  C   C310      1.0  0.85191  0.04006000000000002  0.78253  1.0000
  H   H333      1.0  0.8133699999999999  0.006099999999999999  0.80111  1.0000
  H   H334      1.0  0.8543799999999999  0.010889999999999966  0.7616300000000003  1.0000
  H   H335      1.0  0.93927  0.88438  0.9114100000000002  1.0000
  H   H336      1.0  0.9463399999999997  0.10877000000000002  0.78561  1.0000
  C   C311      1.0  0.021169999999999998  0.99495  0.93533  1.0000
  C   C312      1.0  0.84296  0.09186  0.76516  1.0000
  H   H337      1.0  0.00821999999999998  0.95429  0.95607  1.0000
  H   H338      1.0  0.06376999999999998  0.03843999999999999  0.9414700000000001  1.0000
  H   H339      1.0  0.9883999999999997  0.008420000000000006  0.93578  1.0000
  H   H340      1.0  0.97715  0.88277  0.87334  1.0000
  H   H341      1.0  0.84217  0.12319999999999999  0.78532  1.0000
  H   H342      1.0  0.8006299999999997  0.06722000000000002  0.75266  1.0000
  H   H343      1.0  0.8785999999999998  0.12330999999999998  0.7444  1.0000
  H   H344      1.0  0.90354  0.10094999999999997  0.82361  1.0000
  C   C313      1.0  0.52781  0.44817000000000007  0.48300000000000004  1.0000
  C   C314      1.0  0.57517  0.48427000000000003  0.50438  1.0000
  C   C315      1.0  0.56454  0.49748  0.53862  1.0000
  C   C316      1.0  0.50813  0.47849  0.55067  1.0000
  C   C317      1.0  0.4604  0.43699  0.5304500000000002  1.0000
  C   C318      1.0  0.47097999999999995  0.41639  0.4987  1.0000
  H   H345      1.0  0.6004999999999998  0.52501  0.5551500000000001  1.0000
  H   H346      1.0  0.43458  0.38470999999999994  0.48311  1.0000
  C   C319      1.0  0.63678  0.50676  0.49171  1.0000
  C   C320      1.0  0.40024000000000004  0.4238800000000001  0.5387  1.0000
  C   C321      1.0  0.6551000000000001  0.46192000000000005  0.50832  1.0000
  H   H347      1.0  0.6490799999999998  0.45803000000000005  0.53784  1.0000
  H   H348      1.0  0.70228  0.4846599999999999  0.5012  1.0000
  C   C322      1.0  0.3924499999999999  0.47294  0.51597  1.0000
  H   H349      1.0  0.3940799999999999  0.46474  0.48731  1.0000
  H   H350      1.0  0.42841  0.52428  0.51965  1.0000
  H   H351      1.0  0.64298  0.51032  0.46228  1.0000
  H   H352      1.0  0.39206999999999986  0.42594  0.5674400000000002  1.0000
  C   C323      1.0  0.6212999999999997  0.39305  0.49507  1.0000
  C   C324      1.0  0.3345499999999999  0.46557000000000004  0.5255700000000001  1.0000
  H   H353      1.0  0.6248199999999999  0.39626  0.46555  1.0000
  H   H354      1.0  0.63972  0.36471  0.50535  1.0000
  H   H355      1.0  0.57464  0.36622  0.50466  1.0000
  H   H356      1.0  0.6672299999999999  0.55743  0.49955  1.0000
  H   H357      1.0  0.2976  0.41403  0.5236300000000002  1.0000
  H   H358      1.0  0.3289099999999999  0.49836  0.50682  1.0000
  H   H359      1.0  0.33413  0.48009  0.55295  1.0000
  H   H360      1.0  0.36674  0.3729500000000001  0.5324  1.0000
  C   C325      1.0  0.3808199999999999  0.40894  0.15619  1.0000
  C   C326      1.0  0.3568399999999999  0.34748  0.17619000000000007  1.0000
  C   C327      1.0  0.3775699999999999  0.34543  0.20974  1.0000
  C   C328      1.0  0.42054  0.40346  0.22386  1.0000
  C   C329      1.0  0.44037999999999994  0.46507000000000004  0.20526  1.0000
  C   C330      1.0  0.4212199999999999  0.46707  0.17132  1.0000
  H   H361      1.0  0.3608399999999999  0.29847  0.22454000000000002  1.0000
  H   H362      1.0  0.4373699999999999  0.51426  0.15678  1.0000
  C   C331      1.0  0.30746999999999997  0.28402  0.16306  1.0000
  C   C332      1.0  0.4809499999999999  0.52923  0.22156  1.0000
  C   C333      1.0  0.24756999999999996  0.26447  0.17937  1.0000
  H   H363      1.0  0.24796  0.26483  0.20886000000000005  1.0000
  H   H364      1.0  0.21502999999999997  0.21326000000000003  0.17311000000000007  1.0000
  C   C334      1.0  0.5437599999999999  0.56235  0.20554  1.0000
  H   H365      1.0  0.54539  0.57321  0.17635  1.0000
  H   H366      1.0  0.5594799999999998  0.52901  0.20999  1.0000
  H   H367      1.0  0.3073  0.28592  0.13362000000000004  1.0000
  H   H368      1.0  0.4797699999999999  0.52159  0.25096  1.0000
  C   C335      1.0  0.22804999999999997  0.30902  0.16466  1.0000
  C   C336      1.0  0.58481  0.62662  0.22214  1.0000
  H   H369      1.0  0.22993  0.3117400000000001  0.13508  1.0000
  H   H370      1.0  0.18237  0.28871  0.17459000000000002  1.0000
  H   H371      1.0  0.25594  0.35924000000000006  0.17369  1.0000
  H   H372      1.0  0.31409  0.24376  0.17089  1.0000
  H   H373      1.0  0.57153  0.66192  0.21657000000000004  1.0000
  H   H374      1.0  0.6299299999999998  0.64877  0.21050000000000005  1.0000
  H   H375      1.0  0.5842999999999998  0.61752  0.2514  1.0000
  H   H376      1.0  0.4655999999999999  0.56288  0.21647  1.0000
  C   C337      1.0  0.55482  0.03491  0.51937  1.0000
  C   C338      1.0  0.52351  0.9654200000000001  0.51817  1.0000
  C   C339      1.0  0.51684  0.93901  0.48504  1.0000
  C   C340      1.0  0.54388  0.9803  0.45369000000000004  1.0000
  C   C341      1.0  0.5858399999999998  0.04798999999999999  0.45647  1.0000
  C   C342      1.0  0.5871899999999999  0.07557  0.48864  1.0000
  H   H377      1.0  0.4888999999999999  0.88619  0.48356000000000005  1.0000
  H   H378      1.0  0.61521  0.12838  0.49006  1.0000
  C   C343      1.0  0.49875999999999987  0.9184900000000001  0.55169  1.0000
  C   C344      1.0  0.6346799999999999  0.08834  0.42792  1.0000
  C   C345      1.0  0.5353699999999998  0.8896  0.56096  1.0000
  H   H379      1.0  0.54333  0.86956  0.5372  1.0000
  H   H380      1.0  0.51032  0.8478900000000001  0.58164  1.0000
  C   C346      1.0  0.62182  0.13024  0.40286  1.0000
  H   H381      1.0  0.62341  0.16948  0.41765  1.0000
  H   H382      1.0  0.57764  0.09972999999999997  0.39308000000000004  1.0000
  H   H383      1.0  0.49318999999999996  0.94058  0.57507  1.0000
  H   H384      1.0  0.64344  0.05614  0.41282  1.0000
  C   C347      1.0  0.59366  0.9398300000000002  0.5753800000000002  1.0000
  C   C348      1.0  0.6662899999999999  0.16209999999999997  0.37087  1.0000
  H   H385      1.0  0.58626  0.95549  0.60104  1.0000
  H   H386      1.0  0.61908  0.9171000000000001  0.58014  1.0000
  H   H387      1.0  0.6197199999999999  0.98345  0.55599  1.0000
  H   H388      1.0  0.45402999999999993  0.8769800000000001  0.5470400000000001  1.0000
  H   H389      1.0  0.7110299999999997  0.19387000000000001  0.37984  1.0000
  H   H390      1.0  0.65656  0.19299999999999998  0.35358  1.0000
  H   H391      1.0  0.6642  0.1237  0.35495  1.0000
  H   H392      1.0  0.67581  0.12168000000000001  0.44075  1.0000
  C   C349      1.0  0.46245999999999987  0.60699  0.33973  1.0000
  C   C350      1.0  0.44845  0.63544  0.36696  1.0000
  C   C351      1.0  0.46356  0.7006800000000001  0.36087  1.0000
  C   C352      1.0  0.48524999999999996  0.73478  0.3271  1.0000
  C   C353      1.0  0.49434999999999996  0.70368  0.29893  1.0000
  C   C354      1.0  0.48206  0.63984  0.30567  1.0000
  H   H393      1.0  0.4585799999999999  0.72527  0.38245000000000007  1.0000
  H   H394      1.0  0.49132  0.61725  0.2847  1.0000
  C   C355      1.0  0.42217999999999994  0.5985  0.40353  1.0000
  C   C356      1.0  0.52392  0.73987  0.26292  1.0000
  C   C357      1.0  0.37783  0.61003  0.42196  1.0000
  H   H395      1.0  0.3991  0.66146  0.42937  1.0000
  H   H396      1.0  0.3605999999999999  0.57806  0.4473200000000001  1.0000
  C   C358      1.0  0.59024  0.7736199999999999  0.26304  1.0000
  H   H397      1.0  0.60105  0.73606  0.26859  1.0000
  H   H398      1.0  0.6072899999999998  0.80793  0.28439  1.0000
  H   H399      1.0  0.3988299999999999  0.54473  0.40164  1.0000
  H   H400      1.0  0.51267  0.77537  0.25373  1.0000
  C   C359      1.0  0.32632  0.59269  0.39956000000000014  1.0000
  C   C360      1.0  0.62056  0.8118  0.22729  1.0000
  H   H401      1.0  0.3097  0.54498  0.38803  1.0000
  H   H402      1.0  0.29052000000000006  0.5884000000000003  0.41661  1.0000
  H   H403      1.0  0.33944  0.63185  0.37787  1.0000
  H   H404      1.0  0.4582999999999998  0.61253  0.42128000000000004  1.0000
  H   H405      1.0  0.60328  0.77885  0.20528000000000005  1.0000
  H   H406      1.0  0.66807  0.83282  0.22766  1.0000
  H   H407      1.0  0.6137  0.8526100000000001  0.22223000000000004  1.0000
  H   H408      1.0  0.5077  0.70365  0.24233  1.0000
  C   C361      1.0  0.48274  0.2319  0.33855  1.0000
  C   C362      1.0  0.44167000000000006  0.17741  0.36201  1.0000
  C   C363      1.0  0.44505  0.12162  0.36559  1.0000
  C   C364      1.0  0.48623999999999995  0.11794999999999999  0.34467  1.0000
  C   C365      1.0  0.52673  0.17232000000000003  0.32095  1.0000
  C   C366      1.0  0.5239799999999998  0.2283  0.31782  1.0000
  H   H409      1.0  0.41221  0.07866  0.38238  1.0000
  H   H410      1.0  0.5556299999999998  0.2703900000000001  0.30006  1.0000
  C   C367      1.0  0.3892799999999999  0.17424  0.37938  1.0000
  C   C368      1.0  0.5718899999999999  0.17049000000000003  0.29773  1.0000
  C   C369      1.0  0.38747  0.16879999999999998  0.42032000000000014  1.0000
  H   H411      1.0  0.3917399999999999  0.1277  0.43023  1.0000
  H   H412      1.0  0.34433999999999987  0.15719  0.43093000000000004  1.0000
  C   C370      1.0  0.5542  0.15975  0.25912  1.0000
  H   H413      1.0  0.55373  0.20259999999999997  0.24751000000000004  1.0000
  H   H414      1.0  0.5096899999999999  0.11509000000000001  0.2582400000000001  1.0000
  H   H415      1.0  0.3863499999999999  0.21651  0.3699500000000001  1.0000
  H   H416      1.0  0.5789899999999999  0.13185  0.30829000000000006  1.0000
  C   C371      1.0  0.43457  0.23231  0.43518000000000007  1.0000
  C   C372      1.0  0.59635  0.15188  0.23603  1.0000
  H   H417      1.0  0.42947  0.27348  0.42699  1.0000
  H   H418      1.0  0.43094  0.22565999999999997  0.46473000000000003  1.0000
  H   H419      1.0  0.4782599999999999  0.24474000000000004  0.4256600000000001  1.0000
  H   H420      1.0  0.3491999999999999  0.12972  0.37111  1.0000
  H   H421      1.0  0.6412099999999997  0.19643999999999998  0.23568  1.0000
  H   H422      1.0  0.58235  0.14501999999999998  0.20836000000000005  1.0000
  H   H423      1.0  0.59643  0.10808999999999999  0.24621000000000004  1.0000
  H   H424      1.0  0.6144999999999998  0.21817  0.29816000000000004  1.0000
  C   C373      1.0  0.47917999999999994  0.9637300000000001  0.19218000000000005  1.0000
  C   C374      1.0  0.44153999999999993  0.9579100000000002  0.16537000000000004  1.0000
  C   C375      1.0  0.46573999999999993  0.9927000000000001  0.13183  1.0000
  C   C376      1.0  0.52621  0.02942  0.12387000000000001  1.0000
  C   C377      1.0  0.56354  0.03244  0.15  1.0000
  C   C378      1.0  0.53987  0.0030099999999999984  0.18449  1.0000
  H   H425      1.0  0.4371399999999999  0.98893  0.11137000000000001  1.0000
  H   H426      1.0  0.56872  0.0072999999999999975  0.2049  1.0000
  C   C379      1.0  0.37567  0.9126300000000002  0.17119  1.0000
  C   C380      1.0  0.62827  0.06399  0.1411  1.0000
  C   C381      1.0  0.35185999999999995  0.84672  0.15467  1.0000
  H   H427      1.0  0.37045  0.85531  0.12682000000000004  1.0000
  H   H428      1.0  0.30385  0.82177  0.15364  1.0000
  C   C382      1.0  0.6635299999999998  0.13645  0.14939  1.0000
  H   H429      1.0  0.6618499999999998  0.13926000000000002  0.17867000000000002  1.0000
  H   H430      1.0  0.6447399999999998  0.16302  0.13704  1.0000
  H   H431      1.0  0.35998999999999987  0.90378  0.19959000000000005  1.0000
  H   H432      1.0  0.63695  0.05956000000000001  0.11277000000000001  1.0000
  C   C383      1.0  0.36396  0.8005  0.17609  1.0000
  C   C384      1.0  0.72729  0.17093  0.13563  1.0000
  H   H433      1.0  0.34630999999999995  0.7919199999999998  0.20415  1.0000
  H   H434      1.0  0.34251000000000004  0.7524100000000001  0.16422  1.0000
  H   H435      1.0  0.41146999999999995  0.82128  0.17548  1.0000
  H   H436      1.0  0.35581999999999997  0.93755  0.1582  1.0000
  H   H437      1.0  0.74748  0.14588  0.1479  1.0000
  H   H438      1.0  0.7517199999999998  0.22280000000000003  0.14266  1.0000
  H   H439      1.0  0.73067  0.17086  0.10618000000000001  1.0000
  H   H440      1.0  0.6437799999999999  0.03699  0.15697  1.0000
  C   C385      1.0  0.05762  0.51848  0.45816  1.0000
  C   C386      1.0  0.08339  0.58612  0.46299  1.0000
  C   C387      1.0  0.07984999999999999  0.60524  0.49699  1.0000
  C   C388      1.0  0.04953999999999997  0.5581  0.52584  1.0000
  C   C389      1.0  0.030299999999999928  0.4913599999999999  0.5218700000000001  1.0000
  C   C390      1.0  0.036480000000000026  0.47304000000000007  0.48811  1.0000
  H   H441      1.0  0.09838999999999999  0.65688  0.50058  1.0000
  H   H442      1.0  0.01917999999999999  0.42166  0.4845400000000001  1.0000
  C   C391      1.0  0.1140799999999999  0.6387099999999999  0.43229000000000006  1.0000
  C   C392      1.0  0.99869  0.43785  0.5521500000000001  1.0000
  C   C393      1.0  0.18067999999999998  0.67394  0.43182  1.0000
  H   H443      1.0  0.19590999999999995  0.68888  0.4587800000000001  1.0000
  H   H444      1.0  0.20071999999999998  0.71957  0.41366000000000014  1.0000
  C   C394      1.0  0.9330199999999998  0.40959  0.5542400000000002  1.0000
  H   H445      1.0  0.9151  0.39141000000000004  0.52819  1.0000
  H   H446      1.0  0.9250599999999999  0.44853  0.56016  1.0000
  H   H447      1.0  0.09895000000000004  0.61978  0.4061200000000001  1.0000
  H   H448      1.0  0.01725999999999999  0.45494  0.57804  1.0000
  C   C395      1.0  0.20222999999999997  0.63174  0.41867  1.0000
  C   C396      1.0  0.9005299999999997  0.3525  0.58299  1.0000
  H   H449      1.0  0.18877000000000002  0.61794  0.39132  1.0000
  H   H450      1.0  0.25057000000000007  0.6604000000000001  0.41795  1.0000
  H   H451      1.0  0.1848999999999999  0.58653  0.43682  1.0000
  H   H452      1.0  0.10273999999999997  0.6758400000000001  0.43535  1.0000
  H   H453      1.0  0.90684  0.31229  0.57714  1.0000
  H   H454      1.0  0.8531899999999999  0.33258  0.58351  1.0000
  H   H455      1.0  0.91632  0.36935  0.6095800000000001  1.0000
  H   H456      1.0  0.005299999999999983  0.39728  0.54756  1.0000
  C   C397      1.0  0.8086299999999997  0.45091  0.32443  1.0000
  C   C398      1.0  0.79374  0.48263000000000006  0.29826000000000014  1.0000
  C   C399      1.0  0.7412599999999998  0.47964  0.30329000000000006  1.0000
  C   C400      1.0  0.70387  0.44635  0.3338700000000001  1.0000
  C   C401      1.0  0.7187599999999997  0.4145  0.3598500000000001  1.0000
  C   C402      1.0  0.76956  0.4145700000000001  0.35395  1.0000
  H   H457      1.0  0.72885  0.50222  0.28287000000000007  1.0000
  H   H458      1.0  0.7803899999999997  0.38897  0.3735  1.0000
  C   C403      1.0  0.8312699999999998  0.5168  0.26386000000000004  1.0000
  C   C404      1.0  0.68031  0.3786200000000001  0.39358000000000004  1.0000
  C   C405      1.0  0.86036  0.59188  0.26193  1.0000
  H   H459      1.0  0.8284899999999998  0.60452  0.27017  1.0000
  H   H460      1.0  0.87578  0.6121  0.23382  1.0000
  C   C406      1.0  0.63337  0.30721  0.38756  1.0000
  H   H461      1.0  0.65424  0.28182  0.37784  1.0000
  H   H462      1.0  0.60469  0.30634  0.36708  1.0000
  H   H463      1.0  0.8646499999999995  0.50511  0.25889000000000006  1.0000
  H   H464      1.0  0.66006  0.40439  0.40355  1.0000
  C   C407      1.0  0.9125399999999998  0.62538  0.2847800000000001  1.0000
  C   C408      1.0  0.59624  0.26976  0.42183  1.0000
  H   H465      1.0  0.9475399999999999  0.61944  0.27421000000000006  1.0000
  H   H466      1.0  0.9298399999999996  0.67877  0.28409000000000006  1.0000
  H   H467      1.0  0.8996199999999998  0.60414  0.31281  1.0000
  H   H468      1.0  0.80257  0.49778  0.24131  1.0000
  H   H469      1.0  0.62319  0.26521  0.44185  1.0000
  H   H470      1.0  0.5603299999999999  0.21966  0.41609000000000007  1.0000
  H   H471      1.0  0.57711  0.29586999999999997  0.43305000000000005  1.0000
  H   H472      1.0  0.7074599999999999  0.37887  0.41513  1.0000
  C   C409      1.0  0.2889999999999999  0.41616999999999993  0.35536  1.0000
  C   C410      1.0  0.23826  0.39432000000000006  0.37753  1.0000
  C   C411      1.0  0.20383000000000007  0.41968000000000005  0.37019  1.0000
  C   C412      1.0  0.21687999999999993  0.46251  0.3398  1.0000
  C   C413      1.0  0.26743999999999996  0.48399  0.31754  1.0000
  C   C414      1.0  0.30273  0.46012000000000003  0.32543  1.0000
  H   H473      1.0  0.16416  0.40197  0.38666  1.0000
  H   H474      1.0  0.34206  0.47739  0.3087600000000001  1.0000
  C   C415      1.0  0.21697999999999998  0.33929000000000004  0.40689  1.0000
  C   C416      1.0  0.28683  0.53643  0.28696  1.0000
  C   C417      1.0  0.17089999999999994  0.27183  0.3944300000000001  1.0000
  H   H475      1.0  0.13647999999999993  0.27458  0.38099  1.0000
  H   H476      1.0  0.14941000000000002  0.23616000000000006  0.41823  1.0000
  C   C418      1.0  0.31972  0.60538  0.30051  1.0000
  H   H477      1.0  0.3567499999999999  0.61242  0.31562  1.0000
  H   H478      1.0  0.28993999999999986  0.61059  0.31862  1.0000
  H   H479      1.0  0.25301  0.33707  0.41812000000000005  1.0000
  H   H480      1.0  0.24921  0.52876  0.27232  1.0000
  C   C419      1.0  0.19717999999999997  0.24542  0.3695100000000001  1.0000
  C   C420      1.0  0.34369  0.65917  0.2699  1.0000
  H   H481      1.0  0.23171999999999995  0.24238  0.38249  1.0000
  H   H482      1.0  0.16253999999999996  0.19529  0.36294000000000004  1.0000
  H   H483      1.0  0.21601  0.27756  0.3443400000000001  1.0000
  H   H484      1.0  0.19683999999999996  0.34942000000000006  0.42955  1.0000
  H   H485      1.0  0.37528  0.65661  0.25205  1.0000
  H   H486      1.0  0.36658  0.7082  0.28079  1.0000
  H   H487      1.0  0.30764999999999987  0.65385  0.25431  1.0000
  H   H488      1.0  0.31584  0.53297  0.26719  1.0000
  C   C421      1.0  0.024610000000000038  0.48996000000000006  0.19099000000000002  1.0000
  C   C422      1.0  0.08174  0.52005  0.17461  1.0000
  C   C423      1.0  0.09026000000000002  0.53317  0.13756  1.0000
  C   C424      1.0  0.045200000000000004  0.52557  0.11733  1.0000
  C   C425      1.0  0.99004  0.50313  0.13424  1.0000
  C   C426      1.0  0.9797  0.48339  0.17078  1.0000
  H   H489      1.0  0.133  0.5523  0.12462000000000001  1.0000
  H   H490      1.0  0.9362799999999998  0.46171  0.18332  1.0000
  C   C427      1.0  0.13482999999999995  0.54302  0.19621000000000002  1.0000
  C   C428      1.0  0.94116  0.49779  0.11352000000000001  1.0000
  C   C429      1.0  0.17401999999999992  0.6185  0.19532000000000002  1.0000
  H   H491      1.0  0.18399000000000001  0.64121  0.16751000000000002  1.0000
  H   H492      1.0  0.21614999999999998  0.63221  0.20635  1.0000
  C   C430      1.0  0.9043699999999998  0.42962000000000006  0.0994  1.0000
  H   H493      1.0  0.8889  0.39065  0.12165000000000001  1.0000
  H   H494      1.0  0.9313599999999997  0.42317  0.07965  1.0000
  H   H495      1.0  0.12390999999999999  0.52305  0.22435  1.0000
  H   H496      1.0  0.95844  0.53674  0.09113  1.0000
  C   C431      1.0  0.14664  0.647  0.21755  1.0000
  C   C432      1.0  0.85152  0.42103  0.08159000000000001  1.0000
  H   H497      1.0  0.13782999999999992  0.62564  0.24555  1.0000
  H   H498      1.0  0.17719999999999989  0.7012099999999999  0.21717000000000003  1.0000
  H   H499      1.0  0.10531000000000004  0.63639  0.20667000000000005  1.0000
  H   H500      1.0  0.16078999999999993  0.5247  0.18468  1.0000
  H   H501      1.0  0.82072  0.42055  0.10161  1.0000
  H   H502      1.0  0.8286699999999998  0.37362  0.06899000000000001  1.0000
  H   H503      1.0  0.8654799999999999  0.46190000000000003  0.0608  1.0000
  H   H504      1.0  0.9129  0.50613  0.13122  1.0000
  C   C433      1.0  0.05329999999999997  0.98126  0.47071  1.0000
  C   C434      1.0  0.08505999999999998  0.04384999999999999  0.48437  1.0000
  C   C435      1.0  0.08305999999999998  0.04786000000000001  0.52133  1.0000
  C   C436      1.0  0.048889999999999996  0.99075  0.54422  1.0000
  C   C437      1.0  0.02818000000000008  0.9287300000000002  0.5310400000000001  1.0000
  C   C438      1.0  0.03150000000000001  0.92478  0.49413000000000007  1.0000
  H   H505      1.0  0.10397999999999998  0.09565999999999997  0.5320100000000001  1.0000
  H   H506      1.0  0.011189999999999983  0.87694  0.48355  1.0000
  C   C439      1.0  0.12100999999999996  0.10664999999999998  0.46005000000000007  1.0000
  C   C440      1.0  0.0008100000000000065  0.8664  0.55576  1.0000
  C   C441      1.0  0.18479  0.12713  0.45452000000000004  1.0000
  H   H507      1.0  0.20155000000000003  0.12236000000000001  0.48031  1.0000
  H   H508      1.0  0.21174  0.17989  0.44441  1.0000
  C   C442      1.0  0.93498  0.8347  0.56285  1.0000
  H   H509      1.0  0.91324  0.8216  0.53736  1.0000
  H   H510      1.0  0.9264099999999998  0.8697199999999999  0.57485  1.0000
  H   H511      1.0  0.1019  0.10329  0.4340300000000001  1.0000
  H   H512      1.0  0.02226000000000005  0.8766800000000001  0.58128  1.0000
  C   C443      1.0  0.19274999999999998  0.08707999999999999  0.4277000000000001  1.0000
  C   C444      1.0  0.9081899999999999  0.7725699999999999  0.58825  1.0000
  H   H513      1.0  0.17785  0.09302  0.40148  1.0000
  H   H514      1.0  0.23960000000000004  0.10501  0.42406000000000005  1.0000
  H   H515      1.0  0.16822  0.03416  0.43735  1.0000
  H   H516      1.0  0.12067  0.14711  0.4723800000000001  1.0000
  H   H517      1.0  0.90922  0.7333199999999999  0.5750600000000001  1.0000
  H   H518      1.0  0.8622699999999998  0.7548499999999999  0.59599  1.0000
  H   H519      1.0  0.9322699999999998  0.78285  0.6128400000000003  1.0000
  H   H520      1.0  0.008360000000000069  0.8305100000000001  0.5437  1.0000
  C   C445      1.0  0.02771000000000001  0.66094  0.33911  1.0000
  C   C446      1.0  0.06241999999999998  0.71507  0.31366  1.0000
  C   C447      1.0  0.05570000000000006  0.7685600000000001  0.3121700000000001  1.0000
  C   C448      1.0  0.015950000000000082  0.7696200000000001  0.33591  1.0000
  C   C449      1.0  0.9833599999999997  0.71712  0.36249  1.0000
  C   C450      1.0  0.9905299999999998  0.6639  0.36425  1.0000
  H   H521      1.0  0.08266000000000003  0.81037  0.29298  1.0000
  H   H522      1.0  0.96397  0.62247  0.38371  1.0000
  C   C451      1.0  0.10902999999999993  0.7184  0.28908  1.0000
  C   C452      1.0  0.9370399999999998  0.71429  0.38703  1.0000
  C   C453      1.0  0.16948000000000005  0.7560400000000003  0.3043  1.0000
  H   H523      1.0  0.17546  0.79775  0.3188600000000001  1.0000
  H   H524      1.0  0.20345999999999997  0.77742  0.28186  1.0000
  C   C454      1.0  0.8803499999999997  0.68917  0.36826  1.0000
  H   H525      1.0  0.86284  0.6382  0.36092  1.0000
  H   H526      1.0  0.8889699999999998  0.72101  0.34349  1.0000
  H   H527      1.0  0.09766000000000008  0.66911  0.28238  1.0000
  H   H528      1.0  0.9527299999999999  0.76328  0.39672  1.0000
  C   C455      1.0  0.17967000000000002  0.71148  0.32885  1.0000
  C   C456      1.0  0.83416  0.68867  0.3922100000000001  1.0000
  H   H529      1.0  0.17984000000000006  0.6735800000000002  0.31365  1.0000
  H   H530      1.0  0.2225199999999999  0.7414299999999999  0.34050000000000014  1.0000
  H   H531      1.0  0.14522  0.68662  0.35083  1.0000
  H   H532      1.0  0.11174999999999999  0.74445  0.26315  1.0000
  H   H533      1.0  0.82352  0.65587  0.41685  1.0000
  H   H534      1.0  0.7938199999999997  0.67015  0.37785  1.0000
  H   H535      1.0  0.84987  0.73922  0.39949000000000007  1.0000
  H   H536      1.0  0.9277899999999998  0.6809  0.4112500000000001  1.0000
  C   C457      1.0  0.9811599999999998  0.13112  0.34393000000000007  1.0000
  C   C458      1.0  0.9655599999999999  0.15810000000000002  0.37131  1.0000
  C   C459      1.0  0.98618  0.22551  0.36783  1.0000
  C   C460      1.0  0.01686999999999997  0.26464999999999994  0.3364600000000001  1.0000
  C   C461      1.0  0.03399  0.23811000000000002  0.30972  1.0000
  C   C462      1.0  0.013539999999999988  0.17095  0.31314  1.0000
  H   H537      1.0  0.9773399999999998  0.24733  0.38940000000000013  1.0000
  H   H538      1.0  0.026189999999999988  0.15056  0.29261  1.0000
  C   C463      1.0  0.92849  0.11660999999999998  0.40489  1.0000
  C   C464      1.0  0.08158999999999998  0.28187  0.2808400000000001  1.0000
  C   C465      1.0  0.8738299999999998  0.11884  0.41174  1.0000
  H   H539      1.0  0.8852999999999998  0.17020999999999997  0.41249  1.0000
  H   H540      1.0  0.8530499999999998  0.09335999999999998  0.43839  1.0000
  C   C466      1.0  0.14121999999999998  0.29928  0.29278000000000004  1.0000
  H   H541      1.0  0.14026  0.2534  0.29927  1.0000
  H   H542      1.0  0.15118  0.32644  0.31708  1.0000
  H   H543      1.0  0.91358  0.06414999999999998  0.40493000000000007  1.0000
  H   H544      1.0  0.08328  0.3274  0.27288  1.0000
  C   C467      1.0  0.8291699999999997  0.08455999999999998  0.3841100000000001  1.0000
  C   C468      1.0  0.18981999999999996  0.34152  0.26385  1.0000
  H   H545      1.0  0.81298  0.031439999999999996  0.38576000000000005  1.0000
  H   H546      1.0  0.7915499999999998  0.08932  0.38948  1.0000
  H   H547      1.0  0.8487499999999998  0.10719000000000001  0.35689  1.0000
  H   H548      1.0  0.95594  0.13573  0.42795  1.0000
  H   H549      1.0  0.18155999999999997  0.31453999999999993  0.23956000000000002  1.0000
  H   H550      1.0  0.23212999999999998  0.35309999999999997  0.27353  1.0000
  H   H551      1.0  0.19283  0.38846000000000014  0.25706  1.0000
  H   H552      1.0  0.07220999999999998  0.25508  0.25634  1.0000
  C   C469      1.0  0.6880899999999998  0.9384100000000001  0.32196000000000013  1.0000
  C   C470      1.0  0.7466299999999998  0.98668  0.31027  1.0000
  C   C471      1.0  0.7908299999999999  0.97639  0.3191400000000001  1.0000
  C   C472      1.0  0.7776299999999998  0.9196099999999999  0.33991  1.0000
  C   C473      1.0  0.71899  0.87042  0.35048  1.0000
  C   C474      1.0  0.67487  0.88107  0.34213  1.0000
  H   H553      1.0  0.83586  0.013659999999999997  0.31071  1.0000
  H   H554      1.0  0.6299199999999998  0.84409  0.35093  1.0000
  C   C475      1.0  0.76302  0.05006  0.28894  1.0000
  C   C476      1.0  0.70283  0.8067099999999999  0.37106  1.0000
  C   C477      1.0  0.77987  0.050849999999999985  0.24958000000000005  1.0000
  H   H555      1.0  0.8143499999999998  0.03988999999999998  0.24736000000000005  1.0000
  H   H556      1.0  0.7983199999999998  0.10115000000000002  0.23666  1.0000
  C   C478      1.0  0.7026699999999999  0.81322  0.41133  1.0000
  H   H557      1.0  0.67042  0.8255000000000001  0.4193  1.0000
  H   H558      1.0  0.74643  0.85353  0.41836  1.0000
  H   H559      1.0  0.7282599999999999  0.06051000000000001  0.29089  1.0000
  H   H560      1.0  0.7332099999999999  0.7918  0.3630700000000001  1.0000
  C   C479      1.0  0.72791  0.002130000000000001  0.22937  1.0000
  C   C480      1.0  0.6869  0.7494  0.43232000000000004  1.0000
  H   H561      1.0  0.6929899999999998  0.01238  0.23115  1.0000
  H   H562      1.0  0.7420299999999997  0.006829999999999996  0.20087000000000002  1.0000
  H   H563      1.0  0.71054  0.9510000000000001  0.24034000000000005  1.0000
  H   H564      1.0  0.8012299999999998  0.09191  0.3005  1.0000
  H   H565      1.0  0.6427299999999998  0.70838  0.42641000000000007  1.0000
  H   H566      1.0  0.6870300000000001  0.7556800000000002  0.4613  1.0000
  H   H567      1.0  0.7192199999999997  0.73668  0.42546  1.0000
  H   H568      1.0  0.6587499999999998  0.7663599999999999  0.36437  1.0000
  C   C481      1.0  0.2808999999999999  0.93332  0.33499000000000007  1.0000
  C   C482      1.0  0.2406099999999999  0.91848  0.36433  1.0000
  C   C483      1.0  0.20888999999999994  0.94881  0.36416000000000004  1.0000
  C   C484      1.0  0.20836999999999994  0.98262  0.33312000000000014  1.0000
  C   C485      1.0  0.2507  0.0007899999999999984  0.30498  1.0000
  C   C486      1.0  0.28503000000000006  0.9738700000000001  0.3055  1.0000
  H   H569      1.0  0.18110999999999994  0.942  0.38715  1.0000
  H   H570      1.0  0.31820999999999994  0.9887  0.28415  1.0000
  C   C487      1.0  0.23492999999999986  0.8740599999999998  0.39667  1.0000
  C   C488      1.0  0.26682999999999996  0.05752000000000001  0.27798  1.0000
  C   C489      1.0  0.17627  0.83746  0.41909  1.0000
  H   H571      1.0  0.16941  0.87258  0.43256  1.0000
  H   H572      1.0  0.17831000000000008  0.8057800000000002  0.44067  1.0000
  C   C490      1.0  0.3118799999999999  0.12307  0.29261  1.0000
  H   H573      1.0  0.35127999999999987  0.12301  0.29914  1.0000
  H   H574      1.0  0.29305  0.12946  0.31738  1.0000
  H   H575      1.0  0.24254999999999993  0.8361  0.38792000000000004  1.0000
  H   H576      1.0  0.22778999999999994  0.05798  0.27114  1.0000
  C   C491      1.0  0.12414000000000001  0.79347  0.3976  1.0000
  C   C492      1.0  0.33026  0.18143  0.26578  1.0000
  H   H577      1.0  0.13092999999999996  0.7585500000000001  0.384  1.0000
  H   H578      1.0  0.08415  0.76489  0.41577  1.0000
  H   H579      1.0  0.11714  0.8231  0.3775  1.0000
  H   H580      1.0  0.26969000000000004  0.9047500000000002  0.41457  1.0000
  H   H581      1.0  0.35025  0.17717000000000002  0.24088  1.0000
  H   H582      1.0  0.36292999999999986  0.22772  0.27732  1.0000
  H   H583      1.0  0.29202  0.1839  0.25944  1.0000
  H   H584      1.0  0.28528  0.05186  0.25278  1.0000
  C   C493      1.0  0.87253  0.9115  0.14846  1.0000
  C   C494      1.0  0.8583200000000001  0.8523700000000001  0.16775  1.0000
  C   C495      1.0  0.8840400000000002  0.8556300000000001  0.19991  1.0000
  C   C496      1.0  0.92215  0.91651  0.21334  1.0000
  C   C497      1.0  0.93203  0.9749  0.19569  1.0000
  C   C498      1.0  0.90801  0.97196  0.16298000000000007  1.0000
  H   H585      1.0  0.8744799999999998  0.81068  0.21448  1.0000
  H   H586      1.0  0.91816  0.0171  0.14832  1.0000
  C   C499      1.0  0.81351  0.7853700000000001  0.15544  1.0000
  C   C500      1.0  0.96935  0.04093  0.21101  1.0000
  C   C501      1.0  0.7523499999999997  0.7571500000000001  0.17313  1.0000
  H   H587      1.0  0.75429  0.7594800000000003  0.20250000000000007  1.0000
  H   H588      1.0  0.72433  0.7044  0.16789  1.0000
  C   C502      1.0  0.032969999999999985  0.07623999999999999  0.19618000000000002  1.0000
  H   H589      1.0  0.035579999999999994  0.08737  0.16691  1.0000
  H   H590      1.0  0.0499  0.04413999999999999  0.20114000000000007  1.0000
  H   H591      1.0  0.8116  0.78602  0.12606  1.0000
  H   H592      1.0  0.96678  0.03507  0.2406  1.0000
  C   C503      1.0  0.72376  0.7924800000000001  0.15878  1.0000
  C   C504      1.0  0.07173  0.14049  0.21343000000000004  1.0000
  H   H593      1.0  0.7238499999999997  0.7934099999999998  0.12926000000000004  1.0000
  H   H594      1.0  0.67784  0.76592  0.16983  1.0000
  H   H595      1.0  0.7469  0.84361  0.16691  1.0000
  H   H596      1.0  0.82692  0.75053  0.16259000000000007  1.0000
  H   H597      1.0  0.05587999999999997  0.17375  0.20905000000000007  1.0000
  H   H598      1.0  0.11693999999999997  0.16562  0.20142  1.0000
  H   H599      1.0  0.07232  0.1304  0.24246  1.0000
  H   H600      1.0  0.9521899999999998  0.07229  0.20407  1.0000
