data_image0
_chemical_formula_structural       ZnO5COZnPCO6Zn3P2C2O12COZn3P2C2O12COZn2P2C3O9Zn2C2O6Zn3P2C3O13Zn3P2C3O12COZn2P2CO7COZn2P2CO6COZn3P2C3O13COZn3P2C2O12COC2H2CH2C6H2C3H2CH4C2H8C6H2C3H2CH4C2H8C6H2C3H2CH4C2H8C6H2C3H2CH4C2H8C6H2C3H2CH4CH5C6H2C3H2CH4C2H6C6H2C3H2CH4CH5C6H2C3HCH4C2H6CHCH3C6H2C3H2CH4C2H8C3HC2H3CH6C6H2C3H2CH4C2H8C4HC2H2CH5C6HC2H3CH4C4HC2H3CH4C6H2C3H5CH5C6H2C3H2CH4C2H7C6H2C3H2CH4CH5C6H2C3H4C2H7C6H2C3H4CH5C6H2C3H2CH4CH6C4HC2H3CH5CH2C6H2C3H2CH4C2H10CH4C4HC2H3CH4CH2CH7C6H2C3H2CH4C2H8C4HC2H3CH4PCOCO2P2CO3C3H5CH2C3HCH2CH3CHC4H2POH5CHCHCH3CHC5H3CH3PH3OHC2H4COH2CHCHCHCHC2O3H4CH2CH3C3H2CHZn2C2O7Zn2C2O7ZnO3COZnO4COZnC2O6ZnC2O6C5H2C2H3CH4C6H2C3H2CH4C2H8C6H2C3HCH3C2H7C6HC3H2CH4C2H8CH3C6H2C2H3CH4C2HC2H3CH3C6H2C2H2CH3CH5CH2CH2CH3C2HC2H3CH5CH4CHCH3C2HC2H3CH4C6H2C2H3CH4CH2CH2C2HC2H3CH4C4HC2H3CH4C5HCH3C2H5C6H2CHCH3C2H6C2HC2H3CH4
_chemical_formula_sum              "Zn36 O168 C480 P24 H576"
_cell_length_a       27.68857
_cell_length_b       27.56835
_cell_length_c       30.51399
_cell_angle_alpha    90.00707
_cell_angle_beta     90.81219000000002
_cell_angle_gamma    119.99188999999998

_space_group_name_H-M_alt    "P 1"
_space_group_IT_number       1

loop_
  _space_group_symop_operation_xyz
  'x, y, z'

loop_
  _atom_site_type_symbol
  _atom_site_label
  _atom_site_symmetry_multiplicity
  _atom_site_fract_x
  _atom_site_fract_y
  _atom_site_fract_z
  _atom_site_occupancy
  Zn  Zn1       1.0  0.04008000000000002  0.97178  0.35342  1.0000
  O   O1        1.0  0.03352  0.024829999999999998  0.31649  1.0000
  O   O2        1.0  0.00995  0.05914  0.38533  1.0000
  O   O3        1.0  0.030620000000000012  0.98204  0.41516  1.0000
  O   O4        1.0  0.12901  0.02102  0.28614  1.0000
  O   O5        1.0  0.9929299999999998  0.89147  0.33545999999999987  1.0000
  C   C1        1.0  0.14353000000000002  0.99776  0.3172899999999999  1.0000
  O   O6        1.0  0.11071000000000006  0.9744700000000002  0.3507799999999999  1.0000
  Zn  Zn2       1.0  0.06431999999999999  0.46678  0.32426  1.0000
  P   P1        1.0  0.024400000000000047  0.5028900000000001  0.39887  1.0000
  C   C2        1.0  0.17521000000000006  0.4894100000000001  0.33103  1.0000
  O   O7        1.0  0.05522999999999995  0.56199  0.37437  1.0000
  O   O8        1.0  0.07716000000000005  0.5364400000000001  0.29972  1.0000
  O   O9        1.0  0.04875  0.46298  0.38612999999999986  1.0000
  O   O10       1.0  0.12449999999999999  0.45104000000000005  0.31929999999999986  1.0000
  O   O11       1.0  0.18358999999999998  0.53616  0.34932  1.0000
  O   O12       1.0  0.0054900000000000625  0.39756000000000014  0.29404999999999987  1.0000
  Zn  Zn3       1.0  0.5791599999999998  0.04199000000000001  0.35307  1.0000
  Zn  Zn4       1.0  0.5217499999999999  0.9080300000000001  0.34610999999999986  1.0000
  Zn  Zn5       1.0  0.4550299999999999  0.015870000000000002  0.3433499999999999  1.0000
  P   P2        1.0  0.4920899999999999  0.96465  0.4126899999999999  1.0000
  P   P3        1.0  0.50533  0.97598  0.2796  1.0000
  C   C3        1.0  0.33918  0.97912  0.33868  1.0000
  C   C4        1.0  0.5524799999999997  0.12918000000000002  0.35351  1.0000
  O   O13       1.0  0.53942  0.02817  0.40794999999999987  1.0000
  O   O14       1.0  0.56891  0.012090000000000004  0.29386  1.0000
  O   O15       1.0  0.5178399999999999  0.9246100000000003  0.4057  1.0000
  O   O16       1.0  0.47786  0.0147  0.28447  1.0000
  O   O17       1.0  0.44173999999999997  0.9499600000000002  0.37869999999999987  1.0000
  O   O18       1.0  0.47203999999999996  0.9208500000000002  0.3085  1.0000
  O   O19       1.0  0.38872  0.02225  0.34710999999999986  1.0000
  O   O20       1.0  0.51017  0.8127800000000001  0.40287  1.0000
  O   O21       1.0  0.33410999999999996  0.9300600000000001  0.3302  1.0000
  O   O22       1.0  0.50639  0.09021  0.3714499999999999  1.0000
  O   O23       1.0  0.60103  0.94993  0.32938  1.0000
  O   O24       1.0  0.59227  0.11839  0.34341  1.0000
  C   C5        1.0  0.51084  0.80114  0.36123  1.0000
  O   O25       1.0  0.5088799999999999  0.83415  0.33112999999999987  1.0000
  Zn  Zn6       1.0  0.61983  0.57644  0.30495  1.0000
  Zn  Zn7       1.0  0.48525999999999997  0.5270900000000001  0.29559  1.0000
  Zn  Zn8       1.0  0.5770799999999999  0.44631000000000004  0.3280299999999999  1.0000
  P   P4        1.0  0.5481099999999999  0.4830200000000001  0.24565999999999996  1.0000
  P   P5        1.0  0.53454  0.5096800000000001  0.37469999999999987  1.0000
  C   C6        1.0  0.5522599999999998  0.33388  0.31980999999999987  1.0000
  C   C7        1.0  0.5717599999999999  0.6432100000000001  0.2964099999999999  1.0000
  O   O26       1.0  0.5892799999999998  0.54887  0.24706  1.0000
  O   O27       1.0  0.59722  0.5552  0.36420999999999987  1.0000
  O   O28       1.0  0.49151000000000006  0.4649700000000001  0.27156999999999987  1.0000
  O   O29       1.0  0.5155199999999998  0.4498500000000001  0.35271999999999987  1.0000
  O   O30       1.0  0.57961  0.45186000000000004  0.26447  1.0000
  O   O31       1.0  0.4938799999999999  0.53199  0.35918  1.0000
  O   O32       1.0  0.5836599999999997  0.38122  0.3408299999999999  1.0000
  O   O33       1.0  0.37031999999999987  0.43704  0.26738  1.0000
  O   O34       1.0  0.5123299999999997  0.32901  0.29323  1.0000
  O   O35       1.0  0.6496199999999999  0.50242  0.3542799999999999  1.0000
  O   O36       1.0  0.53772  0.60154  0.2706099999999999  1.0000
  O   O37       1.0  0.6200799999999997  0.64807  0.3072699999999999  1.0000
  C   C8        1.0  0.37013000000000007  0.4834500000000001  0.27669  1.0000
  O   O38       1.0  0.4173999999999999  0.52939  0.28543999999999997  1.0000
  Zn  Zn9       1.0  0.12743  0.010810000000000004  0.02527  1.0000
  Zn  Zn10      1.0  0.08107999999999997  0.09376  0.03978  1.0000
  P   P6        1.0  0.039310000000000025  0.9886400000000001  0.08703  1.0000
  P   P7        1.0  0.05865000000000001  0.028990000000000005  0.95906  1.0000
  C   C9        1.0  0.029059999999999996  0.15765000000000004  0.049689999999999984  1.0000
  C   C10       1.0  0.19930999999999993  0.12702000000000002  0.040849999999999984  1.0000
  C   C11       1.0  0.0885100000000001  0.8960700000000003  0.002099999999999999  1.0000
  O   O39       1.0  0.10519999999999999  0.01722  0.08471  1.0000
  O   O40       1.0  0.10110999999999998  0.006619999999999996  0.9653199999999997  1.0000
  O   O41       1.0  0.08422  0.0912  0.9781899999999998  1.0000
  O   O42       1.0  0.01806  0.02408  0.06014999999999999  1.0000
  O   O43       1.0  0.07175  0.15309  0.06297  1.0000
  O   O44       1.0  0.15776  0.12074  0.06528  1.0000
  O   O45       1.0  0.050980000000000025  0.90141  0.9789799999999997  1.0000
  O   O46       1.0  0.19826999999999995  0.08257  0.023999999999999994  1.0000
  O   O47       1.0  0.12777000000000002  0.9390800000000001  0.02444  1.0000
  Zn  Zn11      1.0  0.10951999999999998  0.49492  0.007729999999999998  1.0000
  Zn  Zn12      1.0  0.07210999999999998  0.58594  0.9964799999999998  1.0000
  C   C12       1.0  0.18873  0.6127  0.007229999999999999  1.0000
  C   C13       1.0  0.0587  0.37473  0.01345  1.0000
  O   O48       1.0  0.09333  0.52214  0.06054  1.0000
  O   O49       1.0  0.07730999999999996  0.46936  0.95024  1.0000
  O   O50       1.0  0.07022999999999999  0.65434  0.002269999999999999  1.0000
  O   O51       1.0  0.14728000000000002  0.6159400000000002  0.024859999999999993  1.0000
  O   O52       1.0  0.18264999999999992  0.56337  0.99685  1.0000
  O   O53       1.0  0.10271000000000004  0.42271000000000003  0.02581  1.0000
  Zn  Zn13      1.0  0.42300999999999994  0.9533400000000001  0.9981999999999998  1.0000
  Zn  Zn14      1.0  0.5493199999999999  0.04965  0.0233  1.0000
  Zn  Zn15      1.0  0.4793  0.8763500000000002  0.9935299999999998  1.0000
  P   P8        1.0  0.4863299999999999  0.94246  0.07163999999999997  1.0000
  P   P9        1.0  0.5214499999999997  0.98029  0.9439  1.0000
  C   C14       1.0  0.50838  0.7948000000000002  0.01664  1.0000
  C   C15       1.0  0.36216  0.8370700000000001  0.9783899999999998  1.0000
  C   C16       1.0  0.45404999999999995  0.06685  0.01151  1.0000
  O   O54       1.0  0.44254  0.96163  0.05979  1.0000
  O   O55       1.0  0.45561999999999997  0.9534100000000001  0.9425199999999998  1.0000
  O   O56       1.0  0.5466599999999998  0.98539  0.052459999999999986  1.0000
  O   O57       1.0  0.54121  0.9456100000000002  0.97391  1.0000
  O   O58       1.0  0.4640899999999999  0.87969  0.05484  1.0000
  O   O59       1.0  0.5493599999999998  0.04399000000000001  0.95986  1.0000
  O   O60       1.0  0.4829799999999999  0.80879  0.9869599999999997  1.0000
  O   O61       1.0  0.5391799999999998  0.83085  0.04731999999999999  1.0000
  O   O62       1.0  0.40912  0.8499100000000003  0.9591099999999998  1.0000
  O   O63       1.0  0.4883499999999999  0.06424  0.04051  1.0000
  O   O64       1.0  0.3568700000000001  0.8770000000000001  0.99765  1.0000
  O   O65       1.0  0.4176399999999999  0.02125000000000001  0.99  1.0000
  O   O66       1.0  0.61209  0.1244  0.03479  1.0000
  Zn  Zn16      1.0  0.442  0.4618100000000001  0.9834599999999999  1.0000
  Zn  Zn17      1.0  0.5751799999999998  0.5464800000000001  0.98499  1.0000
  Zn  Zn18      1.0  0.4754599999999999  0.3703  0.9645399999999997  1.0000
  P   P10       1.0  0.52216  0.44594000000000006  0.04037  1.0000
  P   P11       1.0  0.5125899999999999  0.47082000000000007  0.91015  1.0000
  C   C17       1.0  0.5069399999999997  0.2881000000000001  0.9607299999999998  1.0000
  C   C18       1.0  0.36229999999999996  0.34695000000000004  0.9800099999999998  1.0000
  C   C19       1.0  0.4908399999999999  0.57924  0.9989199999999998  1.0000
  O   O67       1.0  0.48035999999999995  0.46958  0.03854999999999999  1.0000
  O   O68       1.0  0.44944  0.45060000000000006  0.92123  1.0000
  O   O69       1.0  0.57424  0.4809000000000001  0.009069999999999996  1.0000
  O   O70       1.0  0.5336099999999999  0.4325000000000001  0.9332699999999999  1.0000
  O   O71       1.0  0.4888599999999999  0.38076  0.027619999999999992  1.0000
  O   O72       1.0  0.55038  0.53507  0.9243999999999998  1.0000
  O   O73       1.0  0.46599999999999997  0.2978  0.9527799999999997  1.0000
  O   O74       1.0  0.5573599999999999  0.3303  0.96837  1.0000
  O   O75       1.0  0.3963599999999999  0.34853000000000006  0.94974  1.0000
  O   O76       1.0  0.53077  0.5734900000000002  0.017889999999999993  1.0000
  O   O77       1.0  0.37143999999999994  0.39395000000000013  0.9983999999999997  1.0000
  O   O78       1.0  0.4466699999999999  0.53549  0.9814699999999997  1.0000
  C   C20       1.0  0.6813699999999998  0.63738  0.01552  1.0000
  O   O79       1.0  0.6453899999999998  0.61733  0.9825899999999997  1.0000
  Zn  Zn19      1.0  0.013929999999999991  0.9438  0.67731  1.0000
  Zn  Zn20      1.0  0.10396999999999998  0.07593000000000001  0.6746299999999997  1.0000
  P   P12       1.0  0.001089999999999999  0.02582  0.62112  1.0000
  P   P13       1.0  0.033219999999999986  0.022840000000000003  0.75048  1.0000
  C   C21       1.0  0.13071000000000008  0.9872200000000002  0.6607899999999998  1.0000
  O   O80       1.0  0.02055999999999998  0.98045  0.6210599999999998  1.0000
  O   O81       1.0  0.008360000000000008  0.9580700000000001  0.7398299999999998  1.0000
  O   O82       1.0  0.03907999999999998  0.07756  0.65293  1.0000
  O   O83       1.0  0.09701  0.05664  0.73579  1.0000
  O   O84       1.0  0.13421  0.19631  0.68188  1.0000
  O   O85       1.0  0.12497999999999998  0.02678  0.6415499999999997  1.0000
  O   O86       1.0  0.08687000000000007  0.9445200000000002  0.67892  1.0000
  C   C22       1.0  0.17870999999999995  0.19302000000000002  0.6728299999999998  1.0000
  O   O87       1.0  0.17506999999999995  0.14383  0.66999  1.0000
  Zn  Zn21      1.0  0.009149999999999965  0.54653  0.68372  1.0000
  Zn  Zn22      1.0  0.09769999999999994  0.50775  0.6635299999999997  1.0000
  P   P14       1.0  0.012739999999999975  0.46155  0.73456  1.0000
  P   P15       1.0  0.0021200000000000125  0.48039  0.6052499999999997  1.0000
  C   C23       1.0  0.12553999999999996  0.62516  0.67618  1.0000
  O   O88       1.0  0.02573000000000007  0.5420600000000001  0.6234699999999997  1.0000
  O   O89       1.0  0.07756999999999994  0.49868  0.72328  1.0000
  O   O90       1.0  0.037010000000000015  0.45312  0.62507  1.0000
  O   O91       1.0  0.18648000000000003  0.55363  0.5895899999999997  1.0000
  O   O92       1.0  0.1263  0.58837  0.64894  1.0000
  O   O93       1.0  0.08082999999999999  0.61253  0.6990699999999997  1.0000
  C   C24       1.0  0.20197  0.53314  0.62222  1.0000
  O   O94       1.0  0.16604  0.5046900000000001  0.65302  1.0000
  Zn  Zn23      1.0  0.47039  0.07043  0.6859099999999998  1.0000
  Zn  Zn24      1.0  0.40001999999999993  0.9418200000000002  0.68155  1.0000
  Zn  Zn25      1.0  0.5708499999999999  0.04716  0.68583  1.0000
  P   P16       1.0  0.4863099999999999  0.004980000000000002  0.61643  1.0000
  P   P17       1.0  0.4822199999999999  0.9959500000000001  0.74954  1.0000
  C   C25       1.0  0.6499099999999998  0.013320000000000002  0.6821  1.0000
  C   C26       1.0  0.5834799999999998  0.1581  0.69005  1.0000
  C   C27       1.0  0.35092999999999996  0.01419  0.6837  1.0000
  O   O95       1.0  0.45584  0.03981000000000001  0.6255  1.0000
  O   O96       1.0  0.4941  0.05826  0.7445099999999998  1.0000
  O   O97       1.0  0.46156  0.9509600000000001  0.6468099999999999  1.0000
  O   O98       1.0  0.5158599999999999  0.9818100000000001  0.7148799999999997  1.0000
  O   O99       1.0  0.55194  0.045  0.62442  1.0000
  O   O100      1.0  0.41686  0.95637  0.7432  1.0000
  O   O101      1.0  0.6444999999999999  0.05757  0.68692  1.0000
  O   O102      1.0  0.32475  0.8662200000000002  0.6099599999999997  1.0000
  O   O103      1.0  0.60545  0.9641  0.67533  1.0000
  O   O104      1.0  0.58833  0.12024000000000001  0.71283  1.0000
  O   O105      1.0  0.3578099999999999  0.9784  0.6597899999999998  1.0000
  O   O106      1.0  0.53443  0.14604000000000003  0.67343  1.0000
  O   O107      1.0  0.39518  0.05902  0.7000599999999998  1.0000
  C   C28       1.0  0.30904  0.8434300000000002  0.6487199999999997  1.0000
  O   O108      1.0  0.33923  0.8685100000000001  0.68352  1.0000
  Zn  Zn26      1.0  0.54913  0.6281900000000001  0.65124  1.0000
  Zn  Zn27      1.0  0.45740999999999987  0.50116  0.63041  1.0000
  Zn  Zn28      1.0  0.6292599999999998  0.57645  0.65777  1.0000
  P   P18       1.0  0.55999  0.55931  0.58007  1.0000
  P   P19       1.0  0.52761  0.5346000000000001  0.7104999999999998  1.0000
  C   C29       1.0  0.66695  0.6964600000000001  0.66662  1.0000
  C   C30       1.0  0.4334699999999999  0.59185  0.6322499999999998  1.0000
  O   O109      1.0  0.54306  0.6056500000000001  0.5891199999999998  1.0000
  O   O110      1.0  0.5550499999999999  0.6008400000000002  0.71004  1.0000
  O   O111      1.0  0.52039  0.5019400000000002  0.6045899999999997  1.0000
  O   O112      1.0  0.5616499999999999  0.51468  0.68073  1.0000
  O   O113      1.0  0.62322  0.5834000000000001  0.59553  1.0000
  O   O114      1.0  0.4644399999999999  0.50812  0.6935399999999998  1.0000
  O   O115      1.0  0.42712  0.38344  0.61155  1.0000
  O   O116      1.0  0.6527599999999998  0.4912600000000001  0.69964  1.0000
  O   O117      1.0  0.6583599999999997  0.6510900000000001  0.68742  1.0000
  O   O118      1.0  0.4390399999999999  0.55715  0.60611  1.0000
  O   O119      1.0  0.6239299999999999  0.69854  0.64932  1.0000
  O   O120      1.0  0.4763799999999999  0.6278  0.6568799999999998  1.0000
  C   C31       1.0  0.38187  0.38638  0.61805  1.0000
  O   O121      1.0  0.38565  0.43552000000000013  0.6218699999999998  1.0000
  C   C32       1.0  0.6019299999999997  0.27395  0.70923  1.0000
  C   C33       1.0  0.5924399999999997  0.31033000000000005  0.6759599999999998  1.0000
  H   H1        1.0  0.5616999999999999  0.32076  0.6896099999999997  1.0000
  H   H2        1.0  0.5617699999999999  0.23537000000000002  0.7155599999999998  1.0000
  C   C34       1.0  0.57015  0.28085  0.63175  1.0000
  H   H3        1.0  0.53126  0.24011000000000005  0.63611  1.0000
  H   H4        1.0  0.61476  0.29689  0.7410899999999998  1.0000
  C   C35       1.0  0.16975  0.6832800000000002  0.6738199999999998  1.0000
  C   C36       1.0  0.22174000000000008  0.7006100000000002  0.6942299999999999  1.0000
  C   C37       1.0  0.26813  0.7498400000000002  0.68043  1.0000
  C   C38       1.0  0.26148  0.7871400000000002  0.65319  1.0000
  C   C39       1.0  0.20729  0.7740400000000002  0.63909  1.0000
  C   C40       1.0  0.16246000000000005  0.7202600000000002  0.6467999999999998  1.0000
  H   H5        1.0  0.3089499999999999  0.76185  0.69424  1.0000
  H   H6        1.0  0.12166000000000003  0.70772  0.63268  1.0000
  C   C41       1.0  0.22616000000000003  0.67215  0.7353  1.0000
  C   C42       1.0  0.19594  0.81788  0.61917  1.0000
  C   C43       1.0  0.24286000000000005  0.62787  0.72605  1.0000
  H   H7        1.0  0.21769999999999998  0.60058  0.6982999999999999  1.0000
  H   H8        1.0  0.23344  0.601  0.7554599999999998  1.0000
  C   C44       1.0  0.1949  0.81507  0.56898  1.0000
  H   H9        1.0  0.16044000000000005  0.77363  0.55761  1.0000
  H   H10       1.0  0.23475999999999997  0.81986  0.55712  1.0000
  H   H11       1.0  0.25623  0.70387  0.7590799999999999  1.0000
  H   H12       1.0  0.22698000000000004  0.86072  0.63075  1.0000
  C   C45       1.0  0.30487  0.65354  0.7163699999999997  1.0000
  C   C46       1.0  0.18621  0.8610300000000002  0.5489999999999998  1.0000
  H   H13       1.0  0.33076  0.68288  0.74303  1.0000
  H   H14       1.0  0.31545999999999996  0.61975  0.7140599999999998  1.0000
  H   H15       1.0  0.31496000000000013  0.6761500000000003  0.6847499999999997  1.0000
  H   H16       1.0  0.18543999999999997  0.65174  0.752  1.0000
  H   H17       1.0  0.14600000000000005  0.8565200000000001  0.55973  1.0000
  H   H18       1.0  0.18529000000000012  0.8577800000000002  0.5127  1.0000
  H   H19       1.0  0.22077999999999995  0.90306  0.55903  1.0000
  H   H20       1.0  0.15485000000000007  0.8106700000000002  0.63052  1.0000
  C   C47       1.0  0.26202  0.54908  0.62751  1.0000
  C   C48       1.0  0.27876  0.51389  0.6490799999999998  1.0000
  C   C49       1.0  0.33605  0.5335  0.6563  1.0000
  C   C50       1.0  0.3769799999999999  0.5840800000000002  0.63823  1.0000
  C   C51       1.0  0.36045999999999995  0.6186400000000001  0.6161  1.0000
  C   C52       1.0  0.30332  0.60124  0.61151  1.0000
  H   H21       1.0  0.3487999999999999  0.50636  0.67211  1.0000
  H   H22       1.0  0.29105  0.62838  0.59509  1.0000
  C   C53       1.0  0.23759999999999998  0.45269000000000004  0.6586899999999998  1.0000
  C   C54       1.0  0.40308  0.67255  0.59474  1.0000
  C   C55       1.0  0.2328  0.4394900000000001  0.708  1.0000
  H   H23       1.0  0.27473  0.4539300000000001  0.7228499999999998  1.0000
  H   H24       1.0  0.20832  0.39328000000000013  0.7119899999999999  1.0000
  C   C56       1.0  0.4134999999999999  0.6618800000000001  0.54732  1.0000
  H   H25       1.0  0.3738599999999999  0.64382  0.52795  1.0000
  H   H26       1.0  0.4287  0.63144  0.54668  1.0000
  H   H27       1.0  0.19573000000000002  0.43722000000000005  0.6436999999999998  1.0000
  H   H28       1.0  0.44284999999999997  0.6924000000000001  0.61395  1.0000
  C   C57       1.0  0.20397999999999994  0.46544000000000013  0.7332899999999998  1.0000
  C   C58       1.0  0.45671  0.71584  0.5255  1.0000
  H   H29       1.0  0.15993  0.4471  0.7220499999999997  1.0000
  H   H30       1.0  0.20417000000000002  0.45645  0.76874  1.0000
  H   H31       1.0  0.22627999999999998  0.51153  0.72912  1.0000
  H   H32       1.0  0.25318  0.42698  0.64283  1.0000
  H   H33       1.0  0.4413499999999999  0.74607  0.52349  1.0000
  H   H34       1.0  0.46421999999999997  0.7063800000000001  0.49172999999999994  1.0000
  H   H35       1.0  0.49680999999999975  0.73509  0.54425  1.0000
  H   H36       1.0  0.38783999999999996  0.7030300000000002  0.5947999999999998  1.0000
  C   C59       1.0  0.3298599999999999  0.33564  0.63007  1.0000
  C   C60       1.0  0.27771  0.32374  0.6118  1.0000
  C   C61       1.0  0.22859999999999994  0.27905  0.62849  1.0000
  C   C62       1.0  0.23075999999999997  0.24374  0.66058  1.0000
  C   C63       1.0  0.28289  0.25569000000000003  0.6788499999999997  1.0000
  C   C64       1.0  0.33195  0.30106  0.66288  1.0000
  H   H37       1.0  0.18855999999999995  0.27119  0.61595  1.0000
  H   H38       1.0  0.37188999999999994  0.31066  0.6772  1.0000
  C   C65       1.0  0.27364  0.3577900000000001  0.5741199999999997  1.0000
  C   C66       1.0  0.28695  0.22226000000000004  0.7168099999999997  1.0000
  C   C67       1.0  0.29737999999999987  0.3504  0.53097  1.0000
  H   H39       1.0  0.34242000000000006  0.3644800000000001  0.53473  1.0000
  H   H40       1.0  0.2934299999999999  0.3775700000000001  0.506  1.0000
  C   C68       1.0  0.30384999999999995  0.18001  0.7010299999999998  1.0000
  H   H41       1.0  0.34526  0.20262  0.6852399999999997  1.0000
  H   H42       1.0  0.27306  0.15086  0.6764199999999998  1.0000
  H   H43       1.0  0.22948999999999994  0.34648  0.56801  1.0000
  H   H44       1.0  0.24737999999999993  0.20041  0.73516  1.0000
  C   C69       1.0  0.26648  0.29021  0.5137199999999998  1.0000
  C   C70       1.0  0.3073599999999999  0.14583  0.7390399999999999  1.0000
  H   H45       1.0  0.22139  0.27562  0.50926  1.0000
  H   H46       1.0  0.28351999999999994  0.28828  0.4814599999999999  1.0000
  H   H47       1.0  0.27217  0.26206  0.53656  1.0000
  H   H48       1.0  0.29550999999999994  0.40287000000000006  0.5831  1.0000
  H   H49       1.0  0.3366599999999999  0.17391  0.7649199999999998  1.0000
  H   H50       1.0  0.3229199999999999  0.11827000000000003  0.7269799999999998  1.0000
  H   H51       1.0  0.26549  0.11930000000000002  0.7533  1.0000
  H   H52       1.0  0.3189  0.25166  0.74073  1.0000
  C   C71       1.0  0.29698999999999987  0.01287  0.68011  1.0000
  C   C72       1.0  0.25872  0.99441  0.7150499999999997  1.0000
  C   C73       1.0  0.20432999999999998  0.98523  0.70765  1.0000
  C   C74       1.0  0.18745000000000012  0.9940100000000002  0.6661499999999998  1.0000
  C   C75       1.0  0.22665999999999994  0.013710000000000002  0.63151  1.0000
  C   C76       1.0  0.2803  0.02171  0.6389399999999997  1.0000
  H   H53       1.0  0.17557000000000003  0.97256  0.73466  1.0000
  H   H54       1.0  0.3095199999999999  0.035230000000000004  0.61217  1.0000
  C   C77       1.0  0.2753799999999999  0.98578  0.76077  1.0000
  C   C78       1.0  0.21414999999999995  0.029680000000000005  0.5869999999999997  1.0000
  C   C79       1.0  0.24430000000000004  0.9238500000000002  0.77429  1.0000
  H   H55       1.0  0.19846999999999992  0.90607  0.77103  1.0000
  H   H56       1.0  0.25382  0.9212200000000003  0.8094299999999999  1.0000
  C   C80       1.0  0.24288999999999994  0.09395  0.58311  1.0000
  H   H57       1.0  0.2846999999999999  0.11457000000000003  0.59943  1.0000
  H   H58       1.0  0.21780999999999995  0.10924  0.60008  1.0000
  H   H59       1.0  0.32101  0.00292  0.76467  1.0000
  H   H60       1.0  0.16890999999999998  0.00983  0.57941  1.0000
  C   C81       1.0  0.26148  0.88831  0.74755  1.0000
  C   C82       1.0  0.2511599999999999  0.11291000000000002  0.53536  1.0000
  H   H61       1.0  0.3066799999999999  0.90396  0.7523899999999998  1.0000
  H   H62       1.0  0.23811999999999994  0.84416  0.7585499999999997  1.0000
  H   H63       1.0  0.25206000000000006  0.8893100000000003  0.71219  1.0000
  H   H64       1.0  0.26488  0.00974  0.78435  1.0000
  H   H65       1.0  0.2868399999999999  0.11054  0.52166  1.0000
  H   H66       1.0  0.26064  0.15705  0.53365  1.0000
  H   H67       1.0  0.21337  0.08639  0.51498  1.0000
  H   H68       1.0  0.23074  0.013130000000000001  0.56161  1.0000
  C   C83       1.0  0.52032  0.4690200000000001  0.8515699999999998  1.0000
  C   C84       1.0  0.47329999999999994  0.44316000000000005  0.82336  1.0000
  C   C85       1.0  0.4756  0.4668  0.78212  1.0000
  C   C86       1.0  0.52651  0.5096  0.76594  1.0000
  C   C87       1.0  0.5760899999999998  0.52791  0.7917  1.0000
  C   C88       1.0  0.57223  0.50582  0.8338599999999998  1.0000
  H   H69       1.0  0.4382  0.44981  0.7618199999999998  1.0000
  H   H70       1.0  0.6094699999999998  0.52078  0.8541999999999997  1.0000
  C   C89       1.0  0.42352000000000006  0.38664000000000004  0.83424  1.0000
  C   C90       1.0  0.6330699999999998  0.5716000000000001  0.7757999999999998  1.0000
  C   C91       1.0  0.41571  0.34004000000000006  0.8022099999999998  1.0000
  H   H71       1.0  0.4103799999999999  0.35069  0.7680199999999998  1.0000
  H   H72       1.0  0.37681  0.30099  0.81074  1.0000
  C   C92       1.0  0.64923  0.63123  0.79058  1.0000
  H   H73       1.0  0.61459  0.63964  0.7837899999999998  1.0000
  H   H74       1.0  0.6855399999999998  0.6610900000000001  0.77119  1.0000
  H   H75       1.0  0.4269800000000001  0.37291000000000013  0.86767  1.0000
  H   H76       1.0  0.63556  0.57036  0.7398399999999998  1.0000
  C   C93       1.0  0.4641499999999999  0.3283400000000001  0.8045299999999997  1.0000
  H   H77       1.0  0.47062  0.31841  0.83865  1.0000
  H   H78       1.0  0.45454  0.29191  0.7831399999999997  1.0000
  H   H79       1.0  0.50316  0.36507000000000006  0.79298  1.0000
  H   H80       1.0  0.38534  0.39032000000000006  0.8331899999999998  1.0000
  H   H81       1.0  0.6651000000000001  0.5615100000000001  0.78797  1.0000
  C   C94       1.0  0.50501  0.74003  0.01373  1.0000
  C   C95       1.0  0.47068000000000004  0.6957600000000003  0.04217  1.0000
  C   C96       1.0  0.46599999999999997  0.64303  0.03639999999999999  1.0000
  C   C97       1.0  0.49285000000000007  0.6332800000000001  0.00184  1.0000
  C   C98       1.0  0.5252099999999997  0.67679  0.9724  1.0000
  C   C99       1.0  0.53194  0.7301400000000001  0.97925  1.0000
  H   H82       1.0  0.44071999999999983  0.6092600000000001  0.05858999999999999  1.0000
  H   H83       1.0  0.55671  0.7636500000000003  0.9567099999999997  1.0000
  C   C100      1.0  0.43498  0.70233  0.07634999999999999  1.0000
  C   C101      1.0  0.54799  0.66541  0.93117  1.0000
  C   C102      1.0  0.4564099999999999  0.70401  0.12342999999999997  1.0000
  H   H84       1.0  0.4703199999999999  0.67277  0.12759  1.0000
  H   H85       1.0  0.4213999999999999  0.69238  0.14621999999999993  1.0000
  C   C103      1.0  0.5029899999999999  0.6416500000000002  0.8947599999999998  1.0000
  H   H86       1.0  0.48991000000000007  0.6727800000000003  0.88669  1.0000
  H   H87       1.0  0.46580999999999995  0.60277  0.90611  1.0000
  H   H88       1.0  0.4294999999999999  0.73905  0.07045999999999997  1.0000
  H   H89       1.0  0.5637599999999998  0.6362  0.9379399999999998  1.0000
  C   C104      1.0  0.5039  0.7619200000000003  0.13675  1.0000
  C   C105      1.0  0.5240599999999999  0.62798  0.8531999999999997  1.0000
  H   H90       1.0  0.54024  0.77465  0.11542  1.0000
  H   H91       1.0  0.3924099999999999  0.6653100000000001  0.07338  1.0000
  H   H92       1.0  0.5625  0.66548  0.84177  1.0000
  H   H93       1.0  0.49165999999999993  0.6142900000000001  0.82689  1.0000
  H   H94       1.0  0.53277  0.59341  0.85937  1.0000
  H   H95       1.0  0.58448  0.70487  0.9196699999999998  1.0000
  C   C106      1.0  0.46103999999999995  0.12178000000000001  0.9995799999999998  1.0000
  C   C107      1.0  0.4771  0.16503  0.03134  1.0000
  C   C108      1.0  0.4944999999999999  0.21965  0.01745  1.0000
  C   C109      1.0  0.4935999999999999  0.23147000000000006  0.9729699999999998  1.0000
  C   C110      1.0  0.4733699999999999  0.18765000000000004  0.9415499999999998  1.0000
  C   C111      1.0  0.4578899999999998  0.13327  0.95517  1.0000
  H   H96       1.0  0.5067599999999998  0.25281  0.04161  1.0000
  H   H97       1.0  0.44538  0.10023000000000001  0.93086  1.0000
  C   C112      1.0  0.47298999999999997  0.15338000000000002  0.08018  1.0000
  C   C113      1.0  0.4719699999999999  0.19882  0.8929999999999998  1.0000
  C   C114      1.0  0.5310499999999999  0.17545  0.10127  1.0000
  H   H98       1.0  0.55622  0.22161  0.09727999999999998  1.0000
  H   H99       1.0  0.5532199999999999  0.15642  0.08493999999999997  1.0000
  C   C115      1.0  0.52617  0.20989000000000002  0.87137  1.0000
  H   H100      1.0  0.53199  0.17317  0.8763  1.0000
  H   H101      1.0  0.56225  0.24724000000000002  0.8867499999999998  1.0000
  H   H102      1.0  0.45252  0.17481  0.09577  1.0000
  H   H103      1.0  0.46481999999999996  0.23448000000000005  0.88706  1.0000
  C   C116      1.0  0.5272899999999999  0.16222  0.1501  1.0000
  H   H104      1.0  0.5035799999999998  0.11621  0.15519  1.0000
  H   H105      1.0  0.5699399999999999  0.17898  0.16423  1.0000
  H   H106      1.0  0.50649  0.18198000000000006  0.16755999999999993  1.0000
  H   H107      1.0  0.4458899999999999  0.10818000000000003  0.08727  1.0000
  H   H108      1.0  0.43611  0.16172  0.87709  1.0000
  C   C117      1.0  0.5382299999999999  0.97685  0.8877499999999998  1.0000
  C   C118      1.0  0.5694999999999999  0.0267  0.86452  1.0000
  C   C119      1.0  0.5489699999999998  0.03292  0.824  1.0000
  C   C120      1.0  0.50559  0.9861600000000003  0.8025299999999997  1.0000
  C   C121      1.0  0.48593999999999987  0.932  0.82092  1.0000
  C   C122      1.0  0.50259  0.9282300000000002  0.8639399999999998  1.0000
  H   H109      1.0  0.56956  0.07312  0.8077599999999998  1.0000
  H   H110      1.0  0.48381999999999986  0.88799  0.8801299999999997  1.0000
  C   C123      1.0  0.6288499999999999  0.06772000000000002  0.8781199999999998  1.0000
  C   C124      1.0  0.45258999999999994  0.8783600000000001  0.7944199999999998  1.0000
  C   C125      1.0  0.6709499999999998  0.05407000000000001  0.8573099999999998  1.0000
  H   H111      1.0  0.6576499999999997  0.00921  0.8623899999999999  1.0000
  C   C126      1.0  0.4911700000000001  0.8629500000000001  0.7699399999999997  1.0000
  H   H112      1.0  0.51662  0.8546200000000002  0.79403  1.0000
  H   H113      1.0  0.52011  0.8981300000000002  0.7489099999999997  1.0000
  H   H114      1.0  0.63891  0.11053000000000003  0.86882  1.0000
  H   H115      1.0  0.42253  0.8802300000000002  0.7713999999999998  1.0000
  C   C127      1.0  0.6790499999999997  0.06758000000000002  0.80836  1.0000
  C   C128      1.0  0.45778999999999986  0.8109  0.74119  1.0000
  H   H116      1.0  0.6429  0.0355  0.78896  1.0000
  H   H117      1.0  0.63402  0.06769  0.9141799999999998  1.0000
  H   H118      1.0  0.42895  0.7746900000000001  0.7614599999999998  1.0000
  H   H119      1.0  0.4867499999999999  0.8003  0.7245199999999998  1.0000
  H   H120      1.0  0.43330999999999986  0.81869  0.71582  1.0000
  H   H121      1.0  0.4263799999999999  0.8435300000000001  0.81695  1.0000
  C   C129      1.0  0.6911  0.24616999999999997  0.9032399999999998  1.0000
  H   H122      1.0  0.66337  0.25688  0.9218199999999998  1.0000
  C   C130      1.0  0.6662599999999997  0.22593000000000002  0.85737  1.0000
  H   H123      1.0  0.6935699999999998  0.21557000000000004  0.8378999999999998  1.0000
  H   H124      1.0  0.66259  0.25952000000000003  0.84027  1.0000
  H   H125      1.0  0.62413  0.18838  0.85931  1.0000
  C   C131      1.0  0.32043  0.7775700000000001  0.9856599999999998  1.0000
  C   C132      1.0  0.30424000000000007  0.73638  0.95191  1.0000
  C   C133      1.0  0.2667700000000001  0.6798200000000002  0.96165  1.0000
  C   C134      1.0  0.24329  0.66428  0.00323  1.0000
  C   C135      1.0  0.26419  0.7042500000000003  0.03771  1.0000
  C   C136      1.0  0.30104999999999993  0.7607300000000001  0.02828  1.0000
  H   H126      1.0  0.25393999999999994  0.6481800000000001  0.9361999999999998  1.0000
  H   H127      1.0  0.31664999999999993  0.79137  0.05468999999999999  1.0000
  C   C137      1.0  0.32540000000000013  0.7515200000000002  0.9052299999999998  1.0000
  C   C138      1.0  0.2511399999999999  0.6867700000000001  0.08522  1.0000
  C   C139      1.0  0.29375000000000007  0.7739500000000001  0.8776599999999998  1.0000
  H   H128      1.0  0.2498399999999999  0.7549  0.88835  1.0000
  H   H129      1.0  0.29267000000000004  0.7610900000000003  0.8429499999999998  1.0000
  C   C140      1.0  0.30064  0.68645  0.10809  1.0000
  H   H130      1.0  0.33963999999999994  0.7270300000000001  0.10326999999999997  1.0000
  H   H131      1.0  0.30583  0.65243  0.09357999999999997  1.0000
  H   H132      1.0  0.37106999999999996  0.7799000000000001  0.9042199999999998  1.0000
  H   H133      1.0  0.21385999999999994  0.64463  0.08864999999999998  1.0000
  C   C141      1.0  0.32086  0.8378000000000002  0.8788199999999998  1.0000
  C   C142      1.0  0.29152000000000006  0.6764500000000002  0.1572  1.0000
  H   H134      1.0  0.36699000000000004  0.8584500000000002  0.8771599999999998  1.0000
  H   H135      1.0  0.3061  0.8518700000000002  0.8501499999999997  1.0000
  H   H136      1.0  0.30882  0.85154  0.90886  1.0000
  H   H137      1.0  0.31959999999999983  0.71312  0.8883799999999997  1.0000
  H   H138      1.0  0.28927  0.71137  0.17321999999999996  1.0000
  H   H139      1.0  0.32663999999999993  0.67337  0.17211999999999994  1.0000
  H   H140      1.0  0.25233  0.6369200000000002  0.16324999999999995  1.0000
  H   H141      1.0  0.2415299999999999  0.7164800000000001  0.10218999999999998  1.0000
  C   C143      1.0  0.010770000000000033  0.43744000000000005  0.78975  1.0000
  C   C144      1.0  0.07369000000000002  0.48305000000000003  0.85072  1.0000
  C   C145      1.0  0.06199000000000002  0.4545300000000001  0.81061  1.0000
  H   H142      1.0  0.09607000000000002  0.45700000000000013  0.7918099999999998  1.0000
  C   C146      1.0  0.13189999999999988  0.53208  0.85865  1.0000
  C   C147      1.0  0.1366799999999999  0.58476  0.8374299999999998  1.0000
  H   H143      1.0  0.10155  0.59073  0.84757  1.0000
  H   H144      1.0  0.1342999999999999  0.57953  0.8012299999999998  1.0000
  H   H145      1.0  0.16306  0.52303  0.8437999999999998  1.0000
  C   C148      1.0  0.19110000000000005  0.6371400000000002  0.8502599999999998  1.0000
  H   H146      1.0  0.19574  0.67299  0.83062  1.0000
  H   H147      1.0  0.22739999999999994  0.63137  0.84421  1.0000
  H   H148      1.0  0.19012000000000004  0.6470500000000001  0.8853399999999998  1.0000
  H   H149      1.0  0.14315  0.53954  0.8939699999999998  1.0000
  H   H150      1.0  0.63982  0.7057800000000001  0.00889  1.0000
  H   H151      1.0  0.57991  0.6927600000000003  0.07563  1.0000
  C   C149      1.0  0.32027999999999995  0.29233000000000003  0.9980299999999998  1.0000
  C   C150      1.0  0.26248  0.27403000000000005  0.99587  1.0000
  C   C151      1.0  0.22392  0.21983  0.010049999999999996  1.0000
  C   C152      1.0  0.24177  0.18386000000000005  0.026709999999999994  1.0000
  C   C153      1.0  0.29953999999999986  0.20253000000000004  0.02973  1.0000
  C   C154      1.0  0.3381700000000001  0.25637000000000004  0.014889999999999997  1.0000
  H   H152      1.0  0.17971  0.20535000000000003  0.0075699999999999995  1.0000
  H   H153      1.0  0.3823699999999999  0.27027  0.0164  1.0000
  C   C155      1.0  0.24074  0.31076  0.9772399999999998  1.0000
  C   C156      1.0  0.32054  0.16499  0.04758  1.0000
  C   C157      1.0  0.21475  0.33009  0.012529999999999996  1.0000
  H   H154      1.0  0.18236999999999995  0.29351  0.03060999999999999  1.0000
  H   H155      1.0  0.19368  0.35061  0.99606  1.0000
  C   C158      1.0  0.32651  0.13038  0.01069  1.0000
  H   H156      1.0  0.36696999999999985  0.15631  0.99424  1.0000
  H   H157      1.0  0.2930399999999999  0.11787999999999998  0.98545  1.0000
  H   H158      1.0  0.2727599999999999  0.3477  0.95941  1.0000
  H   H159      1.0  0.2925599999999999  0.13746  0.07359999999999998  1.0000
  C   C159      1.0  0.25795999999999997  0.3718  0.045139999999999986  1.0000
  C   C160      1.0  0.3237399999999999  0.07717000000000002  0.028169999999999994  1.0000
  H   H160      1.0  0.2889  0.41011  0.027939999999999993  1.0000
  H   H161      1.0  0.23674000000000003  0.3840900000000001  0.06971  1.0000
  H   H162      1.0  0.27976999999999996  0.3528  0.06271  1.0000
  H   H163      1.0  0.20795  0.28582  0.9522499999999998  1.0000
  H   H164      1.0  0.35488000000000003  0.08735  0.05498  1.0000
  H   H165      1.0  0.33240999999999987  0.05557  0.00132  1.0000
  H   H166      1.0  0.28148  0.04828  0.040849999999999984  1.0000
  H   H167      1.0  0.3619399999999999  0.19087  0.06396  1.0000
  C   C161      1.0  0.09014999999999995  0.84393  0.9984199999999998  1.0000
  C   C162      1.0  0.04696999999999996  0.79375  0.01616  1.0000
  C   C163      1.0  0.12291  0.7904400000000001  0.95723  1.0000
  C   C164      1.0  0.12838999999999998  0.84196  0.96994  1.0000
  H   H168      1.0  0.16052000000000002  0.8804  0.9555099999999997  1.0000
  C   C165      1.0  0.15936000000000006  0.7895600000000003  0.9209999999999998  1.0000
  C   C166      1.0  0.13202  0.78605  0.8760399999999998  1.0000
  H   H169      1.0  0.12880000000000008  0.8242800000000002  0.87094  1.0000
  H   H170      1.0  0.16798  0.75458  0.92518  1.0000
  C   C167      1.0  0.16553  0.78116  0.8388  1.0000
  H   H171      1.0  0.07313999999999998  0.87888  0.11178999999999997  1.0000
  H   H172      1.0  0.20836999999999994  0.81779  0.83912  1.0000
  H   H173      1.0  0.14513999999999988  0.77995  0.8069  1.0000
  H   H174      1.0  0.16746  0.7420900000000001  0.8420199999999999  1.0000
  H   H175      1.0  0.20079  0.82852  0.9226599999999998  1.0000
  C   C168      1.0  0.03709000000000002  0.21327000000000002  0.04025999999999998  1.0000
  C   C169      1.0  0.05913000000000002  0.2396900000000001  0.99977  1.0000
  C   C170      1.0  0.06858  0.29391  0.99263  1.0000
  C   C171      1.0  0.055830000000000025  0.32176000000000005  0.024759999999999997  1.0000
  C   C172      1.0  0.0337  0.29533  0.06522  1.0000
  C   C173      1.0  0.025589999999999998  0.2416  0.07283  1.0000
  H   H176      1.0  0.08488  0.31411  0.9615  1.0000
  C   C174      1.0  0.07322000000000001  0.21076000000000003  0.96396  1.0000
  C   C175      1.0  0.02228  0.1709  0.93557  1.0000
  H   H177      1.0  0.9876299999999998  0.14089  0.9563399999999997  1.0000
  H   H178      1.0  0.03418999999999999  0.14605  0.9141699999999998  1.0000
  H   H179      1.0  0.10602  0.24229000000000006  0.9425099999999997  1.0000
  C   C176      1.0  0.0014900000000000271  0.20201000000000005  0.90644  1.0000
  H   H180      1.0  0.9846100000000001  0.22343000000000005  0.9266799999999997  1.0000
  H   H181      1.0  0.03580999999999998  0.23333  0.8859899999999998  1.0000
  H   H182      1.0  0.96758  0.17159  0.8843699999999998  1.0000
  H   H183      1.0  0.09192  0.18709000000000006  0.9785499999999998  1.0000
  C   C177      1.0  0.03324  0.03262  0.80914  1.0000
  C   C178      1.0  0.050259999999999985  0.03178000000000001  0.90037  1.0000
  C   C179      1.0  0.09167999999999997  0.07511  0.87418  1.0000
  C   C180      1.0  0.08107999999999999  0.07613000000000002  0.82917  1.0000
  H   H184      1.0  0.11251999999999997  0.10881  0.80912  1.0000
  C   C181      1.0  0.15019  0.11566000000000003  0.8914  1.0000
  C   C182      1.0  0.18974999999999997  0.09255  0.8843599999999998  1.0000
  H   H185      1.0  0.18858  0.08077  0.8493299999999998  1.0000
  H   H186      1.0  0.17643  0.05451  0.90448  1.0000
  H   H187      1.0  0.15197  0.12766000000000002  0.92601  1.0000
  C   C183      1.0  0.24973999999999996  0.13591000000000003  0.8970599999999997  1.0000
  H   H188      1.0  0.2658099999999999  0.17226  0.8745999999999998  1.0000
  H   H189      1.0  0.2766999999999999  0.11684000000000001  0.89466  1.0000
  H   H190      1.0  0.2519299999999999  0.15088000000000001  0.93121  1.0000
  H   H191      1.0  0.16644000000000003  0.15579000000000004  0.87336  1.0000
  C   C184      1.0  0.53684  0.50632  0.4339599999999999  1.0000
  C   C185      1.0  0.4894499999999999  0.49207  0.4597499999999999  1.0000
  C   C186      1.0  0.49763000000000013  0.5097100000000002  0.50415  1.0000
  C   C187      1.0  0.55171  0.5438800000000001  0.52175  1.0000
  C   C188      1.0  0.5981899999999998  0.5587600000000001  0.49486999999999987  1.0000
  C   C189      1.0  0.58962  0.53195  0.4543899999999999  1.0000
  H   H192      1.0  0.46209999999999996  0.49506  0.52542  1.0000
  H   H193      1.0  0.62549  0.5382300000000001  0.4361  1.0000
  C   C190      1.0  0.43151  0.44801  0.44396999999999986  1.0000
  C   C191      1.0  0.65514  0.60883  0.5051  1.0000
  C   C192      1.0  0.3870999999999999  0.46559  0.4489299999999999  1.0000
  H   H194      1.0  0.3866199999999999  0.47966  0.48292999999999997  1.0000
  H   H195      1.0  0.34569  0.42809  0.44244  1.0000
  H   H196      1.0  0.67717  0.5550600000000001  0.54351  1.0000
  H   H197      1.0  0.43091999999999997  0.43486  0.4095199999999999  1.0000
  H   H198      1.0  0.6524999999999999  0.63799  0.5287  1.0000
  C   C193      1.0  0.39412999999999987  0.51109  0.41688  1.0000
  H   H199      1.0  0.3900299999999999  0.49586000000000013  0.3825999999999999  1.0000
  H   H200      1.0  0.3610299999999999  0.52187  0.4223599999999999  1.0000
  H   H201      1.0  0.43519999999999986  0.54949  0.4219599999999999  1.0000
  H   H202      1.0  0.41856  0.4098100000000001  0.4639  1.0000
  H   H203      1.0  0.67164  0.63385  0.4747699999999999  1.0000
  C   C194      1.0  0.5331599999999997  0.46615000000000006  0.18791  1.0000
  C   C195      1.0  0.5347599999999999  0.50677  0.15895999999999993  1.0000
  C   C196      1.0  0.55231  0.5080200000000001  0.11609999999999997  1.0000
  C   C197      1.0  0.54601  0.45913  0.09695  1.0000
  C   C198      1.0  0.5420399999999999  0.41601  0.12483  1.0000
  C   C199      1.0  0.5357199999999999  0.42021  0.17044  1.0000
  H   H204      1.0  0.56162  0.54363  0.09558999999999997  1.0000
  H   H205      1.0  0.53574  0.38931  0.19239  1.0000
  C   C200      1.0  0.51359  0.5458000000000001  0.17239999999999994  1.0000
  C   C201      1.0  0.5560699999999997  0.37257  0.10846999999999997  1.0000
  C   C202      1.0  0.4696799999999999  0.54481  0.14036  1.0000
  H   H206      1.0  0.4877999999999999  0.56021  0.10758999999999998  1.0000
  H   H207      1.0  0.45666  0.57419  0.15304  1.0000
  C   C203      1.0  0.61751  0.3997  0.09542999999999997  1.0000
  H   H208      1.0  0.64479  0.42485  0.12337999999999998  1.0000
  H   H209      1.0  0.6255699999999998  0.4281400000000001  0.06723  1.0000
  H   H210      1.0  0.4940299999999999  0.53473  0.20505  1.0000
  H   H211      1.0  0.5286399999999999  0.34806  0.08071  1.0000
  C   C204      1.0  0.4180799999999999  0.48657  0.13573  1.0000
  C   C205      1.0  0.6329399999999998  0.35568000000000005  0.08247999999999997  1.0000
  H   H212      1.0  0.40020999999999995  0.47014000000000006  0.16839  1.0000
  H   H213      1.0  0.38613999999999987  0.48904  0.11497999999999997  1.0000
  H   H214      1.0  0.42866  0.45695  0.11982  1.0000
  H   H215      1.0  0.5495499999999999  0.58922  0.17462  1.0000
  H   H216      1.0  0.62581  0.32677  0.11011999999999998  1.0000
  H   H217      1.0  0.60769  0.33117  0.05357999999999999  1.0000
  H   H218      1.0  0.54804  0.34137  0.13460999999999995  1.0000
  C   C206      1.0  0.47189000000000003  0.9571900000000001  0.4696899999999999  1.0000
  C   C207      1.0  0.4417399999999999  0.98195  0.48622  1.0000
  C   C208      1.0  0.44626000000000005  0.9958100000000001  0.53104  1.0000
  C   C209      1.0  0.4760399999999999  0.98068  0.5600799999999998  1.0000
  C   C210      1.0  0.49925  0.9483700000000003  0.5443199999999999  1.0000
  C   C211      1.0  0.49693  0.9371800000000002  0.49925999999999987  1.0000
  H   H219      1.0  0.4250599999999999  0.01691  0.54343  1.0000
  H   H220      1.0  0.5164099999999999  0.9142600000000001  0.4871299999999999  1.0000
  C   C212      1.0  0.39758  0.9846200000000002  0.45858  1.0000
  C   C213      1.0  0.52283  0.92179  0.575  1.0000
  C   C214      1.0  0.34733999999999987  0.92585  0.44973999999999986  1.0000
  H   H221      1.0  0.3609800000000001  0.8979200000000002  0.4349999999999999  1.0000
  H   H222      1.0  0.31880999999999987  0.9291  0.42561  1.0000
  C   C215      1.0  0.4773499999999999  0.86266  0.58784  1.0000
  H   H223      1.0  0.4626400000000001  0.8353100000000002  0.5582  1.0000
  H   H224      1.0  0.4409699999999999  0.8636900000000001  0.6016499999999998  1.0000
  H   H225      1.0  0.38299  0.010920000000000003  0.47498  1.0000
  H   H226      1.0  0.54303  0.9479300000000003  0.60446  1.0000
  C   C216      1.0  0.31491999999999987  0.89865  0.4912899999999999  1.0000
  H   H227      1.0  0.3038399999999999  0.92721  0.5084199999999998  1.0000
  H   H228      1.0  0.27594999999999986  0.85945  0.48235999999999996  1.0000
  H   H229      1.0  0.33996  0.88792  0.51384  1.0000
  H   H230      1.0  0.4155699999999999  0.005999999999999999  0.4273399999999999  1.0000
  H   H231      1.0  0.5566799999999998  0.9187300000000002  0.55825  1.0000
  C   C217      1.0  0.5515299999999999  0.6782700000000003  0.3176799999999999  1.0000
  C   C218      1.0  0.57535  0.70856  0.35731  1.0000
  C   C219      1.0  0.5647999999999997  0.75181  0.36866  1.0000
  C   C220      1.0  0.52088  0.7553300000000002  0.3484699999999999  1.0000
  C   C221      1.0  0.4888  0.71658  0.31497  1.0000
  C   C222      1.0  0.50655  0.68085  0.29804  1.0000
  H   H232      1.0  0.59023  0.7822900000000003  0.3934  1.0000
  H   H233      1.0  0.48500000000000004  0.6547700000000001  0.26972  1.0000
  C   C223      1.0  0.61004  0.69395  0.3881  1.0000
  C   C224      1.0  0.43538999999999994  0.7124000000000001  0.2972  1.0000
  C   C225      1.0  0.4442  0.7389900000000003  0.25163  1.0000
  H   H234      1.0  0.44067999999999996  0.7080800000000003  0.22658999999999996  1.0000
  H   H235      1.0  0.4864799999999999  0.77622  0.24948999999999996  1.0000
  H   H236      1.0  0.6  0.6501  0.38283  1.0000
  H   H237      1.0  0.41879  0.7315000000000002  0.3202799999999999  1.0000
  C   C226      1.0  0.5422299999999999  0.6573300000000001  0.45182  1.0000
  C   C227      1.0  0.40148  0.75703  0.24095  1.0000
  H   H238      1.0  0.53195  0.61394  0.44377  1.0000
  H   H239      1.0  0.51143  0.6662  0.43547999999999987  1.0000
  H   H240      1.0  0.6548299999999998  0.72184  0.38072  1.0000
  H   H241      1.0  0.35846  0.72133  0.24482  1.0000
  H   H242      1.0  0.40662999999999994  0.77191  0.20658999999999994  1.0000
  H   H243      1.0  0.4078699999999999  0.79188  0.2630299999999999  1.0000
  H   H244      1.0  0.40264  0.66746  0.29453  1.0000
  C   C228      1.0  0.5607899999999999  0.18596000000000004  0.3474899999999999  1.0000
  C   C229      1.0  0.54788  0.21304  0.38113999999999987  1.0000
  C   C230      1.0  0.5474899999999998  0.26268  0.3716899999999999  1.0000
  C   C231      1.0  0.5582699999999998  0.28482  0.32932  1.0000
  C   C232      1.0  0.57467  0.25992  0.29653  1.0000
  C   C233      1.0  0.5763399999999997  0.21093  0.30616  1.0000
  H   H245      1.0  0.5383599999999998  0.28395000000000004  0.3973699999999999  1.0000
  H   H246      1.0  0.58801  0.19117  0.2809399999999999  1.0000
  C   C234      1.0  0.5373199999999999  0.19118000000000004  0.42779  1.0000
  C   C235      1.0  0.5934499999999998  0.2868200000000001  0.25198  1.0000
  C   C236      1.0  0.4746699999999999  0.15488000000000002  0.43766  1.0000
  H   H247      1.0  0.47  0.12823000000000004  0.46644999999999986  1.0000
  H   H248      1.0  0.45165  0.12638000000000002  0.4097499999999999  1.0000
  H   H249      1.0  0.55821  0.16639000000000004  0.43442999999999987  1.0000
  H   H250      1.0  0.56542  0.30177  0.23932  1.0000
  C   C237      1.0  0.44712  0.18958  0.44815  1.0000
  H   H251      1.0  0.44407  0.21099000000000007  0.41833  1.0000
  H   H252      1.0  0.40423  0.16150000000000003  0.4599999999999999  1.0000
  H   H253      1.0  0.47095999999999993  0.22110000000000005  0.4741899999999999  1.0000
  H   H254      1.0  0.5573099999999999  0.22697  0.45132  1.0000
  H   H255      1.0  0.59038  0.25519  0.22775  1.0000
  C   C238      1.0  0.48884  0.9404800000000002  0.13077  1.0000
  C   C239      1.0  0.4406300000000001  0.9240300000000002  0.15639999999999996  1.0000
  C   C240      1.0  0.44773999999999997  0.93794  0.20111999999999994  1.0000
  C   C241      1.0  0.4987  0.9547600000000003  0.22253  1.0000
  C   C242      1.0  0.54427  0.9593500000000003  0.19790999999999995  1.0000
  C   C243      1.0  0.5400699999999999  0.9577000000000001  0.15189  1.0000
  H   H256      1.0  0.4132799999999999  0.93535  0.21941999999999995  1.0000
  H   H257      1.0  0.5759499999999999  0.9659100000000002  0.13264999999999993  1.0000
  C   C244      1.0  0.3818399999999999  0.89463  0.13664999999999997  1.0000
  C   C245      1.0  0.5899200000000001  0.9513100000000001  0.21863  1.0000
  C   C246      1.0  0.34146999999999994  0.8414300000000001  0.16176999999999994  1.0000
  H   H258      1.0  0.34595999999999993  0.84799  0.1978  1.0000
  H   H259      1.0  0.3508199999999999  0.80771  0.15377  1.0000
  C   C247      1.0  0.5673299999999999  0.8897800000000001  0.23057999999999995  1.0000
  H   H260      1.0  0.54516  0.8625500000000003  0.20177999999999993  1.0000
  H   H261      1.0  0.537  0.8785200000000002  0.2573099999999999  1.0000
  H   H262      1.0  0.36642999999999987  0.92495  0.13659999999999994  1.0000
  H   H263      1.0  0.6102900000000001  0.9788900000000003  0.24710999999999994  1.0000
  C   C248      1.0  0.28084000000000003  0.8221100000000002  0.14933  1.0000
  H   H264      1.0  0.26956  0.8535  0.16046  1.0000
  H   H265      1.0  0.27421  0.8164600000000002  0.11330999999999997  1.0000
  H   H266      1.0  0.25291999999999987  0.78168  0.16548999999999994  1.0000
  H   H267      1.0  0.3804099999999999  0.88063  0.10245  1.0000
  H   H268      1.0  0.63873  0.90649  0.27259  1.0000
  H   H269      1.0  0.6242700000000001  0.9637200000000001  0.19492  1.0000
  C   C249      1.0  0.010950000000000066  0.49159000000000014  0.5469199999999999  1.0000
  C   C250      1.0  0.03093000000000002  0.51522  0.45723999999999987  1.0000
  C   C251      1.0  0.06856999999999999  0.50641  0.4830799999999999  1.0000
  C   C252      1.0  0.05564000000000001  0.49039  0.52697  1.0000
  H   H270      1.0  0.08288000000000008  0.4808900000000001  0.5464099999999997  1.0000
  C   C253      1.0  0.12724999999999995  0.5257  0.46786  1.0000
  C   C254      1.0  0.16620000000000007  0.5877700000000001  0.4791699999999999  1.0000
  H   H271      1.0  0.16338000000000005  0.59548  0.51456  1.0000
  H   H272      1.0  0.15338999999999994  0.61378  0.45983  1.0000
  H   H273      1.0  0.12891999999999995  0.51969  0.4322199999999999  1.0000
  C   C255      1.0  0.22677999999999995  0.6060000000000001  0.4690399999999999  1.0000
  H   H274      1.0  0.24119999999999997  0.5818800000000001  0.48909999999999987  1.0000
  H   H275      1.0  0.2537099999999999  0.6512  0.4769699999999999  1.0000
  H   H276      1.0  0.2311399999999999  0.59936  0.43374  1.0000
  H   H277      1.0  0.14300000000000004  0.5001200000000001  0.4842199999999999  1.0000
  H   H278      1.0  0.6656499999999997  0.43613  0.4071499999999999  1.0000
  C   C256      1.0  0.6783199999999998  0.45584  0.4763299999999999  1.0000
  H   H279      1.0  0.6545399999999999  0.41143  0.4867299999999999  1.0000
  H   H280      1.0  0.64976  0.47314000000000006  0.47627  1.0000
  C   C257      1.0  0.22308  0.48513  0.3157399999999999  1.0000
  C   C258      1.0  0.2341  0.4433200000000001  0.3316899999999999  1.0000
  C   C259      1.0  0.28163  0.4424300000000001  0.31738  1.0000
  C   C260      1.0  0.31712  0.48123  0.28655999999999987  1.0000
  C   C261      1.0  0.30384999999999995  0.52048  0.26842  1.0000
  C   C262      1.0  0.2578  0.52302  0.2842099999999999  1.0000
  H   H281      1.0  0.2916999999999999  0.41219000000000006  0.33107  1.0000
  H   H282      1.0  0.24799000000000002  0.55363  0.27095  1.0000
  C   C263      1.0  0.19672999999999993  0.40035  0.36498  1.0000
  C   C264      1.0  0.3332  0.55409  0.22817999999999994  1.0000
  C   C265      1.0  0.22106999999999993  0.41548  0.41177999999999987  1.0000
  H   H283      1.0  0.26426  0.42276  0.41255  1.0000
  H   H284      1.0  0.19567  0.3793700000000001  0.4334399999999999  1.0000
  C   C266      1.0  0.30979  0.51778  0.18661999999999995  1.0000
  H   H285      1.0  0.26346  0.4944400000000001  0.18697  1.0000
  H   H286      1.0  0.32391  0.4865400000000001  0.18571  1.0000
  H   H287      1.0  0.15360999999999997  0.39322  0.36431  1.0000
  H   H288      1.0  0.37893  0.5712  0.23067  1.0000
  C   C267      1.0  0.22098  0.46697000000000005  0.4301199999999999  1.0000
  C   C268      1.0  0.3285999999999999  0.55299  0.14510999999999993  1.0000
  H   H289      1.0  0.17839999999999995  0.46124  0.42779  1.0000
  H   H290      1.0  0.23434999999999997  0.4730000000000001  0.4651299999999999  1.0000
  H   H291      1.0  0.25043  0.50512  0.41198  1.0000
  H   H292      1.0  0.19226  0.35913000000000006  0.35616  1.0000
  H   H293      1.0  0.31032  0.58071  0.14335999999999993  1.0000
  H   H294      1.0  0.3142399999999999  0.52507  0.11583  1.0000
  H   H295      1.0  0.3746799999999999  0.57908  0.14457999999999993  1.0000
  H   H296      1.0  0.32732  0.59111  0.22563999999999995  1.0000
  H   H297      1.0  0.03917000000000002  0.60743  0.19955  1.0000
  H   H298      1.0  0.09819  0.48261000000000004  0.24596999999999994  1.0000
  C   C269      1.0  0.17123  0.52764  0.17545  1.0000
  H   H299      1.0  0.18932000000000002  0.5517500000000001  0.20631  1.0000
  H   H300      1.0  0.20505999999999994  0.52811  0.15613  1.0000
  H   H301      1.0  0.15273  0.54824  0.15561  1.0000
  H   H302      1.0  0.029590000000000095  0.6389500000000001  0.1299  1.0000
  C   C270      1.0  0.009030000000000007  0.05098000000000001  0.5656599999999998  1.0000
  C   C271      1.0  0.05777000000000001  0.06444000000000001  0.5424899999999998  1.0000
  C   C272      1.0  0.053680000000000005  0.05394000000000001  0.49738  1.0000
  C   C273      1.0  0.004999999999999998  0.04192  0.47441  1.0000
  H   H303      1.0  0.08922999999999999  0.05765000000000001  0.4799899999999999  1.0000
  C   C274      1.0  0.11450999999999997  0.1006  0.5629999999999997  1.0000
  C   C275      1.0  0.14203  0.16136  0.5470499999999998  1.0000
  H   H304      1.0  0.14920999999999998  0.16303  0.5111999999999999  1.0000
  H   H305      1.0  0.18335999999999994  0.18549  0.5636799999999997  1.0000
  H   H306      1.0  0.11345999999999998  0.10097000000000003  0.5990199999999998  1.0000
  C   C276      1.0  0.10745999999999997  0.18917  0.55724  1.0000
  H   H307      1.0  0.09724999999999999  0.18528000000000003  0.59258  1.0000
  H   H308      1.0  0.13144999999999998  0.23425000000000004  0.5488599999999998  1.0000
  H   H309      1.0  0.06816  0.16972  0.53752  1.0000
  H   H310      1.0  0.14064  0.08244000000000001  0.55403  1.0000
  C   C277      1.0  0.022349999999999988  0.8302  0.26104  1.0000
  H   H311      1.0  0.04322000000000004  0.8050000000000002  0.25692  1.0000
  H   H312      1.0  0.04862000000000006  0.8657200000000002  0.2835499999999999  1.0000
  C   C278      1.0  0.01860999999999994  0.85338  0.21656999999999996  1.0000
  H   H313      1.0  0.9918399999999998  0.81848  0.19378  1.0000
  H   H314      1.0  0.06064000000000013  0.8774800000000003  0.20236  1.0000
  H   H315      1.0  0.0011800000000000493  0.88169  0.22015999999999997  1.0000
  H   H316      1.0  0.9612799999999998  0.19998000000000005  0.26282  1.0000
  H   H317      1.0  0.9579699999999998  0.27226  0.21463999999999994  1.0000
  H   H318      1.0  0.6350799999999999  0.9124399999999999  0.4917799999999999  1.0000
  H   H319      1.0  0.64429  0.8695500000000002  0.42699  1.0000
  C   C279      1.0  0.29083  0.9874500000000003  0.33222  1.0000
  C   C280      1.0  0.27821  0.01839  0.36275999999999997  1.0000
  C   C281      1.0  0.23495999999999995  0.02932  0.35274  1.0000
  C   C282      1.0  0.19877999999999996  0.00265  0.31723  1.0000
  C   C283      1.0  0.2121699999999999  0.97355  0.28600999999999993  1.0000
  C   C284      1.0  0.25829  0.9663900000000002  0.29377  1.0000
  H   H320      1.0  0.22710999999999995  0.055820000000000015  0.3742199999999999  1.0000
  H   H321      1.0  0.26935000000000003  0.9449900000000001  0.26951  1.0000
  C   C285      1.0  0.31162  0.041600000000000005  0.40522  1.0000
  C   C286      1.0  0.18073999999999996  0.95434  0.24265  1.0000
  C   C287      1.0  0.2762299999999999  0.033370000000000004  0.4460999999999999  1.0000
  H   H322      1.0  0.25799  0.061200000000000004  0.44482  1.0000
  H   H323      1.0  0.30439  0.04633000000000001  0.47538  1.0000
  C   C288      1.0  0.20486  0.0019599999999999995  0.20914999999999995  1.0000
  H   H324      1.0  0.24912999999999993  0.01474  0.20298  1.0000
  H   H325      1.0  0.2035299999999999  0.03891000000000001  0.2222  1.0000
  H   H326      1.0  0.3373799999999999  0.022480000000000007  0.41266999999999987  1.0000
  H   H327      1.0  0.13580999999999996  0.93921  0.24715999999999994  1.0000
  C   C289      1.0  0.22975000000000007  0.9728000000000002  0.4524999999999999  1.0000
  C   C290      1.0  0.17235  0.98414  0.16572999999999993  1.0000
  H   H328      1.0  0.24629  0.9436700000000001  0.45062999999999986  1.0000
  H   H329      1.0  0.21112  0.9686600000000001  0.48523  1.0000
  H   H330      1.0  0.19621000000000008  0.9605800000000002  0.4273499999999999  1.0000
  H   H331      1.0  0.34073  0.08713  0.4009399999999999  1.0000
  H   H332      1.0  0.17420000000000002  0.94816  0.15125  1.0000
  H   H333      1.0  0.19099999999999995  0.019520000000000006  0.14237  1.0000
  H   H334      1.0  0.12812999999999988  0.97226  0.17068999999999995  1.0000
  H   H335      1.0  0.18339  0.91807  0.22956999999999997  1.0000
  C   C291      1.0  0.99226  0.9991300000000002  0.23006  1.0000
  C   C292      1.0  0.04201999999999999  0.04225  0.21196999999999994  1.0000
  C   C293      1.0  0.05819999999999999  0.03359  0.17065999999999995  1.0000
  C   C294      1.0  0.02047  0.98933  0.14343999999999996  1.0000
  H   H336      1.0  0.0983  0.06457  0.15804  1.0000
  C   C295      1.0  0.07232  0.10095000000000003  0.23162999999999995  1.0000
  C   C296      1.0  0.06298  0.14263  0.20437999999999995  1.0000
  H   H337      1.0  0.07787000000000001  0.14480000000000004  0.1704  1.0000
  H   H338      1.0  0.08825  0.18502000000000005  0.21928999999999996  1.0000
  H   H339      1.0  0.06073  0.10309000000000003  0.2657799999999999  1.0000
  C   C297      1.0  0.001900000000000019  0.12794000000000003  0.20278  1.0000
  H   H340      1.0  0.98535  0.12315000000000001  0.23639999999999994  1.0000
  H   H341      1.0  0.9984999999999999  0.16203000000000004  0.18625999999999995  1.0000
  H   H342      1.0  0.9761999999999997  0.08856000000000001  0.18389999999999995  1.0000
  H   H343      1.0  0.11773999999999998  0.11567000000000001  0.23268999999999995  1.0000
  P   P20       1.0  0.02690999999999999  0.52816  0.2683099999999999  1.0000
  C   C298      1.0  0.6411399999999999  0.9852100000000003  0.35576  1.0000
  O   O122      1.0  0.6421799999999998  0.0312  0.36898  1.0000
  C   C299      1.0  0.69247  0.53613  0.33042  1.0000
  O   O123      1.0  0.68926  0.5726500000000001  0.30433999999999994  1.0000
  O   O124      1.0  0.98271  0.11277  0.03717  1.0000
  P   P21       1.0  0.02878999999999998  0.5002  0.06489  1.0000
  P   P22       1.0  0.03998000000000007  0.4946700000000001  0.93396  1.0000
  C   C300      1.0  0.07676999999999996  0.68604  0.9682599999999998  1.0000
  O   O125      1.0  0.07409999999999992  0.5614299999999999  0.9382799999999998  1.0000
  O   O126      1.0  0.021540000000000035  0.3740200000000001  0.98546  1.0000
  O   O127      1.0  0.6683999999999998  0.1028  0.9960999999999998  1.0000
  C   C301      1.0  0.6594499999999998  0.14040000000000002  0.014869999999999998  1.0000
  C   C302      1.0  0.6346099999999998  0.20944000000000002  0.67753  1.0000
  C   C303      1.0  0.6473499999999999  0.26206  0.6950099999999998  1.0000
  H   H344      1.0  0.63187  0.35046  0.67102  1.0000
  H   H345      1.0  0.56066  0.3075300000000001  0.6101399999999998  1.0000
  H   H346      1.0  0.66824  0.9549900000000002  0.7429499999999999  1.0000
  H   H347      1.0  0.49001999999999996  0.7933500000000001  0.13472  1.0000
  H   H348      1.0  0.5173099999999998  0.76083  0.17101  1.0000
  C   C304      1.0  0.52514  0.21987  0.82221  1.0000
  H   H349      1.0  0.48914999999999986  0.18336000000000002  0.8059799999999998  1.0000
  H   H350      1.0  0.5222899999999999  0.25810000000000005  0.8162499999999998  1.0000
  C   C305      1.0  0.028600000000000014  0.47582  0.87674  1.0000
  C   C306      1.0  0.041640000000000066  0.7424800000000001  0.00367  1.0000
  C   C307      1.0  0.07937000000000005  0.7401900000000002  0.97489  1.0000
  H   H351      1.0  0.0891899999999999  0.74916  0.8745899999999998  1.0000
  C   C308      1.0  0.0801900000000001  0.8426000000000002  0.11214999999999997  1.0000
  H   H352      1.0  0.11571000000000002  0.85138  0.09076999999999998  1.0000
  H   H353      1.0  0.009340000000000011  0.22140000000000007  0.10396999999999999  1.0000
  C   C309      1.0  0.49911  0.8370400000000002  0.62158  1.0000
  H   H354      1.0  0.53411  0.83329  0.60796  1.0000
  H   H355      1.0  0.46510999999999997  0.7946900000000001  0.63044  1.0000
  H   H356      1.0  0.51354  0.8632900000000002  0.65178  1.0000
  C   C310      1.0  0.61378  0.87839  0.24507999999999994  1.0000
  H   H357      1.0  0.5952599999999999  0.8343400000000002  0.25612  1.0000
  C   C311      1.0  0.04715999999999996  0.53468  0.21202  1.0000
  C   C312      1.0  0.028339999999999994  0.56059  0.13969999999999994  1.0000
  C   C313      1.0  0.03969999999999996  0.57183  0.18502  1.0000
  C   C314      1.0  0.01486000000000002  0.59832  0.11253  1.0000
  H   H358      1.0  0.03806000000000005  0.6093200000000001  0.08149  1.0000
  H   H359      1.0  0.60845  0.9049100000000002  0.41144999999999987  1.0000
  P   P23       1.0  0.9931399999999998  0.0108  0.4205899999999999  1.0000
  O   O128      1.0  0.07336999999999998  0.6661900000000001  0.9285199999999998  1.0000
  H   H360      1.0  0.60171  0.27376  0.61542  1.0000
  H   H361      1.0  0.7118899999999999  0.07939000000000002  0.8743899999999998  1.0000
  H   H362      1.0  0.09149999999999997  0.83696  0.14604999999999996  1.0000
  H   H363      1.0  0.044730000000000006  0.36894  0.09982999999999997  1.0000
  H   H364      1.0  0.6418299999999998  0.88485  0.21729999999999994  1.0000
  C   C315      1.0  0.64981  0.912  0.4225  1.0000
  H   H365      1.0  0.60956  0.76801  0.07259  1.0000
  C   C316      1.0  0.61459  0.73386  0.08717  1.0000
  H   H366      1.0  0.61259  0.73596  0.12338999999999997  1.0000
  C   C317      1.0  0.016320000000000053  0.32289000000000007  0.09982  1.0000
  H   H367      1.0  0.020929999999999997  0.30905000000000005  0.13309999999999994  1.0000
  H   H368      1.0  0.5392499999999999  0.6607200000000001  0.48783  1.0000
  H   H369      1.0  0.6577999999999998  0.3678000000000001  0.2779299999999999  1.0000
  C   C318      1.0  0.12758000000000005  0.4672300000000001  0.18563999999999994  1.0000
  H   H370      1.0  0.14838  0.4475300000000001  0.20376999999999995  1.0000
  C   C319      1.0  0.027450000000000054  0.7893600000000001  0.09719999999999997  1.0000
  C   C320      1.0  0.6014199999999998  0.69886  0.4373799999999999  1.0000
  C   C321      1.0  0.049419999999999985  0.48987  0.19224999999999995  1.0000
  C   C322      1.0  0.021820000000000016  0.5098  0.12226999999999998  1.0000
  C   C323      1.0  0.08003999999999999  0.4632  0.21377  1.0000
  H   H371      1.0  0.11075000000000002  0.4434600000000001  0.15446  1.0000
  H   H372      1.0  0.03484000000000011  0.7533000000000002  0.09898  1.0000
  H   H373      1.0  0.6122499999999997  0.74207  0.4466499999999999  1.0000
  C   C324      1.0  0.026329999999999996  0.47237  0.15059  1.0000
  H   H374      1.0  0.6214  0.9877300000000002  0.45605  1.0000
  H   H375      1.0  0.63069  0.6898800000000002  0.45606  1.0000
  H   H376      1.0  0.9980900000000001  0.7213000000000002  0.30671  1.0000
  P   P24       1.0  0.9773299999999999  0.9975600000000002  0.28760999999999987  1.0000
  H   H377      1.0  0.6975199999999999  0.71374  0.58458  1.0000
  H   H378      1.0  0.020440000000000003  0.43308  0.13794999999999993  1.0000
  H   H379      1.0  0.049839999999999975  0.41819  0.21909999999999996  1.0000
  O   O129      1.0  0.98381  0.64145  0.4196699999999999  1.0000
  H   H380      1.0  0.95476  0.6088900000000002  0.04124999999999999  1.0000
  C   C325      1.0  0.67672  0.7420200000000001  0.02447  1.0000
  C   C326      1.0  0.6651800000000001  0.9413800000000002  0.4674299999999999  1.0000
  H   H381      1.0  0.6554499999999999  0.16492000000000004  0.93297  1.0000
  H   H382      1.0  0.8642499999999997  0.19070000000000006  0.23903999999999995  1.0000
  H   H383      1.0  0.8605599999999998  0.23472  0.19773  1.0000
  H   H384      1.0  0.56407  0.22573  0.8074099999999997  1.0000
  C   C327      1.0  0.9330199999999997  0.27743  0.24054999999999996  1.0000
  O   O130      1.0  0.02783000000000001  0.16441000000000003  0.32421999999999995  1.0000
  H   H385      1.0  0.73211  0.28496  0.8996299999999998  1.0000
  H   H386      1.0  0.0031400000000001544  0.8314600000000002  0.048579999999999984  1.0000
  C   C328      1.0  0.70115  0.45894000000000007  0.4305399999999999  1.0000
  H   H387      1.0  0.7129199999999998  0.47942  0.50035  1.0000
  C   C329      1.0  0.8713500000000001  0.23349000000000003  0.23272  1.0000
  H   H388      1.0  0.07873  0.25318  0.3897199999999999  1.0000
  C   C330      1.0  0.9646399999999998  0.22602000000000005  0.29066  1.0000
  H   H389      1.0  0.67717  0.78005  0.011709999999999996  1.0000
  C   C331      1.0  0.69683  0.59064  0.52034  1.0000
  H   H390      1.0  0.12656999999999996  0.27302000000000004  0.4624  1.0000
  C   C332      1.0  0.98277  0.1641  0.33744  1.0000
  C   C333      1.0  0.9876299999999999  0.66363  0.38088  1.0000
  O   O131      1.0  0.6729199999999997  0.60757  0.05107  1.0000
  O   O132      1.0  0.9866699999999998  0.5011100000000002  0.7360599999999998  1.0000
  O   O133      1.0  0.69696  0.5736200000000001  0.66319  1.0000
  H   H391      1.0  0.6819499999999998  0.7969000000000002  0.60058  1.0000
  H   H392      1.0  0.76389  0.7621600000000002  0.56344  1.0000
  H   H393      1.0  0.6844599999999997  0.10965  0.8018  1.0000
  H   H394      1.0  0.71705  0.06757000000000002  0.79726  1.0000
  C   C334      1.0  0.6977999999999999  0.20133000000000004  0.92826  1.0000
  H   H395      1.0  0.7219799999999997  0.18728000000000006  0.90838  1.0000
  H   H396      1.0  0.9033599999999999  0.39267000000000013  0.76419  1.0000
  C   C335      1.0  0.73807  0.5198  0.41565  1.0000
  H   H397      1.0  0.7258499999999998  0.4372  0.43115  1.0000
  H   H398      1.0  0.7145899999999997  0.54262  0.4155399999999999  1.0000
  H   H399      1.0  0.7721199999999999  0.54224  0.44027  1.0000
  C   C336      1.0  0.9674300000000001  0.7757000000000002  0.32645  1.0000
  C   C337      1.0  0.9803799999999999  0.7332300000000002  0.3331699999999999  1.0000
  C   C338      1.0  0.9640799999999998  0.79343  0.28003  1.0000
  H   H400      1.0  0.9395299999999998  0.81527  0.27819  1.0000
  H   H401      1.0  0.9408099999999998  0.75532  0.25917  1.0000
  C   C339      1.0  0.06167999999999999  0.26559  0.41758999999999996  1.0000
  H   H402      1.0  0.06477000000000001  0.20470000000000002  0.46118  1.0000
  Zn  Zn29      1.0  0.9109999999999999  0.9244900000000003  0.3603899999999999  1.0000
  Zn  Zn30      1.0  0.9464499999999998  0.052  0.3539  1.0000
  C   C340      1.0  0.8324899999999998  0.9601200000000001  0.3590799999999999  1.0000
  C   C341      1.0  0.9556199999999999  0.85209  0.36063999999999996  1.0000
  O   O134      1.0  0.9371799999999998  0.9339600000000001  0.30022  1.0000
  O   O135      1.0  0.9293499999999999  0.9639200000000002  0.4167599999999999  1.0000
  O   O136      1.0  0.9454099999999998  0.03179  0.2933  1.0000
  O   O137      1.0  0.9405199999999998  0.11778000000000002  0.35169  1.0000
  O   O138      1.0  0.8730099999999997  0.0024300000000000007  0.38047  1.0000
  O   O139      1.0  0.83766  0.91685  0.34821999999999986  1.0000
  O   O140      1.0  0.9156499999999997  0.85835  0.37768  1.0000
  Zn  Zn31      1.0  0.9414799999999999  0.4468600000000001  0.32798  1.0000
  Zn  Zn32      1.0  0.003749999999999983  0.57878  0.3427899999999999  1.0000
  C   C342      1.0  0.96266  0.35842  0.31511  1.0000
  C   C343      1.0  0.8829199999999998  0.50507  0.3328399999999999  1.0000
  O   O141      1.0  0.9592899999999998  0.47108  0.3886499999999999  1.0000
  O   O142      1.0  0.9748700000000001  0.46667000000000003  0.27082  1.0000
  O   O143      1.0  0.008119999999999985  0.57267  0.27986  1.0000
  O   O144      1.0  0.9238499999999998  0.5356700000000001  0.3606999999999999  1.0000
  O   O145      1.0  0.9271399999999999  0.3700400000000001  0.33377  1.0000
  O   O146      1.0  0.87912  0.45937  0.3161299999999999  1.0000
  O   O147      1.0  0.012019999999999942  0.65212  0.34917  1.0000
  Zn  Zn33      1.0  0.9978799999999999  0.9206300000000001  0.00666  1.0000
  O   O148      1.0  0.012349999999999948  0.92615  0.06852  1.0000
  O   O149      1.0  0.9996699999999997  0.98719  0.9808199999999998  1.0000
  O   O150      1.0  0.8784799999999999  0.8977600000000002  0.99031  1.0000
  C   C344      1.0  0.8802899999999999  0.8511400000000001  0.98742  1.0000
  O   O151      1.0  0.9290599999999999  0.8537000000000001  0.9877699999999998  1.0000
  Zn  Zn34      1.0  0.9765799999999998  0.41014  0.9997399999999997  1.0000
  O   O152      1.0  0.9946699999999999  0.43397  0.05826  1.0000
  O   O153      1.0  0.008620000000000058  0.5309200000000001  0.030939999999999992  1.0000
  O   O154      1.0  0.98272  0.4685000000000001  0.9599499999999997  1.0000
  O   O155      1.0  0.86898  0.39977  0.02354  1.0000
  C   C345      1.0  0.86075  0.35097  0.009939999999999996  1.0000
  O   O156      1.0  0.9018799999999999  0.3477100000000001  0.9918399999999998  1.0000
  Zn  Zn35      1.0  0.9305599999999999  0.98961  0.6977999999999998  1.0000
  C   C346      1.0  0.8587199999999998  0.028990000000000005  0.72479  1.0000
  C   C347      1.0  0.8965299999999998  0.87168  0.68674  1.0000
  O   O157      1.0  0.9969099999999999  0.0467  0.72781  1.0000
  O   O158      1.0  0.93702  0.9967100000000001  0.63453  1.0000
  O   O159      1.0  0.8607699999999998  0.98571  0.70945  1.0000
  O   O160      1.0  0.9050999999999998  0.07485000000000001  0.7357199999999998  1.0000
  O   O161      1.0  0.9049599999999998  0.91101  0.7152199999999997  1.0000
  O   O162      1.0  0.9396199999999999  0.8744  0.66639  1.0000
  Zn  Zn36      1.0  0.9170899999999997  0.41815000000000013  0.6721999999999998  1.0000
  C   C348      1.0  0.8049099999999998  0.33786000000000005  0.7002499999999998  1.0000
  C   C349      1.0  0.8947299999999998  0.51175  0.6839599999999999  1.0000
  O   O163      1.0  0.9365099999999997  0.44270000000000004  0.6135499999999998  1.0000
  O   O164      1.0  0.9778699999999998  0.4108  0.7008799999999997  1.0000
  O   O165      1.0  0.8476199999999998  0.34598000000000007  0.67637  1.0000
  O   O166      1.0  0.8128299999999998  0.37168000000000007  0.73325  1.0000
  O   O167      1.0  0.8911399999999999  0.46655000000000013  0.7016799999999997  1.0000
  O   O168      1.0  0.9439699999999999  0.5556700000000001  0.67731  1.0000
  C   C350      1.0  0.69865  0.5328300000000001  0.6837999999999999  1.0000
  C   C351      1.0  0.70329  0.30483  0.6985899999999998  1.0000
  C   C352      1.0  0.74686  0.29517  0.6871699999999997  1.0000
  C   C353      1.0  0.7335699999999998  0.24362  0.66638  1.0000
  C   C354      1.0  0.6773  0.20319  0.65907  1.0000
  H   H403      1.0  0.7129799999999997  0.34536  0.71167  1.0000
  H   H404      1.0  0.6669199999999997  0.16352  0.6438  1.0000
  C   C355      1.0  0.77775  0.22805000000000006  0.6565299999999997  1.0000
  C   C356      1.0  0.79713  0.21114000000000005  0.6984199999999998  1.0000
  H   H405      1.0  0.7662199999999998  0.16703000000000004  0.70646  1.0000
  H   H406      1.0  0.7996399999999998  0.23760000000000006  0.7267599999999997  1.0000
  H   H407      1.0  0.8128  0.26177  0.6384  1.0000
  C   C357      1.0  0.85429  0.21643000000000004  0.69301  1.0000
  H   H408      1.0  0.85447  0.19252  0.66383  1.0000
  H   H409      1.0  0.86474  0.19966  0.7225  1.0000
  H   H410      1.0  0.8867099999999998  0.26114000000000004  0.6893299999999998  1.0000
  H   H411      1.0  0.76048  0.19189000000000003  0.63335  1.0000
  C   C358      1.0  0.7497199999999998  0.5292200000000001  0.68285  1.0000
  C   C359      1.0  0.7995399999999998  0.56993  0.7039999999999998  1.0000
  C   C360      1.0  0.8454099999999999  0.5616000000000001  0.70588  1.0000
  C   C361      1.0  0.84505  0.5179300000000001  0.68223  1.0000
  C   C362      1.0  0.7975699999999998  0.4809100000000001  0.65668  1.0000
  C   C363      1.0  0.74912  0.48531  0.65928  1.0000
  H   H412      1.0  0.88242  0.59058  0.7245199999999998  1.0000
  H   H413      1.0  0.7111999999999999  0.4556500000000001  0.6421899999999998  1.0000
  C   C364      1.0  0.8061299999999998  0.62432  0.7220599999999998  1.0000
  C   C365      1.0  0.8024099999999998  0.44385000000000013  0.6218599999999997  1.0000
  C   C366      1.0  0.84452  0.67471  0.6933699999999998  1.0000
  H   H414      1.0  0.88445  0.6755100000000002  0.68757  1.0000
  H   H415      1.0  0.8551299999999998  0.71407  0.71094  1.0000
  C   C367      1.0  0.74748  0.39946  0.59991  1.0000
  H   H416      1.0  0.72967  0.42038000000000003  0.57958  1.0000
  H   H417      1.0  0.71697  0.37385  0.62524  1.0000
  H   H418      1.0  0.7657999999999998  0.6229  0.7268099999999997  1.0000
  H   H419      1.0  0.8227799999999997  0.42176000000000013  0.63663  1.0000
  C   C368      1.0  0.81764  0.67473  0.6493999999999998  1.0000
  C   C369      1.0  0.7567399999999997  0.36038  0.57016  1.0000
  H   H420      1.0  0.7791399999999999  0.6768200000000002  0.6545699999999998  1.0000
  H   H421      1.0  0.84702  0.71199  0.63036  1.0000
  H   H422      1.0  0.8076099999999998  0.6366100000000001  0.6301  1.0000
  H   H423      1.0  0.82547  0.6314900000000001  0.75535  1.0000
  H   H424      1.0  0.7866199999999998  0.3846200000000001  0.544  1.0000
  H   H425      1.0  0.7164799999999998  0.32931000000000005  0.5545699999999998  1.0000
  H   H426      1.0  0.7731899999999996  0.33745  0.58946  1.0000
  H   H427      1.0  0.83014  0.47176  0.59601  1.0000
  C   C370      1.0  0.7229199999999998  0.7477  0.6704299999999997  1.0000
  C   C371      1.0  0.75721  0.7700000000000002  0.6332899999999999  1.0000
  C   C372      1.0  0.8150400000000001  0.8075600000000002  0.6391099999999997  1.0000
  C   C373      1.0  0.8394  0.8222100000000001  0.6813099999999997  1.0000
  C   C374      1.0  0.8050599999999998  0.7980100000000001  0.7183099999999998  1.0000
  C   C375      1.0  0.7468599999999999  0.76535  0.71238  1.0000
  H   H428      1.0  0.8406199999999999  0.8268900000000002  0.61073  1.0000
  H   H429      1.0  0.7204699999999998  0.75045  0.7408199999999998  1.0000
  C   C376      1.0  0.73209  0.7577500000000001  0.5874499999999998  1.0000
  C   C377      1.0  0.82981  0.80596  0.7644099999999998  1.0000
  C   C378      1.0  0.7110499999999998  0.79809  0.5753  1.0000
  H   H430      1.0  0.74696  0.84157  0.57386  1.0000
  C   C379      1.0  0.8142199999999998  0.74978  0.7867499999999997  1.0000
  H   H431      1.0  0.79271  0.7139400000000002  0.76356  1.0000
  H   H432      1.0  0.78458  0.74226  0.81355  1.0000
  H   H433      1.0  0.8140799999999998  0.8287600000000002  0.78438  1.0000
  C   C380      1.0  0.6805899999999999  0.7827800000000003  0.53099  1.0000
  C   C381      1.0  0.86532  0.74932  0.80605  1.0000
  H   H434      1.0  0.64302  0.74041  0.53233  1.0000
  H   H435      1.0  0.66715  0.8135100000000002  0.52264  1.0000
  H   H436      1.0  0.70849  0.78344  0.50489  1.0000
  H   H437      1.0  0.8532099999999999  0.7067200000000002  0.81776  1.0000
  H   H438      1.0  0.8831399999999999  0.77933  0.8339899999999998  1.0000
  H   H439      1.0  0.8977499999999999  0.76085  0.78083  1.0000
  H   H440      1.0  0.8757699999999999  0.8327300000000001  0.76463  1.0000
  C   C382      1.0  0.7033799999999998  0.017040000000000003  0.69248  1.0000
  C   C383      1.0  0.75198  0.05358  0.6694499999999998  1.0000
  C   C384      1.0  0.80379  0.06322000000000001  0.68536  1.0000
  C   C385      1.0  0.80689  0.03057  0.71933  1.0000
  C   C386      1.0  0.7574500000000001  0.9910800000000001  0.74055  1.0000
  C   C387      1.0  0.7061899999999998  0.98488  0.72674  1.0000
  H   H441      1.0  0.8413299999999998  0.09175  0.66803  1.0000
  C   C388      1.0  0.7483299999999998  0.07374  0.62388  1.0000
  C   C389      1.0  0.7581399999999999  0.9545800000000002  0.7775999999999997  1.0000
  C   C390      1.0  0.7515799999999998  0.03639  0.5879399999999998  1.0000
  H   H442      1.0  0.7906199999999999  0.03458  0.5920099999999998  1.0000
  H   H443      1.0  0.75331  0.05559  0.5555499999999998  1.0000
  C   C391      1.0  0.74201  0.97009  0.8212699999999997  1.0000
  H   H444      1.0  0.70395  0.9734000000000003  0.81679  1.0000
  H   H445      1.0  0.7763699999999998  0.01137  0.83295  1.0000
  H   H446      1.0  0.71018  0.07681  0.61879  1.0000
  H   H447      1.0  0.7991599999999998  0.95729  0.78191  1.0000
  C   C392      1.0  0.70158  0.9768400000000003  0.58768  1.0000
  C   C393      1.0  0.72959  0.92608  0.85639  1.0000
  H   H448      1.0  0.6619699999999998  0.9776300000000001  0.58441  1.0000
  H   H449      1.0  0.7046999999999998  0.95307  0.5595999999999998  1.0000
  H   H450      1.0  0.7010599999999998  0.95452  0.6180899999999998  1.0000
  H   H451      1.0  0.78385  0.11688000000000003  0.61965  1.0000
  H   H452      1.0  0.6932399999999997  0.88527  0.8461999999999997  1.0000
  H   H453      1.0  0.71947  0.93964  0.88753  1.0000
  H   H454      1.0  0.7660399999999999  0.9204800000000002  0.8623799999999998  1.0000
  H   H455      1.0  0.7278  0.9101700000000003  0.76907  1.0000
  C   C394      1.0  0.66635  0.6428  0.839  1.0000
  H   H456      1.0  0.63008  0.61854  0.8603499999999997  1.0000
  H   H457      1.0  0.6833199999999999  0.6879700000000001  0.8462499999999998  1.0000
  H   H458      1.0  0.6991  0.632  0.84679  1.0000
  C   C395      1.0  0.80441  0.30113000000000006  0.01106  1.0000
  C   C396      1.0  0.7728799999999999  0.28448  0.05017999999999999  1.0000
  C   C397      1.0  0.72212  0.23269  0.05038  1.0000
  C   C398      1.0  0.7016599999999998  0.20049  0.0119  1.0000
  C   C399      1.0  0.7279599999999998  0.22351  0.9718099999999997  1.0000
  C   C400      1.0  0.7818699999999997  0.26997000000000004  0.9724999999999998  1.0000
  H   H459      1.0  0.6997299999999997  0.21613000000000004  0.08039999999999997  1.0000
  H   H460      1.0  0.80515  0.28363  0.94242  1.0000
  C   C401      1.0  0.7908899999999995  0.32486  0.08931999999999997  1.0000
  C   C402      1.0  0.76043  0.30225  0.13288999999999995  1.0000
  H   H461      1.0  0.7145099999999998  0.2819400000000001  0.12840999999999997  1.0000
  H   H462      1.0  0.77255  0.33852  0.15527  1.0000
  H   H463      1.0  0.83622  0.34233000000000013  0.09601999999999997  1.0000
  C   C403      1.0  0.77673  0.26294  0.15549  1.0000
  H   H464      1.0  0.8218399999999999  0.28625000000000006  0.16427  1.0000
  H   H465      1.0  0.7525300000000001  0.24669000000000005  0.18596999999999994  1.0000
  H   H466      1.0  0.7681899999999998  0.22692000000000004  0.13406  1.0000
  H   H467      1.0  0.78494  0.36043  0.07965  1.0000
  C   C404      1.0  0.9646599999999997  0.4250600000000001  0.8161999999999998  1.0000
  C   C405      1.0  0.97399  0.44503000000000004  0.8597399999999997  1.0000
  H   H468      1.0  0.93889  0.4359600000000001  0.8802699999999998  1.0000
  C   C406      1.0  0.9059199999999997  0.38653  0.79973  1.0000
  C   C407      1.0  0.8872899999999999  0.32453000000000004  0.8071499999999999  1.0000
  H   H469      1.0  0.9185299999999997  0.31461  0.7937299999999998  1.0000
  H   H470      1.0  0.84745  0.29864  0.7888599999999998  1.0000
  H   H471      1.0  0.87637  0.3971700000000001  0.81548  1.0000
  C   C408      1.0  0.87761  0.30811  0.85544  1.0000
  H   H472      1.0  0.84919  0.321  0.87005  1.0000
  H   H473      1.0  0.85813  0.26194000000000006  0.8582399999999998  1.0000
  H   H474      1.0  0.9177299999999998  0.32778000000000007  0.8741099999999998  1.0000
  C   C409      1.0  0.8275399999999999  0.7957200000000002  0.9902099999999998  1.0000
  C   C410      1.0  0.8270699999999997  0.74433  0.9842699999999999  1.0000
  C   C411      1.0  0.78279  0.6950700000000002  0.0017099999999999995  1.0000
  C   C412      1.0  0.7324099999999998  0.69264  0.011559999999999997  1.0000
  C   C413      1.0  0.72977  0.74258  0.011979999999999996  1.0000
  C   C414      1.0  0.7781599999999997  0.79403  0.003449999999999999  1.0000
  H   H475      1.0  0.7855499999999999  0.65732  0.003629999999999999  1.0000
  H   H476      1.0  0.7772999999999999  0.8326600000000002  0.0073799999999999985  1.0000
  C   C415      1.0  0.8710700000000001  0.7413500000000002  0.95677  1.0000
  C   C416      1.0  0.8506399999999998  0.6866700000000002  0.93023  1.0000
  H   H477      1.0  0.8421099999999998  0.65137  0.95236  1.0000
  H   H478      1.0  0.8850699999999999  0.6923200000000003  0.9086399999999998  1.0000
  C   C417      1.0  0.6705100000000002  0.7401900000000002  0.07442999999999997  1.0000
  H   H479      1.0  0.7046899999999998  0.77951  0.08921999999999997  1.0000
  H   H480      1.0  0.67341  0.70438  0.08819  1.0000
  H   H481      1.0  0.8882499999999999  0.7759700000000003  0.9326199999999999  1.0000
  C   C418      1.0  0.7991399999999997  0.67128  0.9014  1.0000
  H   H482      1.0  0.8018000000000001  0.7091400000000002  0.8862999999999998  1.0000
  H   H483      1.0  0.7958199999999999  0.6419900000000001  0.87501  1.0000
  H   H484      1.0  0.7604399999999998  0.64977  0.9207099999999998  1.0000
  H   H485      1.0  0.90586  0.7471100000000003  0.97879  1.0000
  H   H486      1.0  0.008449999999999992  0.7041  0.01713  1.0000
  C   C419      1.0  0.008310000000000144  0.7942200000000003  0.05072999999999998  1.0000
  H   H487      1.0  0.9934999999999999  0.78095  0.12027  1.0000
  H   H488      1.0  0.9658199999999998  0.7578000000000001  0.04495  1.0000
  C   C420      1.0  0.95597  0.31022000000000005  0.09275999999999997  1.0000
  H   H489      1.0  0.9500299999999998  0.32105000000000006  0.05884  1.0000
  H   H490      1.0  0.94818  0.33692  0.11556  1.0000
  C   C421      1.0  0.9126699999999999  0.24906000000000006  0.10127999999999998  1.0000
  H   H491      1.0  0.9137299999999998  0.22152  0.07522  1.0000
  H   H492      1.0  0.8703699999999999  0.24426  0.10106999999999997  1.0000
  H   H493      1.0  0.92036  0.23562  0.13368  1.0000
  C   C422      1.0  0.99037  0.9926000000000001  0.8356099999999997  1.0000
  C   C423      1.0  0.0017000000000000222  0.98936  0.88017  1.0000
  H   H494      1.0  0.9720099999999999  0.9543300000000001  0.89938  1.0000
  C   C424      1.0  0.9317999999999999  0.9553200000000002  0.81743  1.0000
  C   C425      1.0  0.8860099999999997  0.9538200000000002  0.8463499999999998  1.0000
  H   H495      1.0  0.885  0.935  0.87872  1.0000
  H   H496      1.0  0.8451999999999997  0.9259100000000001  0.8300799999999998  1.0000
  H   H497      1.0  0.9263799999999998  0.96931  0.7846499999999997  1.0000
  C   C426      1.0  0.8923399999999998  0.011799999999999998  0.8529099999999997  1.0000
  H   H498      1.0  0.8919099999999998  0.030530000000000005  0.8208299999999998  1.0000
  H   H499      1.0  0.8572799999999998  0.00803  0.8726199999999997  1.0000
  H   H500      1.0  0.9317599999999998  0.04025  0.8708299999999998  1.0000
  H   H501      1.0  0.92472  0.9121500000000002  0.8139599999999998  1.0000
  H   H502      1.0  0.7105299999999997  0.5763999999999999  0.4914699999999999  1.0000
  C   C427      1.0  0.74824  0.63876  0.5424799999999997  1.0000
  H   H503      1.0  0.76752  0.67585  0.52076  1.0000
  H   H504      1.0  0.7793199999999998  0.6254700000000001  0.5496499999999997  1.0000
  H   H505      1.0  0.7366699999999998  0.6504  0.5738099999999999  1.0000
  H   H506      1.0  0.6777199999999998  0.3766500000000001  0.07389999999999997  1.0000
  C   C428      1.0  0.6539199999999997  0.33544  0.25415  1.0000
  H   H507      1.0  0.6819299999999998  0.31967  0.26534  1.0000
  C   C429      1.0  0.67303  0.36278  0.20943999999999993  1.0000
  H   H508      1.0  0.6713299999999998  0.33188  0.18519999999999995  1.0000
  H   H509      1.0  0.71669  0.39789  0.21215999999999993  1.0000
  H   H510      1.0  0.64615  0.37962  0.19773999999999994  1.0000
  C   C430      1.0  0.9797799999999997  0.5113200000000001  0.52283  1.0000
  C   C431      1.0  0.9894799999999997  0.52142  0.47775  1.0000
  H   H511      1.0  0.9627199999999998  0.5308600000000001  0.45786  1.0000
  C   C432      1.0  0.9317599999999998  0.51481  0.54407  1.0000
  C   C433      1.0  0.9135299999999997  0.55375  0.5221  1.0000
  H   H512      1.0  0.9480799999999998  0.58803  0.50374  1.0000
  H   H513      1.0  0.90233  0.57462  0.5480199999999997  1.0000
  H   H514      1.0  0.8956899999999999  0.4715700000000001  0.5463999999999998  1.0000
  C   C434      1.0  0.8620799999999995  0.52155  0.4924599999999999  1.0000
  H   H515      1.0  0.82522  0.49357  0.51232  1.0000
  H   H516      1.0  0.8532999999999995  0.55171  0.47522  1.0000
  H   H517      1.0  0.8686099999999998  0.49584000000000006  0.46787  1.0000
  H   H518      1.0  0.9437999999999998  0.53129  0.57796  1.0000
  C   C435      1.0  0.8341099999999998  0.51256  0.33125  1.0000
  C   C436      1.0  0.8135300000000001  0.5220600000000001  0.2912999999999999  1.0000
  C   C437      1.0  0.7675  0.53039  0.2920099999999999  1.0000
  C   C438      1.0  0.74302  0.53121  0.3317099999999999  1.0000
  C   C439      1.0  0.76394  0.52171  0.37165  1.0000
  C   C440      1.0  0.80924  0.51262  0.3707199999999999  1.0000
  H   H519      1.0  0.7500399999999999  0.53526  0.2614  1.0000
  H   H520      1.0  0.82484  0.50475  0.4010199999999999  1.0000
  C   C441      1.0  0.8402299999999996  0.52405  0.24762  1.0000
  C   C442      1.0  0.8661199999999998  0.58211  0.22636999999999993  1.0000
  H   H521      1.0  0.8337599999999997  0.59397  0.22008  1.0000
  H   H522      1.0  0.8830699999999996  0.58006  0.19413  1.0000
  H   H523      1.0  0.8724699999999997  0.5114800000000002  0.24983999999999995  1.0000
  C   C443      1.0  0.9132499999999999  0.62756  0.25422  1.0000
  H   H524      1.0  0.9446100000000001  0.6152500000000001  0.26296  1.0000
  H   H525      1.0  0.93421  0.6670400000000001  0.23533999999999994  1.0000
  H   H526      1.0  0.8964499999999997  0.63522  0.28464  1.0000
  H   H527      1.0  0.80737  0.4932200000000001  0.22501  1.0000
  C   C444      1.0  0.9516899999999995  0.57098  0.10426999999999997  1.0000
  H   H528      1.0  0.93056  0.56549  0.13604  1.0000
  H   H529      1.0  0.9349299999999997  0.52888  0.08899  1.0000
  C   C445      1.0  0.9374899999999999  0.60651  0.0743  1.0000
  H   H530      1.0  0.95456  0.6493900000000001  0.08811999999999998  1.0000
  H   H531      1.0  0.8914899999999999  0.58699  0.07100999999999998  1.0000
  C   C446      1.0  0.9628399999999999  0.04696000000000001  0.49628999999999995  1.0000
  C   C447      1.0  0.9627499999999998  0.04590000000000002  0.54245  1.0000
  H   H532      1.0  0.9283299999999998  0.04420000000000002  0.5601199999999998  1.0000
  C   C448      1.0  0.9305599999999999  0.07043  0.4727299999999999  1.0000
  C   C449      1.0  0.86716  0.03379000000000001  0.4780399999999999  1.0000
  H   H533      1.0  0.8561899999999998  0.028  0.5132399999999999  1.0000
  H   H534      1.0  0.8523499999999999  0.99171  0.4633599999999999  1.0000
  H   H535      1.0  0.9405399999999998  0.07643  0.4374  1.0000
  C   C450      1.0  0.8364599999999998  0.06084  0.4562799999999999  1.0000
  H   H536      1.0  0.8471899999999998  0.10068  0.47333  1.0000
  H   H537      1.0  0.7908599999999998  0.03225  0.45828  1.0000
  H   H538      1.0  0.8474899999999997  0.06968  0.4212199999999999  1.0000
  H   H539      1.0  0.9444699999999998  0.11289  0.48644  1.0000
  C   C451      1.0  0.9684199999999998  0.70468  0.37322  1.0000
  C   C452      1.0  0.9394699999999999  0.7170100000000001  0.40538  1.0000
  C   C453      1.0  0.9398299999999998  0.76815  0.40254  1.0000
  C   C454      1.0  0.9527799999999998  0.7972900000000002  0.3628099999999999  1.0000
  H   H540      1.0  0.9282399999999998  0.7841200000000002  0.43048  1.0000
  C   C455      1.0  0.90408  0.67384  0.43943  1.0000
  C   C456      1.0  0.8507399999999998  0.67413  0.4529199999999999  1.0000
  H   H541      1.0  0.8613699999999999  0.7127000000000001  0.47186  1.0000
  H   H542      1.0  0.8274699999999998  0.63837  0.47538999999999987  1.0000
  H   H543      1.0  0.8902  0.63106  0.42654999999999993  1.0000
  C   C457      1.0  0.81219  0.6677200000000001  0.41411  1.0000
  H   H544      1.0  0.81151  0.63802  0.38927  1.0000
  H   H545      1.0  0.7691100000000001  0.6517900000000001  0.42589999999999995  1.0000
  H   H546      1.0  0.8259399999999998  0.7087  0.39827999999999997  1.0000
  H   H547      1.0  0.9302000000000001  0.68048  0.46927  1.0000
  C   C458      1.0  0.9583400000000001  0.30391000000000007  0.3214399999999999  1.0000
  C   C459      1.0  0.95388  0.27013  0.28497  1.0000
  C   C460      1.0  0.9773999999999999  0.21377000000000002  0.33221  1.0000
  C   C461      1.0  0.97982  0.24608000000000002  0.36898  1.0000
  C   C462      1.0  0.9699699999999998  0.29084  0.3632199999999999  1.0000
  H   H548      1.0  0.9744099999999998  0.31749  0.39095  1.0000
  C   C463      1.0  0.9978199999999998  0.23637  0.4137399999999999  1.0000
  H   H549      1.0  0.07948  0.31175  0.41656  1.0000
  H   H550      1.0  0.9390799999999998  0.32004  0.23582999999999996  1.0000
  H   H551      1.0  0.97901  0.19081000000000006  0.42005  1.0000
  C   C464      1.0  0.83241  0.24399000000000007  0.2611399999999999  1.0000
  C   C465      1.0  0.0803  0.25046  0.4602499999999999  1.0000
  H   H552      1.0  0.8391599999999998  0.28674  0.25554  1.0000
  H   H553      1.0  0.78844  0.21302000000000004  0.2524999999999999  1.0000
  H   H554      1.0  0.83945  0.23913000000000004  0.29639  1.0000
  H   H555      1.0  0.06430000000000002  0.2626200000000001  0.4889199999999999  1.0000
  H   H556      1.0  0.9820499999999998  0.25287000000000004  0.4397999999999999  1.0000
  C   C466      1.0  0.6915199999999998  0.9812700000000002  0.3593  1.0000
  C   C467      1.0  0.6943499999999998  0.94283  0.38846999999999987  1.0000
  C   C468      1.0  0.7388599999999999  0.93242  0.38558  1.0000
  C   C469      1.0  0.7793100000000001  0.9584400000000001  0.35339  1.0000
  C   C470      1.0  0.77444  0.99425  0.3227299999999999  1.0000
  C   C471      1.0  0.7315199999999997  0.006590000000000002  0.32685  1.0000
  H   H557      1.0  0.7430599999999998  0.90548  0.40939  1.0000
  H   H558      1.0  0.72752  0.03390000000000001  0.30329  1.0000
  C   C472      1.0  0.81396  0.018210000000000004  0.2846199999999999  1.0000
  H   H559      1.0  0.7073500000000001  0.9500800000000003  0.47797  1.0000
  C   C473      1.0  0.8018400000000001  0.9729200000000002  0.24999999999999994  1.0000
  H   H560      1.0  0.7576  0.9533400000000001  0.23872999999999994  1.0000
  H   H561      1.0  0.8086300000000001  0.9397300000000001  0.26439  1.0000
  H   H562      1.0  0.8576799999999998  0.037570000000000006  0.29663  1.0000
  C   C474      1.0  0.66281  0.99557  0.46793999999999997  1.0000
  C   C475      1.0  0.8394599999999998  0.99729  0.2104  1.0000
  H   H563      1.0  0.6693399999999998  0.01214  0.50195  1.0000
  H   H564      1.0  0.69605  0.027740000000000004  0.44728  1.0000
  H   H565      1.0  0.8321699999999997  0.029200000000000004  0.19419999999999996  1.0000
  H   H566      1.0  0.8301499999999998  0.9633200000000002  0.18639  1.0000
  H   H567      1.0  0.8839799999999998  0.016850000000000004  0.22054  1.0000
  H   H568      1.0  0.8100599999999998  0.0526  0.26899  1.0000
  C   C476      1.0  0.9662799999999998  0.9514200000000002  0.15908999999999995  1.0000
  C   C477      1.0  0.9539599999999998  0.95533  0.20295999999999995  1.0000
  H   H569      1.0  0.9140699999999998  0.9243  0.21586999999999995  1.0000
  C   C478      1.0  0.92157  0.90532  0.13051  1.0000
  C   C479      1.0  0.9221300000000001  0.8502800000000003  0.13655  1.0000
  H   H570      1.0  0.9092399999999998  0.83486  0.17044  1.0000
  H   H571      1.0  0.9648699999999999  0.8573600000000002  0.13189  1.0000
  H   H572      1.0  0.9249199999999999  0.9173400000000003  0.09554999999999997  1.0000
  C   C480      1.0  0.88264  0.8050400000000002  0.10426999999999997  1.0000
  H   H573      1.0  0.84003  0.79931  0.10579999999999998  1.0000
  H   H574      1.0  0.8804399999999999  0.7647200000000002  0.11237999999999997  1.0000
  H   H575      1.0  0.8985499999999998  0.8166000000000002  0.07055999999999997  1.0000
  H   H576      1.0  0.88001  0.8983100000000003  0.14032  1.0000
