data_image0
_chemical_formula_structural       CaCd2C6O16C6N2C14H19C4N2C14H19CaCd2C6O15C6N2C14H19C4N2C14H19CaCd2C6O15C6N2C14H19C4N2C14H19CaCd2C6O14C6N2C14H19C4N2C14H19CaCd2C6O16C6N2C14H19C4N2C14H19CaCd2C6O15C6N2C14H19C4N2C14H19CaCd2C6O15C6N2C14H19C4N2C14H19CaCd2C6O14C6N2C14H19C4N2C14H19CaCd2C6O16C6N2C14H19C4N2C14H19CaCd2C6O15C6N2C14H19C4N2C14H19CaCd2C6O15C6N2C14H19C4N2C14H19CaCd2C6O14C6N2C14H19C4N2C14H19CaCd2C6O16C6N2C14H19C4N2C14H19CaCd2C6O15C6N2C14H19C4N2C14H19CaCd2C6O15C6N2C14H19C4N2C14H19CaCd2C6O14C6N2C14H19C4N2C14H19
_chemical_formula_sum              "Ca16 Cd32 C704 O240 N64 H608"
_cell_length_a       38.3575
_cell_length_b       26.536399999999997
_cell_length_c       25.582499999999996
_cell_angle_alpha    89.071
_cell_angle_beta     100.71
_cell_angle_gamma    125.019

_space_group_name_H-M_alt    "P 1"
_space_group_IT_number       1

loop_
  _space_group_symop_operation_xyz
  'x, y, z'

loop_
  _atom_site_type_symbol
  _atom_site_label
  _atom_site_symmetry_multiplicity
  _atom_site_fract_x
  _atom_site_fract_y
  _atom_site_fract_z
  _atom_site_occupancy
  Ca  Ca1       1.0  0.22089999999999999  0.11375  0.12663  1.0000
  Cd  Cd1       1.0  0.65421  0.57957  0.18458  1.0000
  Cd  Cd2       1.0  0.30111  0.19472999999999996  0.36702  1.0000
  C   C1        1.0  0.67925  0.13139  0.11163  1.0000
  C   C2        1.0  0.25327999999999995  0.28485  0.11680999999999998  1.0000
  C   C3        1.0  0.40812  0.31539  0.3910199999999999  1.0000
  C   C4        1.0  0.6394699999999999  0.65269  0.2116  1.0000
  C   C5        1.0  0.22873  0.10023000000000001  0.22962  1.0000
  C   C6        1.0  0.24145999999999995  0.11705  0.27728  1.0000
  O   O1        1.0  0.27987  0.09337999999999999  0.13749  1.0000
  O   O2        1.0  0.28  0.59236  0.38703  1.0000
  O   O3        1.0  0.62366  0.51714  0.12501  1.0000
  O   O4        1.0  0.59817  0.50796  0.20075999999999997  1.0000
  O   O5        1.0  0.65333  0.07311  0.11424  1.0000
  O   O6        1.0  0.6938499999999997  0.1649  0.15684  1.0000
  O   O7        1.0  0.26617  0.24278000000000002  0.11735  1.0000
  O   O8        1.0  0.2727  0.25488  0.36781  1.0000
  O   O9        1.0  0.37304  0.25876  0.11773999999999998  1.0000
  O   O10       1.0  0.37255  0.25924  0.36798  1.0000
  O   O11       1.0  0.6085799999999997  0.59442  0.44557  1.0000
  O   O12       1.0  0.67846  0.66634  0.21743000000000004  1.0000
  O   O13       1.0  0.24408999999999997  0.14575  0.20293  1.0000
  O   O14       1.0  0.68712  0.54943  0.21537  1.0000
  O   O15       1.0  0.21055  0.0892  0.3027  1.0000
  O   O16       1.0  0.28021  0.16854  0.29449  1.0000
  C   C7        1.0  0.27272  0.54171  0.10861  1.0000
  C   C8        1.0  0.5882299999999998  0.4845400000000001  0.15136  1.0000
  C   C9        1.0  0.43373  0.55548  0.17704  1.0000
  C   C10       1.0  0.41218999999999995  0.58069  0.18745999999999996  1.0000
  C   C11       1.0  0.38793  0.55809  0.22603  1.0000
  C   C12       1.0  0.3807599999999998  0.50599  0.24914  1.0000
  N   N1        1.0  0.3507399999999999  0.47911  0.28245  1.0000
  N   N2        1.0  0.3109199999999999  0.44926  0.26306  1.0000
  C   C13       1.0  0.2947199999999999  0.43796  0.20737  1.0000
  C   C14       1.0  0.2912899999999998  0.38825  0.18072  1.0000
  C   C15       1.0  0.27172  0.36441  0.12776  1.0000
  C   C16       1.0  0.26096  0.41208  0.10211999999999999  1.0000
  C   C17       1.0  0.27322  0.47716  0.12894  1.0000
  C   C18       1.0  0.28867  0.48137  0.18278999999999998  1.0000
  C   C19       1.0  0.3945999999999999  0.47312  0.22979  1.0000
  C   C20       1.0  0.42034  0.4971  0.19248  1.0000
  C   C21       1.0  0.48085999999999995  0.59983  0.18643999999999997  1.0000
  C   C22       1.0  0.50092  0.15451  0.15415  1.0000
  C   C23       1.0  0.54934  0.20331  0.18098  1.0000
  C   C24       1.0  0.59787  0.25092  0.17789  1.0000
  C   C25       1.0  0.62312  0.22346  0.1738  1.0000
  C   C26       1.0  0.63151  0.69828  0.22365  1.0000
  H   H1        1.0  0.42154  0.12508  0.1756  1.0000
  H   H2        1.0  0.37477999999999995  0.58136  0.23795999999999998  1.0000
  H   H3        1.0  0.30143  0.36349999999999993  0.20462  1.0000
  H   H4        1.0  0.24173  0.39777  0.06168  1.0000
  H   H5        1.0  0.29769  0.52142  0.2071  1.0000
  H   H6        1.0  0.38618  0.42991  0.24405  1.0000
  H   H7        1.0  0.43648999999999993  0.47645  0.18435  1.0000
  H   H8        1.0  0.49536999999999987  0.57459  0.18288000000000001  1.0000
  H   H9        1.0  0.48946999999999996  0.12082000000000001  0.22764  1.0000
  H   H10       1.0  0.48303  0.17546999999999996  0.148  1.0000
  H   H11       1.0  0.49508  0.63014  0.11794  1.0000
  H   H12       1.0  0.5540399999999999  0.16886  0.19399  1.0000
  H   H13       1.0  0.54529  0.22901  0.20923  1.0000
  H   H14       1.0  0.60285  0.28189  0.14785  1.0000
  H   H15       1.0  0.6149699999999998  0.28158999999999995  0.21593999999999997  1.0000
  H   H16       1.0  0.6015999999999998  0.18503  0.14446  1.0000
  H   H17       1.0  0.65385  0.25519  0.16077  1.0000
  H   H18       1.0  0.60309  0.67227  0.24015  1.0000
  H   H19       1.0  0.65823  0.23532  0.25416  1.0000
  C   C27       1.0  0.54931  0.23066000000000003  0.31093  1.0000
  C   C28       1.0  0.5057999999999999  0.20801000000000003  0.30291  1.0000
  C   C29       1.0  0.49274  0.2447  0.28726  1.0000
  C   C30       1.0  0.5211  0.29951  0.2681  1.0000
  N   N3        1.0  0.5024799999999999  0.3213  0.23095000000000002  1.0000
  N   N4        1.0  0.48269  0.34132  0.24448  1.0000
  C   C31       1.0  0.4876499999999999  0.35845  0.29824  1.0000
  C   C32       1.0  0.52947  0.40542  0.32563  1.0000
  C   C33       1.0  0.53793  0.43075  0.37645  1.0000
  C   C34       1.0  0.49841  0.40476999999999996  0.14881  1.0000
  C   C35       1.0  0.45366  0.34994999999999993  0.37220999999999993  1.0000
  C   C36       1.0  0.45167  0.32864  0.32174  1.0000
  C   C37       1.0  0.56556  0.3269  0.28003  1.0000
  C   C38       1.0  0.58004  0.29334  0.30399  1.0000
  C   C39       1.0  0.56246  0.18825000000000003  0.30776  1.0000
  C   C40       1.0  0.5361999999999998  0.11862  0.31763  1.0000
  C   C41       1.0  0.54074  0.57635  0.28439  1.0000
  C   C42       1.0  0.5782499999999999  0.57309  0.30698  1.0000
  C   C43       1.0  0.62077  0.63548  0.32821999999999996  1.0000
  C   C44       1.0  0.6643699999999998  0.15028  0.31998  1.0000
  H   H20       1.0  0.4802499999999999  0.16021  0.30109  1.0000
  H   H21       1.0  0.45868  0.22518000000000002  0.28101  1.0000
  H   H22       1.0  0.55609  0.42338  0.30567  1.0000
  H   H23       1.0  0.50182  0.42768  0.18568  1.0000
  H   H24       1.0  0.42136  0.28909  0.29914  1.0000
  H   H25       1.0  0.58834  0.37147  0.26807  1.0000
  H   H26       1.0  0.6143399999999998  0.31282  0.30946  1.0000
  H   H27       1.0  0.59751  0.21784  0.31376  1.0000
  H   H28       1.0  0.5552799999999998  0.17971999999999996  0.26792  1.0000
  H   H29       1.0  0.50105  0.59814  0.30348  1.0000
  H   H30       1.0  0.5406499999999997  0.11069  0.35969  1.0000
  H   H31       1.0  0.54314  0.58793  0.24388  1.0000
  H   H32       1.0  0.51076  0.52889  0.28151  1.0000
  H   H33       1.0  0.56863  0.54439  0.3399  1.0000
  H   H34       1.0  0.5816799999999998  0.54845  0.27663  1.0000
  H   H35       1.0  0.6242100000000002  0.17659  0.07023  1.0000
  H   H36       1.0  0.62359  0.64093  0.11933  1.0000
  H   H37       1.0  0.68868  0.19957  0.31646  1.0000
  H   H38       1.0  0.65486  0.61342  0.28699  1.0000
  Ca  Ca2       1.0  0.22055999999999998  0.1146  0.37592  1.0000
  Cd  Cd3       1.0  0.6542899999999999  0.5798600000000002  0.43387  1.0000
  Cd  Cd4       1.0  0.30163999999999996  0.19433999999999998  0.6165  1.0000
  C   C45       1.0  0.67996  0.13144  0.3634  1.0000
  C   C46       1.0  0.25285  0.28522  0.36751999999999996  1.0000
  C   C47       1.0  0.40855  0.31486  0.64068  1.0000
  C   C48       1.0  0.6393899999999999  0.6523899999999999  0.46197999999999995  1.0000
  C   C49       1.0  0.22787  0.09659999999999999  0.47957  1.0000
  C   C50       1.0  0.24119  0.11341  0.52739  1.0000
  O   O17       1.0  0.27874  0.09272999999999999  0.38587  1.0000
  O   O18       1.0  0.27984  0.59197  0.63621  1.0000
  O   O19       1.0  0.6230999999999999  0.51662  0.37433  1.0000
  O   O20       1.0  0.59832  0.50799  0.45035000000000003  1.0000
  O   O21       1.0  0.6527099999999998  0.07290000000000003  0.36526  1.0000
  O   O22       1.0  0.6951599999999999  0.16461  0.40888  1.0000
  O   O23       1.0  0.2658499999999999  0.24338999999999997  0.36783  1.0000
  O   O24       1.0  0.27313  0.25433  0.61718  1.0000
  O   O25       1.0  0.37293  0.25891  0.61747  1.0000
  O   O26       1.0  0.6087599999999999  0.5949  0.69513  1.0000
  O   O27       1.0  0.6784199999999999  0.66655  0.46669  1.0000
  O   O28       1.0  0.2437  0.14226  0.45301  1.0000
  O   O29       1.0  0.68823  0.55179  0.46622  1.0000
  O   O30       1.0  0.21051999999999998  0.08552999999999998  0.55331  1.0000
  O   O31       1.0  0.27980999999999995  0.16569  0.54406  1.0000
  C   C51       1.0  0.27278  0.54194  0.35844  1.0000
  C   C52       1.0  0.58796  0.48446  0.40092  1.0000
  C   C53       1.0  0.43396  0.55579  0.4272  1.0000
  C   C54       1.0  0.41229  0.58078  0.43759  1.0000
  C   C55       1.0  0.3883099999999999  0.55833  0.47641  1.0000
  C   C56       1.0  0.38115999999999994  0.50619  0.49941  1.0000
  N   N5        1.0  0.35102  0.47917  0.53255  1.0000
  N   N6        1.0  0.3112499999999999  0.44973999999999986  0.513  1.0000
  C   C57       1.0  0.29517  0.43871000000000004  0.45728  1.0000
  C   C58       1.0  0.29166000000000003  0.38903000000000004  0.43056  1.0000
  C   C59       1.0  0.2715599999999999  0.36482  0.37782  1.0000
  C   C60       1.0  0.26064999999999994  0.41227  0.3521500000000001  1.0000
  C   C61       1.0  0.27328  0.47754  0.37886  1.0000
  C   C62       1.0  0.28913  0.48212  0.43268  1.0000
  C   C63       1.0  0.39497  0.47334  0.47992  1.0000
  C   C64       1.0  0.42064  0.49739000000000005  0.44252  1.0000
  C   C65       1.0  0.48108  0.60039  0.43703  1.0000
  C   C66       1.0  0.5010099999999998  0.15471  0.40382999999999997  1.0000
  C   C67       1.0  0.54939  0.20344000000000004  0.43088  1.0000
  C   C68       1.0  0.59787  0.25112  0.42771  1.0000
  C   C69       1.0  0.62317  0.22377  0.42362  1.0000
  C   C70       1.0  0.63143  0.69797  0.47387  1.0000
  H   H39       1.0  0.42133  0.12491  0.42522  1.0000
  H   H40       1.0  0.37525  0.58164  0.48854  1.0000
  H   H41       1.0  0.30196  0.36436  0.45428  1.0000
  H   H42       1.0  0.24099999999999994  0.39771  0.31192  1.0000
  H   H43       1.0  0.29850999999999994  0.52244  0.45693  1.0000
  H   H44       1.0  0.3865799999999999  0.43011999999999995  0.49411  1.0000
  H   H45       1.0  0.43678999999999996  0.47680000000000006  0.43424  1.0000
  H   H46       1.0  0.49578  0.57534  0.43392  1.0000
  H   H47       1.0  0.48934  0.12075  0.4772  1.0000
  H   H48       1.0  0.48309  0.17565  0.39771  1.0000
  H   H49       1.0  0.4949999999999999  0.63021  0.36834999999999996  1.0000
  H   H50       1.0  0.55413  0.16907000000000003  0.44405999999999995  1.0000
  H   H51       1.0  0.54532  0.22918  0.45904999999999996  1.0000
  H   H52       1.0  0.60274  0.28201  0.39763  1.0000
  H   H53       1.0  0.61498  0.28177  0.46576  1.0000
  H   H54       1.0  0.6015999999999998  0.18524000000000002  0.39445  1.0000
  H   H55       1.0  0.65385  0.25549  0.41047  1.0000
  H   H56       1.0  0.60291  0.67204  0.49019  1.0000
  H   H57       1.0  0.65823  0.23573999999999998  0.50393  1.0000
  C   C71       1.0  0.54934  0.23078  0.56112  1.0000
  C   C72       1.0  0.50586  0.20833  0.55311  1.0000
  C   C73       1.0  0.4929199999999999  0.24508  0.53714  1.0000
  C   C74       1.0  0.52142  0.29977  0.51791  1.0000
  N   N7        1.0  0.50302  0.32179  0.48072  1.0000
  N   N8        1.0  0.48345  0.34219  0.49421  1.0000
  C   C75       1.0  0.4882899999999998  0.3591  0.54798  1.0000
  C   C76       1.0  0.5301  0.40596  0.57561  1.0000
  C   C77       1.0  0.53843  0.43079  0.62661  1.0000
  C   C78       1.0  0.49812  0.40512000000000004  0.39876999999999996  1.0000
  C   C79       1.0  0.45411999999999997  0.34967  0.62197  1.0000
  C   C80       1.0  0.4522599999999999  0.32882  0.57138  1.0000
  C   C81       1.0  0.56585  0.32706  0.53009  1.0000
  C   C82       1.0  0.58018  0.29341  0.55418  1.0000
  C   C83       1.0  0.56223  0.18814  0.55753  1.0000
  C   C84       1.0  0.53577  0.11845  0.56727  1.0000
  C   C85       1.0  0.5418  0.57674  0.53516  1.0000
  C   C86       1.0  0.58009  0.57501  0.55782  1.0000
  C   C87       1.0  0.62259  0.63804  0.57875  1.0000
  C   C88       1.0  0.66228  0.14732  0.56799  1.0000
  H   H58       1.0  0.4802499999999999  0.16058  0.55133  1.0000
  H   H59       1.0  0.45887999999999995  0.22567  0.53077  1.0000
  H   H60       1.0  0.5567800000000003  0.42418  0.55574  1.0000
  H   H61       1.0  0.50169  0.4282300000000001  0.43563  1.0000
  H   H62       1.0  0.42201  0.28932  0.54858  1.0000
  H   H63       1.0  0.58871  0.37161  0.51816  1.0000
  H   H64       1.0  0.6144599999999999  0.31274  0.55969  1.0000
  H   H65       1.0  0.5972400000000001  0.21748  0.56256  1.0000
  H   H66       1.0  0.55451  0.17946999999999996  0.51771  1.0000
  H   H67       1.0  0.50139  0.59782  0.55333  1.0000
  H   H68       1.0  0.54037  0.11048000000000001  0.6093  1.0000
  H   H69       1.0  0.5434599999999999  0.58733  0.4943  1.0000
  H   H70       1.0  0.5122  0.52903  0.53298  1.0000
  H   H71       1.0  0.57076  0.54654  0.59094  1.0000
  H   H72       1.0  0.5836999999999999  0.55032  0.52775  1.0000
  H   H73       1.0  0.6255699999999998  0.17827  0.31992  1.0000
  H   H74       1.0  0.6218  0.63781  0.36911  1.0000
  H   H75       1.0  0.6856599999999998  0.19570999999999997  0.56218  1.0000
  H   H76       1.0  0.6576599999999998  0.61775  0.5385  1.0000
  Ca  Ca3       1.0  0.22062999999999994  0.11291  0.62582  1.0000
  Cd  Cd5       1.0  0.6544300000000001  0.57975  0.68479  1.0000
  Cd  Cd6       1.0  0.30057  0.1948  0.86525  1.0000
  C   C89       1.0  0.6792  0.13083  0.61161  1.0000
  C   C90       1.0  0.25314  0.2845  0.61678  1.0000
  C   C91       1.0  0.40768999999999994  0.31541  0.89004  1.0000
  C   C92       1.0  0.63959  0.65283  0.71167  1.0000
  C   C93       1.0  0.22801000000000002  0.10037000000000003  0.7298600000000001  1.0000
  C   C94       1.0  0.24085  0.11957999999999999  0.7770299999999999  1.0000
  O   O32       1.0  0.28  0.09355  0.63662  1.0000
  O   O33       1.0  0.27932  0.59185  0.88479  1.0000
  O   O34       1.0  0.62385  0.51732  0.62519  1.0000
  O   O35       1.0  0.59829  0.50812  0.70084  1.0000
  O   O36       1.0  0.6529  0.07261  0.6143  1.0000
  O   O37       1.0  0.6940799999999999  0.16451999999999997  0.6567599999999999  1.0000
  O   O38       1.0  0.26593  0.24230999999999997  0.61716  1.0000
  O   O39       1.0  0.27098999999999995  0.25069  0.8802299999999998  1.0000
  O   O40       1.0  0.37198999999999993  0.25944  0.86699  1.0000
  O   O41       1.0  0.60859  0.59471  0.94574  1.0000
  O   O42       1.0  0.6786  0.66652  0.71753  1.0000
  O   O43       1.0  0.24365999999999996  0.14419  0.70155  1.0000
  O   O44       1.0  0.68757  0.54976  0.71543  1.0000
  O   O45       1.0  0.21070999999999998  0.09180000000000002  0.8032399999999998  1.0000
  O   O46       1.0  0.27873  0.17245  0.79303  1.0000
  C   C95       1.0  0.2727  0.54135  0.60806  1.0000
  C   C96       1.0  0.5883899999999997  0.48466  0.6514599999999999  1.0000
  C   C97       1.0  0.43379999999999996  0.55561  0.6769100000000001  1.0000
  C   C98       1.0  0.41221  0.58073  0.68737  1.0000
  C   C99       1.0  0.38813  0.55821  0.72609  1.0000
  C   C100      1.0  0.38108  0.50616  0.74915  1.0000
  N   N9        1.0  0.35099  0.47914  0.7822499999999999  1.0000
  N   N10       1.0  0.31125  0.4492900000000001  0.7625899999999999  1.0000
  C   C101      1.0  0.29507  0.4380299999999999  0.70693  1.0000
  C   C102      1.0  0.29148  0.38818  0.68035  1.0000
  C   C103      1.0  0.27166  0.3641  0.62748  1.0000
  C   C104      1.0  0.2608  0.41165  0.6018  1.0000
  C   C105      1.0  0.27318999999999993  0.47684999999999994  0.62851  1.0000
  C   C106      1.0  0.28884999999999994  0.48128999999999994  0.68236  1.0000
  C   C107      1.0  0.39481999999999995  0.47324  0.72969  1.0000
  C   C108      1.0  0.42045999999999994  0.49722  0.6922799999999999  1.0000
  C   C109      1.0  0.4809199999999999  0.60005  0.6865400000000002  1.0000
  C   C110      1.0  0.50089  0.15452999999999997  0.6539199999999998  1.0000
  C   C111      1.0  0.54929  0.20328  0.6809099999999999  1.0000
  C   C112      1.0  0.59777  0.25089  0.67768  1.0000
  C   C113      1.0  0.6229899999999999  0.22346  0.6733899999999999  1.0000
  C   C114      1.0  0.63158  0.69836  0.7237099999999999  1.0000
  H   H77       1.0  0.42144999999999994  0.12503  0.67528  1.0000
  H   H78       1.0  0.37495999999999996  0.5814  0.73812  1.0000
  H   H79       1.0  0.3016299999999999  0.36345  0.70426  1.0000
  H   H80       1.0  0.24129999999999996  0.39713  0.56151  1.0000
  H   H81       1.0  0.29796999999999996  0.52142  0.70666  1.0000
  H   H82       1.0  0.3863999999999999  0.43001000000000006  0.74392  1.0000
  H   H83       1.0  0.4365999999999999  0.4765899999999999  0.6841  1.0000
  H   H84       1.0  0.49548  0.57488  0.6830999999999999  1.0000
  H   H85       1.0  0.48923999999999995  0.12044  0.72724  1.0000
  H   H86       1.0  0.4829999999999999  0.1755  0.64781  1.0000
  H   H87       1.0  0.4951  0.63028  0.61804  1.0000
  H   H88       1.0  0.55401  0.16892  0.69416  1.0000
  H   H89       1.0  0.54524  0.22912  0.70904  1.0000
  H   H90       1.0  0.60269  0.28193  0.6477400000000001  1.0000
  H   H91       1.0  0.61492  0.2814900000000001  0.71577  1.0000
  H   H92       1.0  0.6014199999999997  0.18492000000000003  0.64417  1.0000
  H   H93       1.0  0.65365  0.25519  0.6601999999999999  1.0000
  H   H94       1.0  0.60312  0.6723  0.74015  1.0000
  H   H95       1.0  0.65824  0.23554999999999998  0.75366  1.0000
  C   C115      1.0  0.54929  0.23078  0.8111800000000001  1.0000
  C   C116      1.0  0.5057999999999999  0.20825  0.80323  1.0000
  C   C117      1.0  0.49279999999999996  0.24493000000000004  0.7873  1.0000
  C   C118      1.0  0.5212199999999999  0.2996  0.7680099999999999  1.0000
  N   N11       1.0  0.50272  0.32143  0.73074  1.0000
  N   N12       1.0  0.4829599999999999  0.34155  0.74413  1.0000
  C   C119      1.0  0.48773  0.35855  0.79787  1.0000
  C   C120      1.0  0.5295099999999999  0.40546999999999994  0.82548  1.0000
  C   C121      1.0  0.53777  0.43067  0.87629  1.0000
  C   C122      1.0  0.49849  0.40481  0.6487499999999999  1.0000
  C   C123      1.0  0.45337  0.34979  0.87153  1.0000
  C   C124      1.0  0.45161  0.32856  0.82114  1.0000
  C   C125      1.0  0.56567  0.32696  0.78009  1.0000
  C   C126      1.0  0.58008  0.29340000000000005  0.8041800000000001  1.0000
  C   C127      1.0  0.5621999999999999  0.18817  0.80759  1.0000
  C   C128      1.0  0.5357499999999998  0.11848999999999998  0.81734  1.0000
  C   C129      1.0  0.54076  0.57644  0.78453  1.0000
  C   C130      1.0  0.5783099999999998  0.5733  0.80715  1.0000
  C   C131      1.0  0.6209  0.63574  0.8282  1.0000
  C   C132      1.0  0.6621599999999997  0.14708  0.81775  1.0000
  H   H96       1.0  0.4802199999999999  0.16048  0.80143  1.0000
  H   H97       1.0  0.45874  0.22544  0.78094  1.0000
  H   H98       1.0  0.55624  0.4235  0.80572  1.0000
  H   H99       1.0  0.50184  0.42771  0.68559  1.0000
  H   H100      1.0  0.42139  0.28903  0.7983499999999999  1.0000
  H   H101      1.0  0.58847  0.37149  0.76809  1.0000
  H   H102      1.0  0.6143599999999999  0.31277  0.80962  1.0000
  H   H103      1.0  0.5972  0.21749  0.81256  1.0000
  H   H104      1.0  0.5544099999999998  0.17948  0.76777  1.0000
  H   H105      1.0  0.50104  0.59821  0.80347  1.0000
  H   H106      1.0  0.54034  0.11049000000000002  0.8593599999999999  1.0000
  H   H107      1.0  0.54318  0.588  0.7440199999999999  1.0000
  H   H108      1.0  0.51082  0.5289500000000001  0.78167  1.0000
  H   H109      1.0  0.56874  0.54475  0.84017  1.0000
  H   H110      1.0  0.58166  0.5485  0.77685  1.0000
  H   H111      1.0  0.62441  0.17663  0.56977  1.0000
  H   H112      1.0  0.6235  0.64079  0.61941  1.0000
  H   H113      1.0  0.68577  0.19548  0.81211  1.0000
  H   H114      1.0  0.6547299999999999  0.61321  0.78695  1.0000
  Ca  Ca4       1.0  0.22145000000000004  0.11599  0.8770399999999999  1.0000
  Cd  Cd7       1.0  0.65422  0.58004  0.93406  1.0000
  Cd  Cd8       1.0  0.3017  0.19443999999999997  0.11704  1.0000
  C   C133      1.0  0.67878  0.13013  0.86135  1.0000
  C   C134      1.0  0.26876999999999995  0.29517  0.85449  1.0000
  C   C135      1.0  0.4085199999999999  0.31491  0.14089  1.0000
  C   C136      1.0  0.6393899999999999  0.65271  0.962  1.0000
  C   C137      1.0  0.22778  0.09571000000000002  0.98054  1.0000
  C   C138      1.0  0.24130999999999997  0.11284  0.02833  1.0000
  O   O47       1.0  0.27953999999999996  0.09347999999999997  0.8857299999999999  1.0000
  O   O48       1.0  0.27991  0.59271  0.13605  1.0000
  O   O49       1.0  0.6230699999999999  0.51677  0.87457  1.0000
  O   O50       1.0  0.59806  0.50804  0.95039  1.0000
  O   O51       1.0  0.65201  0.07185000000000001  0.8640499999999999  1.0000
  O   O52       1.0  0.6937099999999999  0.16398  0.9063999999999999  1.0000
  O   O53       1.0  0.27104000000000006  0.24823000000000003  0.88179  1.0000
  O   O54       1.0  0.27339  0.2548  0.11747  1.0000
  O   O55       1.0  0.60859  0.5948  0.19494  1.0000
  O   O56       1.0  0.67841  0.66685  0.96671  1.0000
  O   O57       1.0  0.24403  0.14115999999999998  0.9539799999999999  1.0000
  O   O58       1.0  0.68849  0.55234  0.96602  1.0000
  O   O59       1.0  0.21081  0.08518  0.05442  1.0000
  O   O60       1.0  0.27986999999999995  0.16538  0.04473  1.0000
  C   C139      1.0  0.2730199999999999  0.54151  0.8569699999999999  1.0000
  C   C140      1.0  0.5878  0.4844800000000001  0.90099  1.0000
  C   C141      1.0  0.43313999999999997  0.55555  0.9277999999999998  1.0000
  C   C142      1.0  0.4108599999999999  0.57978  0.93757  1.0000
  C   C143      1.0  0.38489  0.55501  0.97431  1.0000
  C   C144      1.0  0.37702  0.50194  0.9961  1.0000
  N   N13       1.0  0.34769  0.47498  0.03037  1.0000
  N   N14       1.0  0.3075899999999999  0.44405  0.01239  1.0000
  C   C145      1.0  0.28980999999999996  0.43172  0.95703  1.0000
  C   C146      1.0  0.28445  0.38008  0.93073  1.0000
  C   C147      1.0  0.27029  0.36158  0.87633  1.0000
  C   C148      1.0  0.26348  0.4129  0.85011  1.0000
  C   C149      1.0  0.27276  0.47578  0.8778  1.0000
  C   C150      1.0  0.28533999999999987  0.47684  0.9322899999999998  1.0000
  C   C151      1.0  0.39218999999999987  0.47056999999999993  0.97747  1.0000
  C   C152      1.0  0.4195799999999999  0.49668  0.9420499999999999  1.0000
  C   C153      1.0  0.48031  0.60057  0.93799  1.0000
  C   C154      1.0  0.5007699999999999  0.1544  0.90403  1.0000
  C   C155      1.0  0.5491999999999998  0.20316000000000004  0.93098  1.0000
  C   C156      1.0  0.5976799999999998  0.25081  0.92771  1.0000
  C   C157      1.0  0.62291  0.22341  0.92345  1.0000
  C   C158      1.0  0.6314  0.69825  0.9738900000000001  1.0000
  H   H115      1.0  0.42158  0.12525  0.92592  1.0000
  H   H116      1.0  0.3718  0.57814  0.98672  1.0000
  H   H117      1.0  0.29398  0.35457  0.95454  1.0000
  H   H118      1.0  0.24906  0.40262  0.80789  1.0000
  H   H119      1.0  0.2944  0.51657  0.95715  1.0000
  H   H120      1.0  0.3842699999999999  0.42756  0.9916799999999999  1.0000
  H   H121      1.0  0.43649999999999994  0.47700000000000004  0.93457  1.0000
  H   H122      1.0  0.49511  0.57554  0.93601  1.0000
  H   H123      1.0  0.48906  0.12039000000000001  0.97738  1.0000
  H   H124      1.0  0.48290999999999995  0.17541  0.89785  1.0000
  H   H125      1.0  0.49402  0.62838  0.8686  1.0000
  H   H126      1.0  0.55393  0.1688  0.9443  1.0000
  H   H127      1.0  0.54518  0.22909  0.95906  1.0000
  H   H128      1.0  0.60261  0.28184  0.8977499999999999  1.0000
  H   H129      1.0  0.61486  0.28145  0.96578  1.0000
  H   H130      1.0  0.6013599999999999  0.18487  0.89423  1.0000
  H   H131      1.0  0.65356  0.25512  0.91024  1.0000
  H   H132      1.0  0.6028899999999998  0.67234  0.99021  1.0000
  H   H133      1.0  0.65825  0.2356  0.00364  1.0000
  C   C159      1.0  0.5493700000000001  0.23095000000000002  0.06135  1.0000
  C   C160      1.0  0.50589  0.20845999999999998  0.05341  1.0000
  C   C161      1.0  0.49289999999999995  0.24515  0.03736  1.0000
  C   C162      1.0  0.52134  0.29977  0.018  1.0000
  N   N15       1.0  0.50287  0.32169  0.98075  1.0000
  N   N16       1.0  0.48327999999999993  0.34207  0.9942  1.0000
  C   C163      1.0  0.48813  0.35904  0.04796999999999999  1.0000
  C   C164      1.0  0.52994  0.40589  0.07557  1.0000
  C   C165      1.0  0.5382999999999999  0.43072000000000005  0.12657  1.0000
  C   C166      1.0  0.49777  0.40494  0.89829  1.0000
  C   C167      1.0  0.45403  0.34965  0.12207  1.0000
  C   C168      1.0  0.45211999999999997  0.32879  0.07144  1.0000
  C   C169      1.0  0.5657799999999998  0.3271  0.03012  1.0000
  C   C170      1.0  0.58017  0.29354  0.05429  1.0000
  C   C171      1.0  0.56222  0.18829  0.05763  1.0000
  C   C172      1.0  0.5358200000000001  0.11861  0.06742  1.0000
  C   C173      1.0  0.5418299999999999  0.57667  0.03503  1.0000
  C   C174      1.0  0.58006  0.57494  0.05792  1.0000
  C   C175      1.0  0.62259  0.63802  0.07866  1.0000
  C   C176      1.0  0.66215  0.14761  0.06799  1.0000
  H   H134      1.0  0.4802999999999999  0.1607  0.05167  1.0000
  H   H135      1.0  0.45885999999999993  0.2257  0.03104  1.0000
  H   H136      1.0  0.5566199999999999  0.42407  0.05569000000000001  1.0000
  H   H137      1.0  0.5011099999999999  0.42806  0.93498  1.0000
  H   H138      1.0  0.42184999999999995  0.28932  0.04866  1.0000
  H   H139      1.0  0.5885999999999998  0.3716  0.01809  1.0000
  H   H140      1.0  0.61445  0.31287  0.059699999999999996  1.0000
  H   H141      1.0  0.59719  0.21759000000000003  0.0621  1.0000
  H   H142      1.0  0.55413  0.17941  0.01783  1.0000
  H   H143      1.0  0.50133  0.59772  0.05304999999999999  1.0000
  H   H144      1.0  0.5405099999999999  0.11069  0.10944  1.0000
  H   H145      1.0  0.54369  0.58727  0.9942  1.0000
  H   H146      1.0  0.51221  0.52896  0.03279  1.0000
  H   H147      1.0  0.57069  0.54667  0.09115  1.0000
  H   H148      1.0  0.58363  0.55005  0.02799  1.0000
  H   H149      1.0  0.62454  0.17687  0.81961  1.0000
  H   H150      1.0  0.6219899999999999  0.63822  0.86912  1.0000
  H   H151      1.0  0.68538  0.196  0.06209  1.0000
  H   H152      1.0  0.65746  0.61747  0.0383  1.0000
  Ca  Ca5       1.0  0.22073999999999996  0.61346  0.12703  1.0000
  Cd  Cd9       1.0  0.6544199999999999  0.08003  0.18372999999999998  1.0000
  Cd  Cd10      1.0  0.30156  0.69457  0.36724  1.0000
  C   C177      1.0  0.6797799999999999  0.63127  0.11344  1.0000
  C   C178      1.0  0.25309  0.78465  0.11713  1.0000
  C   C179      1.0  0.40861  0.8154699999999999  0.39115  1.0000
  C   C180      1.0  0.6394499999999997  0.15249  0.21185  1.0000
  C   C181      1.0  0.2278  0.59842  0.22999999999999998  1.0000
  C   C182      1.0  0.24132999999999996  0.61418  0.27792  1.0000
  O   O61       1.0  0.27988  0.59332  0.13806  1.0000
  O   O62       1.0  0.2784299999999999  0.09084  0.38638  1.0000
  O   O63       1.0  0.6233899999999999  0.01673  0.12424  1.0000
  O   O64       1.0  0.59845  0.00806  0.20016  1.0000
  O   O65       1.0  0.6524399999999999  0.5727  0.11517  1.0000
  O   O66       1.0  0.6949499999999998  0.66435  0.15897  1.0000
  O   O67       1.0  0.26589999999999997  0.7425  0.11756  1.0000
  O   O68       1.0  0.27232  0.7534000000000001  0.36821  1.0000
  O   O69       1.0  0.37263999999999997  0.75923  0.11736  1.0000
  O   O70       1.0  0.37283  0.7596600000000001  0.36787  1.0000
  O   O71       1.0  0.60884  0.09494999999999999  0.4450299999999999  1.0000
  O   O72       1.0  0.6784999999999999  0.1667  0.21661  1.0000
  O   O73       1.0  0.24330999999999997  0.64439  0.20375  1.0000
  O   O74       1.0  0.68839  0.05204  0.216  1.0000
  O   O75       1.0  0.21089999999999998  0.58506  0.30411  1.0000
  O   O76       1.0  0.27983  0.66647  0.29477  1.0000
  C   C183      1.0  0.27266  0.04153  0.10855  1.0000
  C   C184      1.0  0.58821  0.98447  0.15078  1.0000
  C   C185      1.0  0.43392999999999987  0.05572  0.17736  1.0000
  C   C186      1.0  0.4122699999999999  0.08075  0.18771  1.0000
  C   C187      1.0  0.38805  0.0581  0.22631  1.0000
  C   C188      1.0  0.38089  0.005950000000000004  0.24934  1.0000
  N   N17       1.0  0.35081  0.97895  0.2826  1.0000
  N   N18       1.0  0.31099000000000004  0.94911  0.26317  1.0000
  C   C189      1.0  0.2948399999999999  0.9379  0.20743  1.0000
  C   C190      1.0  0.29144999999999993  0.8882499999999999  0.18074  1.0000
  C   C191      1.0  0.27165  0.8642500000000001  0.12785  1.0000
  C   C192      1.0  0.26082  0.91183  0.1022  1.0000
  C   C193      1.0  0.27319  0.977  0.12894  1.0000
  C   C194      1.0  0.28879  0.98132  0.18281000000000003  1.0000
  C   C195      1.0  0.39477999999999996  0.97317  0.22991999999999999  1.0000
  C   C196      1.0  0.4205499999999999  0.9973  0.19263999999999998  1.0000
  C   C197      1.0  0.48105  0.10023000000000001  0.18702  1.0000
  C   C198      1.0  0.50087  0.65432  0.15381  1.0000
  C   C199      1.0  0.54923  0.70314  0.18093  1.0000
  C   C200      1.0  0.5976999999999999  0.75085  0.1777  1.0000
  C   C201      1.0  0.62298  0.72348  0.17362  1.0000
  C   C202      1.0  0.63141  0.19797  0.22379  1.0000
  H   H153      1.0  0.42153  0.62505  0.17537  1.0000
  H   H154      1.0  0.37492  0.08136  0.23832  1.0000
  H   H155      1.0  0.30171999999999993  0.86357  0.20455  1.0000
  H   H156      1.0  0.24136999999999986  0.8973399999999999  0.06188  1.0000
  H   H157      1.0  0.29796  0.021469999999999996  0.20712  1.0000
  H   H158      1.0  0.38638000000000006  0.9299400000000001  0.24408  1.0000
  H   H159      1.0  0.43672  0.97671  0.18441  1.0000
  H   H160      1.0  0.49569999999999986  0.07513999999999998  0.18378999999999998  1.0000
  H   H161      1.0  0.48927999999999994  0.62019  0.22714  1.0000
  H   H162      1.0  0.4829599999999999  0.67526  0.14768  1.0000
  H   H163      1.0  0.4949599999999999  0.13014  0.11834  1.0000
  H   H164      1.0  0.554  0.66882  0.19431000000000004  1.0000
  H   H165      1.0  0.54513  0.72898  0.20898  1.0000
  H   H166      1.0  0.60258  0.78173  0.14761  1.0000
  H   H167      1.0  0.61484  0.7815599999999999  0.21572  1.0000
  H   H168      1.0  0.6012799999999999  0.68485  0.14455  1.0000
  H   H169      1.0  0.65358  0.7551000000000001  0.16027  1.0000
  H   H170      1.0  0.60286  0.1719  0.24003  1.0000
  H   H171      1.0  0.65832  0.73581  0.25386  1.0000
  C   C203      1.0  0.5493599999999998  0.73096  0.31128  1.0000
  C   C204      1.0  0.5058799999999999  0.70847  0.30336  1.0000
  C   C205      1.0  0.49289999999999995  0.7452  0.28746  1.0000
  C   C206      1.0  0.5213299999999998  0.7998700000000001  0.26816  1.0000
  N   N19       1.0  0.50286  0.82177  0.23093999999999998  1.0000
  N   N20       1.0  0.48332999999999987  0.84224  0.24440999999999996  1.0000
  C   C207      1.0  0.48823999999999995  0.85934  0.29816  1.0000
  C   C208      1.0  0.5300999999999999  0.9060999999999999  0.32574  1.0000
  C   C209      1.0  0.53849  0.93103  0.37672  1.0000
  C   C210      1.0  0.49841  0.90466  0.14859  1.0000
  C   C211      1.0  0.45413  0.85024  0.37218  1.0000
  C   C212      1.0  0.4521799999999999  0.82937  0.32154  1.0000
  C   C213      1.0  0.56577  0.82715  0.28016  1.0000
  C   C214      1.0  0.58016  0.79356  0.30424  1.0000
  C   C215      1.0  0.5622499999999999  0.68833  0.30766  1.0000
  C   C216      1.0  0.53578  0.61862  0.31736  1.0000
  C   C217      1.0  0.54181  0.07671  0.28524  1.0000
  C   C218      1.0  0.5800999999999998  0.07495  0.30779  1.0000
  C   C219      1.0  0.6226499999999999  0.13798000000000002  0.32856  1.0000
  C   C220      1.0  0.6619  0.64728  0.31818  1.0000
  H   H172      1.0  0.4802999999999999  0.66071  0.30162  1.0000
  H   H173      1.0  0.45885999999999993  0.72577  0.28117  1.0000
  H   H174      1.0  0.5567700000000001  0.92415  0.30586  1.0000
  H   H175      1.0  0.5019  0.92755  0.18552  1.0000
  H   H176      1.0  0.42187  0.79004  0.29871  1.0000
  H   H177      1.0  0.58858  0.87163  0.2681  1.0000
  H   H178      1.0  0.61443  0.8128800000000002  0.3096  1.0000
  H   H179      1.0  0.59725  0.71766  0.31239  1.0000
  H   H180      1.0  0.5543299999999999  0.6796  0.26785  1.0000
  H   H181      1.0  0.50145  0.09783  0.30344  1.0000
  H   H182      1.0  0.54049  0.61066  0.35936999999999997  1.0000
  H   H183      1.0  0.54338  0.08725  0.24435  1.0000
  H   H184      1.0  0.51221  0.02901  0.28313  1.0000
  H   H185      1.0  0.5708499999999999  0.04657999999999999  0.34097999999999995  1.0000
  H   H186      1.0  0.58361  0.05017  0.27767  1.0000
  H   H187      1.0  0.62557  0.67838  0.07014  1.0000
  H   H188      1.0  0.62219  0.13844  0.11900999999999999  1.0000
  H   H189      1.0  0.6850799999999999  0.69569  0.31227  1.0000
  H   H190      1.0  0.65758  0.1174  0.28825  1.0000
  Ca  Ca6       1.0  0.22029  0.61194  0.37688  1.0000
  Cd  Cd11      1.0  0.65454  0.07989  0.43468  1.0000
  Cd  Cd12      1.0  0.30157  0.69421  0.61651  1.0000
  C   C221      1.0  0.6791099999999998  0.63129  0.36182  1.0000
  C   C222      1.0  0.2520899999999999  0.7831699999999999  0.36812  1.0000
  C   C223      1.0  0.40835999999999995  0.81485  0.6406999999999999  1.0000
  C   C224      1.0  0.6396299999999998  0.1529  0.4615  1.0000
  C   C225      1.0  0.22716  0.59684  0.47973  1.0000
  C   C226      1.0  0.24096999999999996  0.61308  0.52756  1.0000
  O   O77       1.0  0.28026999999999996  0.59404  0.38715999999999995  1.0000
  O   O78       1.0  0.27974  0.09188  0.63648  1.0000
  O   O79       1.0  0.62392  0.01730000000000001  0.37517  1.0000
  O   O80       1.0  0.59847  0.008269999999999998  0.45089  1.0000
  O   O81       1.0  0.6534  0.57303  0.36446  1.0000
  O   O82       1.0  0.6936700000000001  0.66481  0.40701  1.0000
  O   O83       1.0  0.2651899999999999  0.74136  0.36834999999999996  1.0000
  O   O84       1.0  0.27312000000000003  0.7542500000000001  0.61724  1.0000
  O   O85       1.0  0.37276000000000004  0.75892  0.61744  1.0000
  O   O86       1.0  0.60864  0.09471000000000002  0.69477  1.0000
  O   O87       1.0  0.67867  0.16674  0.46723999999999993  1.0000
  O   O88       1.0  0.24259999999999998  0.64263  0.45338  1.0000
  O   O89       1.0  0.68767  0.050100000000000006  0.46573  1.0000
  O   O90       1.0  0.21062  0.58472  0.55386  1.0000
  O   O91       1.0  0.27959  0.66542  0.54407  1.0000
  C   C227      1.0  0.27043  0.03961  0.35782  1.0000
  C   C228      1.0  0.58849  0.9847700000000001  0.40151  1.0000
  C   C229      1.0  0.43394  0.05579  0.42674  1.0000
  C   C230      1.0  0.41244999999999993  0.08087  0.43772  1.0000
  C   C231      1.0  0.38926  0.058950000000000016  0.47735  1.0000
  C   C232      1.0  0.38227999999999995  0.006840000000000003  0.50022  1.0000
  N   N21       1.0  0.3517399999999999  0.9792  0.53273  1.0000
  N   N22       1.0  0.31207  0.94924  0.51245  1.0000
  C   C233      1.0  0.29645  0.93859  0.45657  1.0000
  C   C234      1.0  0.29257999999999995  0.8885799999999999  0.42985999999999996  1.0000
  C   C235      1.0  0.2704699999999999  0.8626999999999999  0.3779  1.0000
  C   C236      1.0  0.25809  0.9089600000000001  0.35275  1.0000
  C   C237      1.0  0.27184  0.97551  0.37853  1.0000
  C   C238      1.0  0.28986  0.98162  0.43193  1.0000
  C   C239      1.0  0.39584999999999987  0.9738899999999999  0.48028  1.0000
  C   C240      1.0  0.42079999999999995  0.9974900000000001  0.44214  1.0000
  C   C241      1.0  0.48105  0.10034  0.43654  1.0000
  C   C242      1.0  0.50098  0.65462  0.40414  1.0000
  C   C243      1.0  0.5494099999999998  0.7034  0.43097  1.0000
  C   C244      1.0  0.5979399999999999  0.75095  0.42785999999999996  1.0000
  C   C245      1.0  0.62315  0.72342  0.42382999999999993  1.0000
  C   C246      1.0  0.63154  0.19833  0.47354  1.0000
  H   H191      1.0  0.42149999999999993  0.62507  0.42540999999999995  1.0000
  H   H192      1.0  0.37630999999999987  0.08226  0.48987  1.0000
  H   H193      1.0  0.30367999999999995  0.8645599999999999  0.45328  1.0000
  H   H194      1.0  0.23588  0.89179  0.31411  1.0000
  H   H195      1.0  0.2997999999999999  0.02236  0.45597  1.0000
  H   H196      1.0  0.38753999999999994  0.9306799999999998  0.49441  1.0000
  H   H197      1.0  0.4367  0.97673  0.43329  1.0000
  H   H198      1.0  0.49572  0.0753  0.43322  1.0000
  H   H199      1.0  0.4894  0.621  0.47761  1.0000
  H   H200      1.0  0.4831  0.6756  0.3979599999999999  1.0000
  H   H201      1.0  0.49512999999999996  0.13039  0.36801  1.0000
  H   H202      1.0  0.55409  0.66895  0.44403999999999993  1.0000
  H   H203      1.0  0.54538  0.7291599999999999  0.45918999999999993  1.0000
  H   H204      1.0  0.60291  0.7818600000000001  0.39777  1.0000
  H   H205      1.0  0.61504  0.78166  0.46589  1.0000
  H   H206      1.0  0.6015999999999998  0.68496  0.3945199999999999  1.0000
  H   H207      1.0  0.6538699999999998  0.75509  0.41078  1.0000
  H   H208      1.0  0.60298  0.17206  0.48978  1.0000
  H   H209      1.0  0.6582899999999999  0.73533  0.50419  1.0000
  C   C247      1.0  0.54931  0.73069  0.56102  1.0000
  C   C248      1.0  0.5057999999999999  0.70807  0.553  1.0000
  C   C249      1.0  0.49277  0.74475  0.53715  1.0000
  C   C250      1.0  0.52118  0.79949  0.51793  1.0000
  N   N23       1.0  0.5026699999999998  0.82135  0.4807  1.0000
  N   N24       1.0  0.48306  0.84169  0.49415999999999993  1.0000
  C   C251      1.0  0.4879499999999999  0.8587499999999999  0.54791  1.0000
  C   C252      1.0  0.52974  0.90567  0.57545  1.0000
  C   C253      1.0  0.5381  0.93063  0.6264  1.0000
  C   C254      1.0  0.49860000000000004  0.9052400000000002  0.39893  1.0000
  C   C255      1.0  0.45386999999999994  0.84963  0.62192  1.0000
  C   C256      1.0  0.4519599999999999  0.82863  0.57136  1.0000
  C   C257      1.0  0.5656199999999999  0.82691  0.53003  1.0000
  C   C258      1.0  0.58006  0.7933600000000001  0.55408  1.0000
  C   C259      1.0  0.5624099999999999  0.68825  0.55773  1.0000
  C   C260      1.0  0.53614  0.6186  0.56753  1.0000
  C   C261      1.0  0.54093  0.07629  0.5345  1.0000
  C   C262      1.0  0.57861  0.0734  0.55716  1.0000
  C   C263      1.0  0.62122  0.13598  0.57785  1.0000
  C   C264      1.0  0.66436  0.65051  0.57025  1.0000
  H   H210      1.0  0.4802499999999999  0.66029  0.55121  1.0000
  H   H211      1.0  0.45871  0.7252700000000001  0.53086  1.0000
  H   H212      1.0  0.5564  0.92381  0.55553  1.0000
  H   H213      1.0  0.5021  0.92819  0.43583  1.0000
  H   H214      1.0  0.42171  0.78909  0.54863  1.0000
  H   H215      1.0  0.58842  0.87148  0.51808  1.0000
  H   H216      1.0  0.61436  0.8128200000000001  0.55957  1.0000
  H   H217      1.0  0.5974299999999999  0.71782  0.56342  1.0000
  H   H218      1.0  0.5550699999999998  0.67967  0.51788  1.0000
  H   H219      1.0  0.50104  0.09791999999999998  0.55326  1.0000
  H   H220      1.0  0.54055  0.61061  0.60957  1.0000
  H   H221      1.0  0.5432199999999999  0.08763999999999998  0.49391999999999997  1.0000
  H   H222      1.0  0.51106  0.02876  0.5318  1.0000
  H   H223      1.0  0.56919  0.0451  0.59036  1.0000
  H   H224      1.0  0.5819099999999999  0.04847  0.52694  1.0000
  H   H225      1.0  0.62393  0.67615  0.32036  1.0000
  H   H226      1.0  0.62364  0.1409  0.36925  1.0000
  H   H227      1.0  0.68865  0.69984  0.56682  1.0000
  H   H228      1.0  0.65509  0.11344  0.53673  1.0000
  Ca  Ca7       1.0  0.22089999999999999  0.61277  0.626  1.0000
  Cd  Cd13      1.0  0.6542699999999997  0.07984999999999999  0.6836999999999999  1.0000
  Cd  Cd14      1.0  0.3002999999999999  0.69504  0.86496  1.0000
  C   C265      1.0  0.67989  0.63149  0.61361  1.0000
  C   C266      1.0  0.25317  0.78446  0.61688  1.0000
  C   C267      1.0  0.40763000000000005  0.8152500000000001  0.89035  1.0000
  C   C268      1.0  0.6394999999999998  0.15268999999999996  0.71115  1.0000
  C   C269      1.0  0.22857999999999998  0.6012  0.72968  1.0000
  C   C270      1.0  0.24072000000000005  0.6207100000000001  0.77665  1.0000
  O   O92       1.0  0.28001999999999994  0.59327  0.63695  1.0000
  O   O93       1.0  0.27938  0.09216  0.88487  1.0000
  O   O94       1.0  0.62319  0.016620000000000003  0.62445  1.0000
  O   O95       1.0  0.5983299999999999  0.008019999999999982  0.7004099999999999  1.0000
  O   O96       1.0  0.65257  0.57294  0.61538  1.0000
  O   O97       1.0  0.69514  0.66454  0.65916  1.0000
  O   O98       1.0  0.26589999999999997  0.74217  0.61723  1.0000
  O   O99       1.0  0.2706799999999999  0.7511199999999999  0.88028  1.0000
  O   O100      1.0  0.37160999999999983  0.76009  0.86625  1.0000
  O   O101      1.0  0.60841  0.09468000000000001  0.94468  1.0000
  O   O102      1.0  0.6785299999999999  0.16657999999999998  0.71653  1.0000
  O   O103      1.0  0.24435  0.64486  0.70127  1.0000
  O   O104      1.0  0.68781  0.051  0.71547  1.0000
  O   O105      1.0  0.21023999999999995  0.59302  0.8023099999999999  1.0000
  O   O106      1.0  0.27861  0.67333  0.79296  1.0000
  C   C271      1.0  0.2727  0.04147999999999999  0.60803  1.0000
  C   C272      1.0  0.5880499999999997  0.9843800000000001  0.6510199999999999  1.0000
  C   C273      1.0  0.43378999999999995  0.055610000000000014  0.67693  1.0000
  C   C274      1.0  0.4122  0.08072  0.6874  1.0000
  C   C275      1.0  0.3881799999999999  0.05825999999999997  0.7261799999999999  1.0000
  C   C276      1.0  0.38113  0.0062300000000000055  0.74926  1.0000
  N   N25       1.0  0.35103000000000006  0.9792100000000001  0.78234  1.0000
  N   N26       1.0  0.31128000000000006  0.9494000000000001  0.76265  1.0000
  C   C277      1.0  0.29513999999999996  0.9381500000000002  0.70697  1.0000
  C   C278      1.0  0.2915499999999999  0.8882800000000001  0.68042  1.0000
  C   C279      1.0  0.27172  0.86414  0.62755  1.0000
  C   C280      1.0  0.26093999999999995  0.9118  0.60183  1.0000
  C   C281      1.0  0.27328  0.977  0.62851  1.0000
  C   C282      1.0  0.2889  0.98141  0.68238  1.0000
  C   C283      1.0  0.3948699999999999  0.9732899999999998  0.72979  1.0000
  C   C284      1.0  0.42045999999999994  0.99723  0.69233  1.0000
  C   C285      1.0  0.48090999999999995  0.10007000000000002  0.68657  1.0000
  C   C286      1.0  0.5009299999999999  0.65451  0.65389  1.0000
  C   C287      1.0  0.5493  0.70325  0.6810000000000002  1.0000
  C   C288      1.0  0.59777  0.75097  0.67778  1.0000
  C   C289      1.0  0.62306  0.7236199999999999  0.6737  1.0000
  C   C290      1.0  0.63147  0.19812000000000002  0.72332  1.0000
  H   H229      1.0  0.4214799999999999  0.62506  0.67528  1.0000
  H   H230      1.0  0.3750299999999999  0.08148  0.73823  1.0000
  H   H231      1.0  0.3017599999999999  0.86362  0.70436  1.0000
  H   H232      1.0  0.24158999999999997  0.8973700000000001  0.56147  1.0000
  H   H233      1.0  0.29796999999999996  0.021509999999999994  0.70671  1.0000
  H   H234      1.0  0.38644999999999996  0.9300700000000002  0.74403  1.0000
  H   H235      1.0  0.4365999999999999  0.97659  0.68412  1.0000
  H   H236      1.0  0.4955  0.07492  0.68314  1.0000
  H   H237      1.0  0.4892499999999999  0.62043  0.72723  1.0000
  H   H238      1.0  0.48304  0.67547  0.64775  1.0000
  H   H239      1.0  0.49501  0.13031  0.61807  1.0000
  H   H240      1.0  0.55405  0.6689  0.69432  1.0000
  H   H241      1.0  0.5451999999999998  0.72905  0.7090999999999998  1.0000
  H   H242      1.0  0.60263  0.7818300000000001  0.64768  1.0000
  H   H243      1.0  0.6149  0.7816799999999999  0.7157900000000001  1.0000
  H   H244      1.0  0.6013899999999999  0.68499  0.64464  1.0000
  H   H245      1.0  0.6536599999999998  0.75524  0.6603600000000001  1.0000
  H   H246      1.0  0.6029500000000001  0.17196  0.73967  1.0000
  H   H247      1.0  0.65835  0.73588  0.75396  1.0000
  C   C291      1.0  0.5493299999999999  0.7309  0.81134  1.0000
  C   C292      1.0  0.50586  0.70832  0.8035699999999999  1.0000
  C   C293      1.0  0.49277  0.74489  0.78744  1.0000
  C   C294      1.0  0.5211399999999999  0.79958  0.7681  1.0000
  N   N27       1.0  0.50257  0.82132  0.73082  1.0000
  N   N28       1.0  0.48275  0.84137  0.74419  1.0000
  C   C295      1.0  0.48752999999999996  0.85846  0.7979  1.0000
  C   C296      1.0  0.5292999999999999  0.9053600000000002  0.8255000000000001  1.0000
  C   C297      1.0  0.53761  0.9304300000000001  0.87638  1.0000
  C   C298      1.0  0.4982499999999999  0.90474  0.64866  1.0000
  C   C299      1.0  0.45322000000000007  0.8498100000000001  0.87162  1.0000
  C   C300      1.0  0.45141  0.82863  0.82118  1.0000
  C   C301      1.0  0.5656  0.8269699999999999  0.78009  1.0000
  C   C302      1.0  0.5800699999999999  0.79349  0.80423  1.0000
  C   C303      1.0  0.56224  0.68833  0.8077299999999998  1.0000
  C   C304      1.0  0.53574  0.61866  0.81746  1.0000
  C   C305      1.0  0.5408799999999999  0.07635  0.78453  1.0000
  C   C306      1.0  0.57856  0.07351  0.80716  1.0000
  C   C307      1.0  0.6212199999999999  0.13611999999999996  0.8276799999999999  1.0000
  C   C308      1.0  0.66194  0.64718  0.81815  1.0000
  H   H248      1.0  0.48036999999999985  0.6605799999999998  0.80208  1.0000
  H   H249      1.0  0.45871  0.72534  0.7810800000000001  1.0000
  H   H250      1.0  0.55601  0.9234000000000001  0.8057  1.0000
  H   H251      1.0  0.50169  0.92763  0.68555  1.0000
  H   H252      1.0  0.4212  0.78905  0.79845  1.0000
  H   H253      1.0  0.5883799999999999  0.8714599999999999  0.7680099999999999  1.0000
  H   H254      1.0  0.61435  0.81286  0.80961  1.0000
  H   H255      1.0  0.59725  0.7176599999999999  0.8125899999999999  1.0000
  H   H256      1.0  0.5544099999999998  0.67962  0.76791  1.0000
  H   H257      1.0  0.5010099999999998  0.09795000000000001  0.8033699999999999  1.0000
  H   H258      1.0  0.54039  0.6106699999999998  0.8594699999999998  1.0000
  H   H259      1.0  0.54314  0.0877  0.7439399999999999  1.0000
  H   H260      1.0  0.51102  0.028819999999999978  0.7818499999999999  1.0000
  H   H261      1.0  0.56919  0.04532  0.84043  1.0000
  H   H262      1.0  0.58179  0.048439999999999976  0.7769499999999999  1.0000
  H   H263      1.0  0.6255199999999999  0.67836  0.5702  1.0000
  H   H264      1.0  0.62249  0.13899  0.61867  1.0000
  H   H265      1.0  0.68533  0.69559  0.8123100000000001  1.0000
  H   H266      1.0  0.65489  0.11328  0.78639  1.0000
  Ca  Ca8       1.0  0.22128999999999996  0.61595  0.87638  1.0000
  Cd  Cd15      1.0  0.65388  0.07957  0.93358  1.0000
  Cd  Cd16      1.0  0.30161  0.69455  0.11688999999999998  1.0000
  C   C309      1.0  0.6789999999999998  0.63096  0.86181  1.0000
  C   C310      1.0  0.26828  0.7952700000000001  0.8541  1.0000
  C   C311      1.0  0.40858  0.81464  0.14096  1.0000
  C   C312      1.0  0.6393399999999997  0.15258  0.96116  1.0000
  C   C313      1.0  0.22740999999999997  0.5945  0.98053  1.0000
  C   C314      1.0  0.24086  0.61252  0.02824  1.0000
  O   O107      1.0  0.2795599999999999  0.59358  0.88486  1.0000
  O   O108      1.0  0.27969  0.09205  0.1367  1.0000
  O   O109      1.0  0.62277  0.016410000000000004  0.87444  1.0000
  O   O110      1.0  0.5979499999999996  0.007749999999999982  0.9504599999999999  1.0000
  O   O111      1.0  0.65281  0.57268  0.8646  1.0000
  O   O112      1.0  0.6936  0.66475  0.90684  1.0000
  O   O113      1.0  0.27095  0.74863  0.88146  1.0000
  O   O114      1.0  0.27302999999999994  0.7544299999999999  0.11752  1.0000
  O   O115      1.0  0.6086799999999998  0.09452000000000002  0.19536999999999996  1.0000
  O   O116      1.0  0.67832  0.16632  0.96653  1.0000
  O   O117      1.0  0.24410999999999997  0.63937  0.9534  1.0000
  O   O118      1.0  0.68751  0.05084  0.96484  1.0000
  O   O119      1.0  0.21043  0.58531  0.054400000000000004  1.0000
  O   O120      1.0  0.2794699999999999  0.66506  0.04447  1.0000
  C   C315      1.0  0.27300999999999986  0.041899999999999965  0.8570099999999999  1.0000
  C   C316      1.0  0.58761  0.98413  0.90104  1.0000
  C   C317      1.0  0.4335800000000001  0.055510000000000004  0.9272799999999999  1.0000
  C   C318      1.0  0.41176  0.08043999999999998  0.93727  1.0000
  C   C319      1.0  0.38622  0.05653999999999997  0.9744899999999999  1.0000
  C   C320      1.0  0.37825  0.003650000000000003  0.99669  1.0000
  N   N29       1.0  0.34855  0.97684  0.03047  1.0000
  N   N30       1.0  0.30854000000000004  0.9460600000000001  0.01189  1.0000
  C   C321      1.0  0.29124000000000005  0.9338600000000001  0.95639  1.0000
  C   C322      1.0  0.28611  0.8824  0.93001  1.0000
  C   C323      1.0  0.27052999999999994  0.8624599999999999  0.87581  1.0000
  C   C324      1.0  0.26317000000000007  0.9133100000000001  0.84966  1.0000
  C   C325      1.0  0.2729  0.97644  0.8774  1.0000
  C   C326      1.0  0.28644  0.97856  0.9316499999999999  1.0000
  C   C327      1.0  0.39308  0.9717300000000001  0.9782499999999998  1.0000
  C   C328      1.0  0.42002  0.9969  0.94227  1.0000
  C   C329      1.0  0.48073  0.09997  0.93675  1.0000
  C   C330      1.0  0.5002499999999999  0.65377  0.9040600000000001  1.0000
  C   C331      1.0  0.5488  0.70245  0.9306299999999998  1.0000
  C   C332      1.0  0.5974  0.7505  0.92786  1.0000
  C   C333      1.0  0.62292  0.72345  0.92383  1.0000
  C   C334      1.0  0.6314199999999999  0.19812000000000002  0.97341  1.0000
  H   H267      1.0  0.42073  0.62477  0.92661  1.0000
  H   H268      1.0  0.37332999999999994  0.08004999999999995  0.9867399999999998  1.0000
  H   H269      1.0  0.29674  0.8580199999999999  0.95363  1.0000
  H   H270      1.0  0.24825999999999998  0.9027900000000001  0.8075400000000001  1.0000
  H   H271      1.0  0.29596  0.01883999999999999  0.95615  1.0000
  H   H272      1.0  0.3850699999999999  0.92883  0.99283  1.0000
  H   H273      1.0  0.43666  0.97676  0.93484  1.0000
  H   H274      1.0  0.49527999999999994  0.07476  0.93333  1.0000
  H   H275      1.0  0.48845  0.62212  0.97812  1.0000
  H   H276      1.0  0.48249  0.6749299999999999  0.89743  1.0000
  H   H277      1.0  0.49490999999999996  0.13015  0.86821  1.0000
  H   H278      1.0  0.5535  0.66785  0.94352  1.0000
  H   H279      1.0  0.5447499999999998  0.72817  0.95889  1.0000
  H   H280      1.0  0.6024  0.78161  0.89794  1.0000
  H   H281      1.0  0.61433  0.78104  0.96598  1.0000
  H   H282      1.0  0.6015099999999999  0.68493  0.89457  1.0000
  H   H283      1.0  0.6535900000000001  0.7553100000000001  0.91073  1.0000
  H   H284      1.0  0.603  0.17208  0.98996  1.0000
  H   H285      1.0  0.6582899999999998  0.73567  0.00416  1.0000
  C   C335      1.0  0.5493299999999999  0.73066  0.06093  1.0000
  C   C336      1.0  0.50586  0.70818  0.05312  1.0000
  C   C337      1.0  0.49285999999999996  0.74489  0.03726  1.0000
  C   C338      1.0  0.5212499999999999  0.79954  0.01792  1.0000
  N   N31       1.0  0.50272  0.82133  0.98062  1.0000
  N   N32       1.0  0.48308999999999996  0.8416599999999999  0.99402  1.0000
  C   C339      1.0  0.4879899999999999  0.8588100000000001  0.04775  1.0000
  C   C340      1.0  0.52981  0.9057300000000001  0.07524  1.0000
  C   C341      1.0  0.53823  0.93066  0.12622  1.0000
  C   C342      1.0  0.49769  0.90471  0.8985  1.0000
  C   C343      1.0  0.45401000000000014  0.8495300000000001  0.12192  1.0000
  C   C344      1.0  0.45203  0.82862  0.07128  1.0000
  C   C345      1.0  0.56569  0.8269  0.02996  1.0000
  C   C346      1.0  0.5801099999999999  0.7932999999999999  0.05396999999999999  1.0000
  C   C347      1.0  0.5623299999999999  0.68811  0.05746  1.0000
  C   C348      1.0  0.53608  0.6185  0.0673  1.0000
  C   C349      1.0  0.54087  0.07639  0.03454  1.0000
  C   C350      1.0  0.57852  0.07341  0.05709999999999999  1.0000
  C   C351      1.0  0.6210499999999998  0.13592  0.0781  1.0000
  C   C352      1.0  0.66428  0.6503  0.07008  1.0000
  H   H286      1.0  0.4802599999999999  0.66043  0.05137  1.0000
  H   H287      1.0  0.45880999999999994  0.72543  0.03102  1.0000
  H   H288      1.0  0.55644  0.92387  0.05528999999999999  1.0000
  H   H289      1.0  0.5011999999999998  0.92759  0.9354499999999999  1.0000
  H   H290      1.0  0.42177999999999993  0.78905  0.048589999999999994  1.0000
  H   H291      1.0  0.5884999999999998  0.8714599999999999  0.01802  1.0000
  H   H292      1.0  0.6144  0.81272  0.05945  1.0000
  H   H293      1.0  0.5973399999999998  0.71763  0.06307  1.0000
  H   H294      1.0  0.5548599999999998  0.6794  0.01758  1.0000
  H   H295      1.0  0.50108  0.09805  0.05351999999999999  1.0000
  H   H296      1.0  0.54048  0.61055  0.10935  1.0000
  H   H297      1.0  0.54313  0.08777000000000001  0.99396  1.0000
  H   H298      1.0  0.51098  0.02888  0.03184  1.0000
  H   H299      1.0  0.56903  0.04486  0.09013999999999998  1.0000
  H   H300      1.0  0.58192  0.0487  0.02678  1.0000
  H   H301      1.0  0.6241799999999998  0.6765  0.8203199999999999  1.0000
  H   H302      1.0  0.6225699999999998  0.13928  0.86856  1.0000
  H   H303      1.0  0.68862  0.69959  0.06664  1.0000
  H   H304      1.0  0.65509  0.11386  0.03671  1.0000
  Ca  Ca9       1.0  0.72102  0.11144  0.1262  1.0000
  Cd  Cd17      1.0  0.15411  0.57994  0.18367  1.0000
  Cd  Cd18      1.0  0.80068  0.19526  0.365  1.0000
  C   C353      1.0  0.17901999999999998  0.13073  0.11157  1.0000
  C   C354      1.0  0.7531899999999998  0.28406  0.11677000000000001  1.0000
  C   C355      1.0  0.90759  0.31555  0.38974  1.0000
  C   C356      1.0  0.13943  0.65273  0.21122  1.0000
  C   C357      1.0  0.7281299999999999  0.10024999999999998  0.23006999999999997  1.0000
  C   C358      1.0  0.74109  0.11995  0.27712  1.0000
  O   O121      1.0  0.78111  0.09357000000000001  0.13698  1.0000
  O   O122      1.0  0.78144  0.5923  0.38675  1.0000
  O   O123      1.0  0.12317  0.51675  0.12454  1.0000
  O   O124      1.0  0.09824000000000002  0.50805  0.20046  1.0000
  O   O125      1.0  0.15258999999999998  0.07248  0.11438  1.0000
  O   O126      1.0  0.19378  0.16461999999999996  0.15655  1.0000
  O   O127      1.0  0.76589  0.24156  0.11733  1.0000
  O   O128      1.0  0.7717999999999998  0.25204  0.38025  1.0000
  O   O129      1.0  0.8730599999999998  0.25898  0.11755  1.0000
  O   O130      1.0  0.87202  0.25942  0.36694  1.0000
  O   O131      1.0  0.10821000000000001  0.59451  0.44490999999999997  1.0000
  O   O132      1.0  0.17845000000000005  0.66655  0.21666999999999997  1.0000
  O   O133      1.0  0.74378  0.14369  0.20143  1.0000
  O   O134      1.0  0.18774999999999994  0.55132  0.21514  1.0000
  O   O135      1.0  0.7110599999999998  0.09249000000000002  0.30344  1.0000
  O   O136      1.0  0.7789299999999999  0.17295  0.29282  1.0000
  C   C359      1.0  0.7712199999999997  0.54129  0.10716  1.0000
  C   C360      1.0  0.08803000000000004  0.48443000000000014  0.15108  1.0000
  C   C361      1.0  0.9339199999999998  0.5556  0.17676  1.0000
  C   C362      1.0  0.91241  0.58087  0.1872  1.0000
  C   C363      1.0  0.8884399999999998  0.55853  0.22596  1.0000
  C   C364      1.0  0.8814299999999996  0.50657  0.24906  1.0000
  N   N33       1.0  0.8511299999999999  0.4795100000000001  0.28168  1.0000
  N   N34       1.0  0.8115399999999998  0.45011  0.26149  1.0000
  C   C365      1.0  0.79558  0.43902  0.20583  1.0000
  C   C366      1.0  0.7917299999999998  0.38881999999999994  0.17948  1.0000
  C   C367      1.0  0.77132  0.36392  0.12689  1.0000
  C   C368      1.0  0.7599599999999997  0.41128000000000003  0.1013  1.0000
  C   C369      1.0  0.77242  0.47694000000000003  0.12765  1.0000
  C   C370      1.0  0.7889099999999998  0.48197000000000007  0.18135  1.0000
  C   C371      1.0  0.89499  0.47343  0.22965  1.0000
  C   C372      1.0  0.92054  0.49721000000000004  0.19219  1.0000
  C   C373      1.0  0.9810199999999999  0.59992  0.18646000000000001  1.0000
  C   C374      1.0  0.9999999999999998  0.15343  0.15396  1.0000
  C   C375      1.0  0.04859  0.20204999999999998  0.18055  1.0000
  C   C376      1.0  0.09718000000000002  0.25021  0.17778  1.0000
  C   C377      1.0  0.12275000000000001  0.22330000000000003  0.17357  1.0000
  C   C378      1.0  0.1314700000000001  0.69819  0.22345  1.0000
  H   H305      1.0  0.9205799999999998  0.12469000000000001  0.17659000000000002  1.0000
  H   H306      1.0  0.8751899999999999  0.58168  0.23793999999999998  1.0000
  H   H307      1.0  0.80202  0.36433  0.20354  1.0000
  H   H308      1.0  0.7400099999999997  0.39623  0.06127  1.0000
  H   H309      1.0  0.79808  0.52213  0.20567  1.0000
  H   H310      1.0  0.8864199999999999  0.43014  0.24391  1.0000
  H   H311      1.0  0.93663  0.47648000000000007  0.18408  1.0000
  H   H312      1.0  0.9955499999999998  0.57472  0.18277  1.0000
  H   H313      1.0  0.98812  0.12170999999999998  0.22799  1.0000
  H   H314      1.0  0.9823  0.1747  0.14736  1.0000
  H   H315      1.0  0.9951799999999998  0.63054  0.11814999999999999  1.0000
  H   H316      1.0  0.05330999999999999  0.16749  0.19357999999999997  1.0000
  H   H317      1.0  0.04456  0.22791  0.20871999999999996  1.0000
  H   H318      1.0  0.10218999999999996  0.2815  0.14804  1.0000
  H   H319      1.0  0.11411999999999999  0.28062  0.21597  1.0000
  H   H320      1.0  0.10133999999999999  0.18471  0.14439  1.0000
  H   H321      1.0  0.1533499999999999  0.25522  0.16032  1.0000
  H   H322      1.0  0.10299999999999995  0.6720399999999999  0.23988999999999996  1.0000
  H   H323      1.0  0.1582  0.23573999999999998  0.25383  1.0000
  C   C379      1.0  0.049329999999999985  0.23069999999999996  0.31106  1.0000
  C   C380      1.0  0.005879999999999982  0.20829999999999999  0.30333  1.0000
  C   C381      1.0  0.99289  0.24500000000000002  0.28746  1.0000
  C   C382      1.0  0.02126999999999999  0.2996  0.26805  1.0000
  N   N35       1.0  0.002699999999999975  0.32128  0.2307  1.0000
  N   N36       1.0  0.9828099999999999  0.34124  0.24399  1.0000
  C   C383      1.0  0.9875499999999998  0.35833  0.29768  1.0000
  C   C384      1.0  0.029289999999999993  0.40526  0.3253  1.0000
  C   C385      1.0  0.03746999999999998  0.43047  0.37606  1.0000
  C   C386      1.0  0.9983699999999998  0.40475  0.14861  1.0000
  C   C387      1.0  0.95321  0.34979  0.37131  1.0000
  C   C388      1.0  0.95144  0.32844  0.3209600000000001  1.0000
  C   C389      1.0  0.06570999999999996  0.3269  0.28001  1.0000
  C   C390      1.0  0.08012  0.29329  0.30402  1.0000
  C   C391      1.0  0.06216000000000001  0.18799  0.30731  1.0000
  C   C392      1.0  0.035760000000000014  0.11837  0.31715  1.0000
  C   C393      1.0  0.040720000000000006  0.57648  0.28467  1.0000
  C   C394      1.0  0.07832999999999998  0.57343  0.30713  1.0000
  C   C395      1.0  0.1209999999999999  0.63591  0.32783  1.0000
  C   C396      1.0  0.16237  0.14733  0.31835  1.0000
  H   H324      1.0  0.9802499999999998  0.16056  0.30161  1.0000
  H   H325      1.0  0.9588299999999998  0.22551999999999997  0.28118  1.0000
  H   H326      1.0  0.056049999999999996  0.42325  0.30558  1.0000
  H   H327      1.0  0.0017699999999999712  0.42763999999999996  0.18549  1.0000
  H   H328      1.0  0.92122  0.2889  0.29821  1.0000
  H   H329      1.0  0.0885  0.37142  0.26799  1.0000
  H   H330      1.0  0.11440000000000002  0.31264  0.30942  1.0000
  H   H331      1.0  0.09714999999999997  0.2173  0.3122  1.0000
  H   H332      1.0  0.05423999999999999  0.17911  0.26746  1.0000
  H   H333      1.0  0.0010199999999999936  0.59826  0.3036  1.0000
  H   H334      1.0  0.040369999999999996  0.11048000000000001  0.3592  1.0000
  H   H335      1.0  0.04301999999999995  0.58796  0.24414  1.0000
  H   H336      1.0  0.01080999999999992  0.52898  0.28192  1.0000
  H   H337      1.0  0.06890999999999999  0.54509  0.3403  1.0000
  H   H338      1.0  0.08155999999999995  0.54848  0.27681  1.0000
  H   H339      1.0  0.12445999999999999  0.1768  0.07004  1.0000
  H   H340      1.0  0.12245999999999999  0.63918  0.11860999999999998  1.0000
  H   H341      1.0  0.18585999999999997  0.19566  0.3125  1.0000
  H   H342      1.0  0.1547  0.61313  0.28647  1.0000
  Ca  Ca10      1.0  0.7217  0.11749000000000001  0.37706  1.0000
  Cd  Cd19      1.0  0.15363999999999997  0.57928  0.43359999999999993  1.0000
  Cd  Cd20      1.0  0.80218  0.19455  0.61735  1.0000
  C   C397      1.0  0.1790499999999999  0.13013  0.36194  1.0000
  C   C398      1.0  0.7703299999999997  0.29693  0.35432  1.0000
  C   C399      1.0  0.9089599999999999  0.31486  0.6412  1.0000
  C   C400      1.0  0.13916000000000003  0.65245  0.46125  1.0000
  C   C401      1.0  0.7279799999999998  0.09644000000000001  0.48054  1.0000
  C   C402      1.0  0.74157  0.11275  0.52847  1.0000
  O   O137      1.0  0.7792199999999998  0.09371  0.38569  1.0000
  O   O138      1.0  0.779  0.59257  0.63545  1.0000
  O   O139      1.0  0.12252999999999996  0.5162599999999999  0.37423  1.0000
  O   O140      1.0  0.09759999999999996  0.50766  0.45016999999999996  1.0000
  O   O141      1.0  0.15211999999999998  0.07178999999999999  0.36441  1.0000
  O   O142      1.0  0.19446999999999992  0.16383  0.40723  1.0000
  O   O143      1.0  0.7720099999999999  0.24953  0.38142  1.0000
  O   O144      1.0  0.7732199999999998  0.2542  0.61761  1.0000
  O   O145      1.0  0.8732799999999997  0.25925  0.61736  1.0000
  O   O146      1.0  0.10878999999999998  0.59455  0.69522  1.0000
  O   O147      1.0  0.17811999999999992  0.66616  0.46640999999999994  1.0000
  O   O148      1.0  0.74412  0.14235  0.45438  1.0000
  O   O149      1.0  0.18696  0.55002  0.46519  1.0000
  O   O150      1.0  0.7111  0.0843  0.55463  1.0000
  O   O151      1.0  0.78008  0.1653  0.54508  1.0000
  C   C403      1.0  0.77666  0.54363  0.35855  1.0000
  C   C404      1.0  0.08736000000000001  0.4841  0.40077  1.0000
  C   C405      1.0  0.9326799999999997  0.55537  0.42801  1.0000
  C   C406      1.0  0.90998  0.5791599999999999  0.43701999999999996  1.0000
  C   C407      1.0  0.8831900000000001  0.5536800000000002  0.47285  1.0000
  C   C408      1.0  0.87536  0.50071  0.49486  1.0000
  N   N37       1.0  0.84647  0.47415  0.5298  1.0000
  N   N38       1.0  0.80626  0.44301000000000007  0.51259  1.0000
  C   C409      1.0  0.7880099999999999  0.43025  0.45744999999999997  1.0000
  C   C410      1.0  0.7831699999999998  0.37911  0.43098999999999993  1.0000
  C   C411      1.0  0.77165  0.36293  0.37629999999999997  1.0000
  C   C412      1.0  0.76665  0.41561  0.35022  1.0000
  C   C413      1.0  0.7746399999999999  0.47698  0.37849  1.0000
  C   C414      1.0  0.78416  0.47579  0.43292  1.0000
  C   C415      1.0  0.89101  0.46974  0.47680999999999996  1.0000
  C   C416      1.0  0.91911  0.49646000000000007  0.44223  1.0000
  C   C417      1.0  0.97985  0.60078  0.43848  1.0000
  C   C418      1.0  0.0010000000000000126  0.15456000000000003  0.40401000000000004  1.0000
  C   C419      1.0  0.04934999999999998  0.20336  0.4311  1.0000
  C   C420      1.0  0.09778  0.25085  0.42772  1.0000
  C   C421      1.0  0.12294999999999999  0.22332  0.42341000000000006  1.0000
  C   C422      1.0  0.13129999999999994  0.69811  0.4734499999999999  1.0000
  H   H343      1.0  0.92149  0.12503  0.42493  1.0000
  H   H344      1.0  0.86972  0.5765  0.48467  1.0000
  H   H345      1.0  0.7915  0.35257999999999995  0.45507  1.0000
  H   H346      1.0  0.7545199999999996  0.40762999999999994  0.30764  1.0000
  H   H347      1.0  0.79231  0.51488  0.45789  1.0000
  H   H348      1.0  0.88311  0.42676000000000003  0.49108999999999997  1.0000
  H   H349      1.0  0.9364599999999998  0.4772  0.43553  1.0000
  H   H350      1.0  0.9947  0.5758  0.43713  1.0000
  H   H351      1.0  0.98921  0.12038  0.4773  1.0000
  H   H352      1.0  0.98308  0.17546999999999996  0.39781999999999995  1.0000
  H   H353      1.0  0.9934899999999999  0.62752  0.36876  1.0000
  H   H354      1.0  0.05410999999999999  0.16909  0.44451  1.0000
  H   H355      1.0  0.045289999999999976  0.22926  0.45914999999999995  1.0000
  H   H356      1.0  0.10264  0.28181  0.39770000000000005  1.0000
  H   H357      1.0  0.11499999999999996  0.2815099999999999  0.46576  1.0000
  H   H358      1.0  0.10134999999999998  0.18485  0.39415  1.0000
  H   H359      1.0  0.15360999999999997  0.25506  0.41023999999999994  1.0000
  H   H360      1.0  0.10284000000000003  0.6722300000000001  0.48989  1.0000
  H   H361      1.0  0.15816999999999998  0.23534  0.50363  1.0000
  C   C423      1.0  0.04933  0.23094  0.56146  1.0000
  C   C424      1.0  0.005860000000000012  0.2084  0.55368  1.0000
  C   C425      1.0  0.99278  0.24493000000000004  0.53733  1.0000
  C   C426      1.0  0.021190000000000056  0.2995700000000001  0.51793  1.0000
  N   N39       1.0  0.00273000000000001  0.32148  0.48062999999999995  1.0000
  N   N40       1.0  0.9833199999999997  0.34216  0.49405999999999994  1.0000
  C   C427      1.0  0.98822  0.35924  0.54782  1.0000
  C   C428      1.0  0.030039999999999994  0.40604  0.5754  1.0000
  C   C429      1.0  0.038470000000000025  0.43066  0.62654  1.0000
  C   C430      1.0  0.9975499999999998  0.40491  0.39805  1.0000
  C   C431      1.0  0.9542999999999999  0.34974  0.6221  1.0000
  C   C432      1.0  0.9522699999999998  0.329  0.57135  1.0000
  C   C433      1.0  0.06564000000000002  0.32698  0.53009  1.0000
  C   C434      1.0  0.08009  0.29351  0.55433  1.0000
  C   C435      1.0  0.06221  0.18833  0.55779  1.0000
  C   C436      1.0  0.03574000000000001  0.11871000000000001  0.56761  1.0000
  C   C437      1.0  0.04108000000000001  0.57609  0.5345  1.0000
  C   C438      1.0  0.07870999999999999  0.57331  0.5575  1.0000
  C   C439      1.0  0.12124000000000004  0.63601  0.57805  1.0000
  C   C440      1.0  0.16201999999999997  0.14735  0.56796  1.0000
  H   H362      1.0  0.9803799999999999  0.16067  0.55227  1.0000
  H   H363      1.0  0.95872  0.22544  0.53098  1.0000
  H   H364      1.0  0.05666000000000002  0.42428000000000005  0.55542  1.0000
  H   H365      1.0  0.0009199999999999843  0.4280999999999999  0.43472  1.0000
  H   H366      1.0  0.9219899999999999  0.28952  0.5486  1.0000
  H   H367      1.0  0.08844  0.37147  0.51802  1.0000
  H   H368      1.0  0.11437  0.31287  0.55972  1.0000
  H   H369      1.0  0.09718000000000002  0.21763000000000002  0.56241  1.0000
  H   H370      1.0  0.05422999999999999  0.17951999999999999  0.51799  1.0000
  H   H371      1.0  0.0010399999999999862  0.59771  0.55293  1.0000
  H   H372      1.0  0.04035999999999999  0.11074  0.60962  1.0000
  H   H373      1.0  0.04362  0.5873  0.49391  1.0000
  H   H374      1.0  0.011210000000000097  0.52856  0.53181  1.0000
  H   H375      1.0  0.06928  0.54516  0.5908  1.0000
  H   H376      1.0  0.08212  0.54828  0.52748  1.0000
  H   H377      1.0  0.12459  0.17683  0.31989  1.0000
  H   H378      1.0  0.12229  0.63884  0.3687  1.0000
  H   H379      1.0  0.18542  0.19570999999999997  0.56209  1.0000
  H   H380      1.0  0.15512  0.6136  0.53665  1.0000
  Ca  Ca11      1.0  0.72094  0.11209  0.62702  1.0000
  Cd  Cd21      1.0  0.15453  0.57997  0.68387  1.0000
  Cd  Cd22      1.0  0.8015199999999997  0.19458  0.86725  1.0000
  C   C441      1.0  0.17895  0.13089  0.61161  1.0000
  C   C442      1.0  0.7532399999999999  0.28444  0.61708  1.0000
  C   C443      1.0  0.90849  0.31476  0.8909899999999998  1.0000
  C   C444      1.0  0.13957999999999998  0.65246  0.71191  1.0000
  C   C445      1.0  0.72789  0.09806999999999999  0.7302199999999999  1.0000
  C   C446      1.0  0.7413199999999999  0.11456999999999999  0.77803  1.0000
  O   O152      1.0  0.7811399999999998  0.09418  0.63696  1.0000
  O   O153      1.0  0.7799899999999997  0.59203  0.88742  1.0000
  O   O154      1.0  0.12345999999999999  0.51674  0.62454  1.0000
  O   O155      1.0  0.09879999999999999  0.50766  0.70076  1.0000
  O   O156      1.0  0.15262999999999996  0.07259  0.61428  1.0000
  O   O157      1.0  0.19361  0.16459  0.65671  1.0000
  O   O158      1.0  0.76592  0.24193  0.61774  1.0000
  O   O159      1.0  0.7732799999999997  0.25493  0.86779  1.0000
  O   O160      1.0  0.87285  0.25875  0.86779  1.0000
  O   O161      1.0  0.10868000000000005  0.5945500000000001  0.94518  1.0000
  O   O162      1.0  0.17861999999999992  0.66652  0.7170799999999999  1.0000
  O   O163      1.0  0.74347  0.14361  0.70354  1.0000
  O   O164      1.0  0.18911999999999998  0.5525199999999999  0.71502  1.0000
  O   O165      1.0  0.7108199999999998  0.08646  0.8040999999999999  1.0000
  O   O166      1.0  0.7799599999999998  0.16661000000000004  0.7947500000000001  1.0000
  C   C447      1.0  0.7715  0.54163  0.60719  1.0000
  C   C448      1.0  0.08841000000000002  0.48429  0.65123  1.0000
  C   C449      1.0  0.9338199999999999  0.55554  0.67704  1.0000
  C   C450      1.0  0.9122099999999999  0.5807  0.6872700000000002  1.0000
  C   C451      1.0  0.8879099999999999  0.55815  0.72578  1.0000
  C   C452      1.0  0.8806699999999998  0.50604  0.7489099999999999  1.0000
  N   N41       1.0  0.8504499999999999  0.47916000000000003  0.78196  1.0000
  N   N42       1.0  0.81071  0.44982  0.7622999999999999  1.0000
  C   C453      1.0  0.79471  0.43861999999999995  0.70654  1.0000
  C   C454      1.0  0.7913400000000002  0.38881  0.68011  1.0000
  C   C455      1.0  0.77144  0.36428  0.62734  1.0000
  C   C456      1.0  0.7603100000000002  0.41177  0.60158  1.0000
  C   C457      1.0  0.77263  0.4773  0.62789  1.0000
  C   C458      1.0  0.78852  0.48193  0.68177  1.0000
  C   C459      1.0  0.89458  0.47317000000000004  0.7297399999999999  1.0000
  C   C460      1.0  0.9204199999999999  0.49717  0.69251  1.0000
  C   C461      1.0  0.9809499999999998  0.5999599999999999  0.6866599999999999  1.0000
  C   C462      1.0  3.0000000000000495e-05  0.1535  0.65411  1.0000
  C   C463      1.0  0.04864000000000001  0.20214  0.68056  1.0000
  C   C464      1.0  0.09727  0.2503  0.67792  1.0000
  C   C465      1.0  0.12286  0.22337  0.67389  1.0000
  C   C466      1.0  0.13150999999999993  0.69797  0.72373  1.0000
  H   H381      1.0  0.9205099999999999  0.12466  0.67668  1.0000
  H   H382      1.0  0.8747499999999998  0.58143  0.73765  1.0000
  H   H383      1.0  0.80169  0.3643500000000001  0.70414  1.0000
  H   H384      1.0  0.74067  0.3969500000000001  0.56138  1.0000
  H   H385      1.0  0.7976399999999999  0.52209  0.70602  1.0000
  H   H386      1.0  0.8861399999999999  0.42997  0.7440199999999999  1.0000
  H   H387      1.0  0.9365899999999999  0.47653  0.6844699999999999  1.0000
  H   H388      1.0  0.99556  0.57481  0.68341  1.0000
  H   H389      1.0  0.98818  0.12226  0.72829  1.0000
  H   H390      1.0  0.98233  0.17477  0.64741  1.0000
  H   H391      1.0  0.9951599999999998  0.63009  0.61812  1.0000
  H   H392      1.0  0.053319999999999985  0.16749  0.69339  1.0000
  H   H393      1.0  0.04461  0.22791  0.70882  1.0000
  H   H394      1.0  0.10231  0.28149  0.6480599999999999  1.0000
  H   H395      1.0  0.11417  0.28079  0.71607  1.0000
  H   H396      1.0  0.10152000000000001  0.18492000000000003  0.64456  1.0000
  H   H397      1.0  0.15354999999999994  0.25531999999999994  0.6608399999999999  1.0000
  H   H398      1.0  0.10301999999999999  0.67196  0.74011  1.0000
  H   H399      1.0  0.15822999999999995  0.23549  0.75417  1.0000
  C   C467      1.0  0.04931999999999999  0.23061  0.81088  1.0000
  C   C468      1.0  0.005849999999999981  0.20814000000000002  0.8031199999999998  1.0000
  C   C469      1.0  0.9928299999999999  0.24483  0.78731  1.0000
  C   C470      1.0  0.021210000000000003  0.29948  0.76796  1.0000
  N   N43       1.0  0.0026300000000000242  0.3212  0.73068  1.0000
  N   N44       1.0  0.98296  0.3414499999999999  0.7440999999999999  1.0000
  C   C471      1.0  0.98791  0.35866  0.7978199999999999  1.0000
  C   C472      1.0  0.02975000000000003  0.40565000000000007  0.82526  1.0000
  C   C473      1.0  0.03818  0.43054  0.8762700000000001  1.0000
  C   C474      1.0  0.99869  0.40465  0.6489200000000002  1.0000
  C   C475      1.0  0.95395  0.34942999999999996  0.87201  1.0000
  C   C476      1.0  0.95195  0.32849  0.8213699999999999  1.0000
  C   C477      1.0  0.06564999999999997  0.32685  0.7799399999999999  1.0000
  C   C478      1.0  0.08008000000000003  0.29325  0.8039  1.0000
  C   C479      1.0  0.06230999999999998  0.18805  0.80737  1.0000
  C   C480      1.0  0.036100000000000014  0.11845  0.81727  1.0000
  C   C481      1.0  0.04157999999999992  0.57675  0.7849  1.0000
  C   C482      1.0  0.07972999999999991  0.57473  0.80762  1.0000
  C   C483      1.0  0.12223999999999999  0.63768  0.82881  1.0000
  C   C484      1.0  0.16431  0.15042  0.82023  1.0000
  H   H400      1.0  0.98024  0.16038  0.8014  1.0000
  H   H401      1.0  0.9587899999999999  0.22537000000000001  0.7810800000000001  1.0000
  H   H402      1.0  0.05635999999999997  0.42383999999999994  0.8052699999999999  1.0000
  H   H403      1.0  0.002210000000000017  0.4273  0.686  1.0000
  H   H404      1.0  0.9216599999999999  0.28899  0.7986699999999999  1.0000
  H   H405      1.0  0.08844  0.37142  0.768  1.0000
  H   H406      1.0  0.11436999999999996  0.31267999999999996  0.80935  1.0000
  H   H407      1.0  0.09731  0.21759000000000003  0.81284  1.0000
  H   H408      1.0  0.05473000000000001  0.17923  0.7675  1.0000
  H   H409      1.0  0.0012200000000000123  0.59782  0.80332  1.0000
  H   H410      1.0  0.04053  0.11056  0.85933  1.0000
  H   H411      1.0  0.04340999999999996  0.58764  0.74413  1.0000
  H   H412      1.0  0.01188000000000001  0.52907  0.78244  1.0000
  H   H413      1.0  0.07024999999999998  0.54611  0.84063  1.0000
  H   H414      1.0  0.08333999999999998  0.5501200000000002  0.77747  1.0000
  H   H415      1.0  0.12429  0.17674  0.57007  1.0000
  H   H416      1.0  0.12256000000000004  0.63903  0.61898  1.0000
  H   H417      1.0  0.18846  0.19967  0.81662  1.0000
  H   H418      1.0  0.15710999999999997  0.61746  0.7886399999999999  1.0000
  Ca  Ca12      1.0  0.7205299999999999  0.11395  0.87681  1.0000
  Cd  Cd23      1.0  0.15428  0.5792  0.93475  1.0000
  Cd  Cd24      1.0  0.80214  0.19422  0.11674  1.0000
  C   C485      1.0  0.17990999999999993  0.13152999999999998  0.86362  1.0000
  C   C486      1.0  0.7531899999999999  0.28497  0.8672099999999999  1.0000
  C   C487      1.0  0.9087  0.3148  0.14075  1.0000
  C   C488      1.0  0.1394799999999999  0.65258  0.96139  1.0000
  C   C489      1.0  0.7276599999999999  0.09777  0.9796  1.0000
  C   C490      1.0  0.74149  0.11308000000000001  0.02756  1.0000
  O   O167      1.0  0.77932  0.0931  0.88745  1.0000
  O   O168      1.0  0.7786699999999998  0.59233  0.13516  1.0000
  O   O169      1.0  0.1236  0.51687  0.87478  1.0000
  O   O170      1.0  0.09803  0.50775  0.95044  1.0000
  O   O171      1.0  0.15272  0.07304  0.86536  1.0000
  O   O172      1.0  0.19515000000000005  0.16446000000000005  0.90926  1.0000
  O   O173      1.0  0.76607  0.24294000000000002  0.8677299999999999  1.0000
  O   O174      1.0  0.7732499999999998  0.25394  0.11721  1.0000
  O   O175      1.0  0.10851999999999995  0.59481  0.19471  1.0000
  O   O176      1.0  0.1784799999999999  0.6662899999999999  0.9671  1.0000
  O   O177      1.0  0.7430099999999997  0.1441  0.95377  1.0000
  O   O178      1.0  0.18696999999999994  0.5485  0.96594  1.0000
  O   O179      1.0  0.71115  0.08389  0.05389  1.0000
  O   O180      1.0  0.7800399999999997  0.16545  0.04432  1.0000
  C   C491      1.0  0.7729400000000001  0.5417900000000001  0.8587100000000001  1.0000
  C   C492      1.0  0.08811999999999998  0.48434  0.90104  1.0000
  C   C493      1.0  0.9337399999999999  0.55556  0.9269999999999999  1.0000
  C   C494      1.0  0.9121099999999999  0.5806300000000001  0.93737  1.0000
  C   C495      1.0  0.8879699999999999  0.55809  0.97606  1.0000
  C   C496      1.0  0.88086  0.50602  0.9991699999999999  1.0000
  N   N45       1.0  0.8508799999999999  0.47915  0.03255  1.0000
  N   N46       1.0  0.81105  0.44937000000000005  0.01323  1.0000
  C   C497      1.0  0.7947800000000002  0.43804000000000004  0.95754  1.0000
  C   C498      1.0  0.79137  0.38839000000000007  0.93087  1.0000
  C   C499      1.0  0.7717300000000001  0.36452  0.87795  1.0000
  C   C500      1.0  0.7610500000000001  0.41219000000000006  0.85222  1.0000
  C   C501      1.0  0.7733499999999999  0.47725  0.87904  1.0000
  C   C502      1.0  0.78873  0.48144000000000003  0.9329399999999999  1.0000
  C   C503      1.0  0.8947  0.47318  0.97978  1.0000
  C   C504      1.0  0.9203999999999999  0.49718  0.9424099999999999  1.0000
  C   C505      1.0  0.9808699999999998  0.60006  0.93662  1.0000
  C   C506      1.0  0.0010099999999999974  0.15454  0.90382  1.0000
  C   C507      1.0  0.04933999999999996  0.20336  0.93099  1.0000
  C   C508      1.0  0.09778  0.25099  0.9276799999999998  1.0000
  C   C509      1.0  0.12302  0.22357  0.92357  1.0000
  C   C510      1.0  0.13146  0.69812  0.97338  1.0000
  H   H419      1.0  0.9215399999999999  0.1251  0.92516  1.0000
  H   H420      1.0  0.87485  0.58137  0.98807  1.0000
  H   H421      1.0  0.80155  0.36365  0.95471  1.0000
  H   H422      1.0  0.7418199999999999  0.39792  0.81177  1.0000
  H   H423      1.0  0.79785  0.52156  0.95725  1.0000
  H   H424      1.0  0.88633  0.42999  0.99405  1.0000
  H   H425      1.0  0.9365799999999999  0.47658999999999996  0.93426  1.0000
  H   H426      1.0  0.9954699999999999  0.57492  0.93325  1.0000
  H   H427      1.0  0.98928  0.12047  0.97715  1.0000
  H   H428      1.0  0.98307  0.17542999999999997  0.8976299999999999  1.0000
  H   H429      1.0  0.9950199999999999  0.63023  0.86809  1.0000
  H   H430      1.0  0.05410000000000001  0.16907  0.94437  1.0000
  H   H431      1.0  0.04521999999999999  0.22916  0.95907  1.0000
  H   H432      1.0  0.10260999999999999  0.28181  0.89755  1.0000
  H   H433      1.0  0.11493999999999996  0.28173  0.96568  1.0000
  H   H434      1.0  0.10132  0.18495000000000003  0.89449  1.0000
  H   H435      1.0  0.15362999999999996  0.25518  0.91026  1.0000
  H   H436      1.0  0.10294999999999999  0.6720199999999998  0.9897399999999998  1.0000
  H   H437      1.0  0.1583  0.23580000000000004  0.00386  1.0000
  C   C511      1.0  0.049379999999999986  0.23091  0.06137  1.0000
  C   C512      1.0  0.005920000000000013  0.20840000000000003  0.0536  1.0000
  C   C513      1.0  0.9928699999999998  0.24498  0.03738  1.0000
  C   C514      1.0  0.021279999999999976  0.29958  0.01795  1.0000
  N   N47       1.0  0.0028000000000000078  0.3214  0.98065  1.0000
  N   N48       1.0  0.9832299999999999  0.34184  0.9940699999999999  1.0000
  C   C515      1.0  0.9881099999999999  0.35894  0.0478  1.0000
  C   C516      1.0  0.029890000000000024  0.4058300000000001  0.07538  1.0000
  C   C517      1.0  0.03818000000000002  0.43068000000000006  0.12637  1.0000
  C   C518      1.0  0.9983599999999999  0.40457  0.89863  1.0000
  C   C519      1.0  0.9540899999999999  0.34965  0.12187  1.0000
  C   C520      1.0  0.95214  0.32872  0.07127  1.0000
  C   C521      1.0  0.06573000000000002  0.32698  0.03006  1.0000
  C   C522      1.0  0.08015999999999998  0.29349  0.05427  1.0000
  C   C523      1.0  0.062229999999999994  0.18828000000000003  0.057719999999999994  1.0000
  C   C524      1.0  0.03572999999999999  0.11863000000000001  0.06745  1.0000
  C   C525      1.0  0.040899999999999964  0.57636  0.03448  1.0000
  C   C526      1.0  0.07856999999999996  0.57351  0.05714  1.0000
  C   C527      1.0  0.12118000000000001  0.63613  0.07776  1.0000
  C   C528      1.0  0.16211  0.14717000000000005  0.06794  1.0000
  H   H438      1.0  0.9803999999999999  0.16067  0.05209  1.0000
  H   H439      1.0  0.95882  0.22552  0.03105  1.0000
  H   H440      1.0  0.05655999999999999  0.42401  0.05549  1.0000
  H   H441      1.0  0.0018699999999999806  0.42748  0.93555  1.0000
  H   H442      1.0  0.9219099999999999  0.28918  0.04851  1.0000
  H   H443      1.0  0.08853  0.37148  0.018  1.0000
  H   H444      1.0  0.11444  0.31284  0.05969  1.0000
  H   H445      1.0  0.09723  0.21755  0.06259  1.0000
  H   H446      1.0  0.05438000000000001  0.1796  0.0179  1.0000
  H   H447      1.0  0.0010299999999999667  0.59794  0.05335  1.0000
  H   H448      1.0  0.04023999999999999  0.11057  0.10945  1.0000
  H   H449      1.0  0.043179999999999906  0.58773  0.99391  1.0000
  H   H450      1.0  0.011039999999999996  0.52883  0.0318  1.0000
  H   H451      1.0  0.06919  0.54526  0.09038  1.0000
  H   H452      1.0  0.08185  0.54851  0.02695  1.0000
  H   H453      1.0  0.12546999999999997  0.17825  0.82026  1.0000
  H   H454      1.0  0.12308000000000001  0.6402  0.8694  1.0000
  H   H455      1.0  0.18557999999999997  0.19554999999999997  0.06216  1.0000
  H   H456      1.0  0.15493  0.61335  0.03669  1.0000
  Ca  Ca13      1.0  0.72145  0.61761  0.12703  1.0000
  Cd  Cd25      1.0  0.15441999999999997  0.08006999999999999  0.18383999999999998  1.0000
  Cd  Cd26      1.0  0.8021600000000001  0.69412  0.36685  1.0000
  C   C529      1.0  0.17898  0.63072  0.11154  1.0000
  C   C530      1.0  0.7700399999999998  0.7967600000000001  0.10429999999999999  1.0000
  C   C531      1.0  0.90878  0.81484  0.39091  1.0000
  C   C532      1.0  0.13956999999999997  0.15283  0.21151  1.0000
  C   C533      1.0  0.7274899999999996  0.59556  0.23017999999999997  1.0000
  C   C534      1.0  0.7412399999999999  0.61137  0.27815  1.0000
  O   O181      1.0  0.7788600000000001  0.59364  0.13592  1.0000
  O   O182      1.0  0.7790399999999998  0.09244  0.38479  1.0000
  O   O183      1.0  0.12312999999999999  0.0169  0.12453  1.0000
  O   O184      1.0  0.09846  0.007880000000000002  0.20065999999999998  1.0000
  O   O185      1.0  0.15246  0.57248  0.11428  1.0000
  O   O186      1.0  0.19386999999999993  0.66453  0.15659  1.0000
  O   O187      1.0  0.77188  0.7495000000000002  0.13142  1.0000
  O   O188      1.0  0.77279  0.75308  0.36709  1.0000
  O   O189      1.0  0.87209  0.7596300000000001  0.11773999999999998  1.0000
  O   O190      1.0  0.8731099999999999  0.7594  0.36681  1.0000
  O   O191      1.0  0.10869999999999999  0.09445999999999999  0.44487000000000004  1.0000
  O   O192      1.0  0.17861  0.16678  0.21684  1.0000
  O   O193      1.0  0.7436399999999999  0.64177  0.20436  1.0000
  O   O194      1.0  0.18896  0.05234  0.21456  1.0000
  O   O195      1.0  0.7108699999999999  0.58228  0.30445  1.0000
  O   O196      1.0  0.77968  0.66419  0.29474  1.0000
  C   C535      1.0  0.7759099999999998  0.043100000000000006  0.10826  1.0000
  C   C536      1.0  0.08798  0.98449  0.15111  1.0000
  C   C537      1.0  0.93278  0.055240000000000004  0.17786  1.0000
  C   C538      1.0  0.91043  0.0795  0.18725999999999998  1.0000
  C   C539      1.0  0.88381  0.0543  0.22329  1.0000
  C   C540      1.0  0.87583  0.0012499999999999927  0.24522999999999998  1.0000
  N   N49       1.0  0.8468099999999998  0.9746800000000001  0.27997  1.0000
  N   N50       1.0  0.80663  0.94349  0.26253  1.0000
  C   C541      1.0  0.78852  0.93078  0.20734  1.0000
  C   C542      1.0  0.78357  0.87955  0.18089  1.0000
  C   C543      1.0  0.7714299999999998  0.86283  0.12624  1.0000
  C   C544      1.0  0.76603  0.91517  0.10012  1.0000
  C   C545      1.0  0.7742499999999998  0.97673  0.12834  1.0000
  C   C546      1.0  0.7845099999999998  0.9761700000000001  0.18277  1.0000
  C   C547      1.0  0.89122  0.96998  0.22703  1.0000
  C   C548      1.0  0.9190799999999999  0.9963300000000002  0.19216  1.0000
  C   C549      1.0  0.9799699999999999  0.10018  0.18785  1.0000
  C   C550      1.0  0.001000000000000001  0.65458  0.15404  1.0000
  C   C551      1.0  0.04934999999999999  0.70335  0.18111999999999998  1.0000
  C   C552      1.0  0.09778999999999997  0.7509300000000001  0.17777  1.0000
  C   C553      1.0  0.12296999999999993  0.72346  0.17348  1.0000
  C   C554      1.0  0.13143  0.1982  0.22356  1.0000
  H   H457      1.0  0.9216799999999999  0.62519  0.17513  1.0000
  H   H458      1.0  0.8705199999999998  0.07734  0.23525  1.0000
  H   H459      1.0  0.7922199999999999  0.85332  0.20492  1.0000
  H   H460      1.0  0.7535899999999999  0.9068900000000001  0.05754999999999999  1.0000
  H   H461      1.0  0.79292  0.01548  0.20768  1.0000
  H   H462      1.0  0.88323  0.9269699999999998  0.24133  1.0000
  H   H463      1.0  0.9361800000000002  0.9767400000000003  0.18522  1.0000
  H   H464      1.0  0.9946399999999999  0.07501  0.18572  1.0000
  H   H465      1.0  0.9893399999999998  0.62004  0.22722  1.0000
  H   H466      1.0  0.98309  0.67551  0.148  1.0000
  H   H467      1.0  0.99375  0.12806  0.11846  1.0000
  H   H468      1.0  0.05409  0.66905  0.19448000000000001  1.0000
  H   H469      1.0  0.045280000000000035  0.7292  0.20918  1.0000
  H   H470      1.0  0.10268  0.78189  0.14777  1.0000
  H   H471      1.0  0.11497999999999997  0.78157  0.21581999999999998  1.0000
  H   H472      1.0  0.10135  0.68489  0.1443  1.0000
  H   H473      1.0  0.15360999999999994  0.75511  0.16024  1.0000
  H   H474      1.0  0.10291999999999997  0.17208  0.23988999999999996  1.0000
  H   H475      1.0  0.15826999999999994  0.73563  0.25375  1.0000
  C   C555      1.0  0.04932000000000007  0.7309300000000001  0.31144  1.0000
  C   C556      1.0  0.005860000000000012  0.70836  0.30372  1.0000
  C   C557      1.0  0.9927399999999997  0.74487  0.28744  1.0000
  C   C558      1.0  0.021100000000000032  0.79946  0.26795  1.0000
  N   N51       1.0  0.0025600000000000267  0.8211900000000001  0.23057  1.0000
  N   N52       1.0  0.9830599999999999  0.84179  0.2439  1.0000
  C   C559      1.0  0.9879899999999999  0.8590500000000001  0.29762  1.0000
  C   C560      1.0  0.02980000000000006  0.9058  0.3252  1.0000
  C   C561      1.0  0.03817  0.93065  0.37621  1.0000
  C   C562      1.0  0.9979199999999998  0.90521  0.14838  1.0000
  C   C563      1.0  0.9540800000000003  0.8499300000000001  0.37179000000000006  1.0000
  C   C564      1.0  0.95204  0.82905  0.32111  1.0000
  C   C565      1.0  0.06555999999999991  0.82691  0.28002  1.0000
  C   C566      1.0  0.08005  0.79349  0.30425  1.0000
  C   C567      1.0  0.06219999999999999  0.68833  0.30782  1.0000
  C   C568      1.0  0.035709999999999985  0.6187  0.31761  1.0000
  C   C569      1.0  0.04105  0.07626  0.28453  1.0000
  C   C570      1.0  0.07870999999999999  0.0735  0.3075  1.0000
  C   C571      1.0  0.12136999999999999  0.13618  0.32808  1.0000
  C   C572      1.0  0.16193  0.64692  0.31783  1.0000
  H   H476      1.0  0.98041  0.66063  0.30236  1.0000
  H   H477      1.0  0.95868  0.72535  0.28116  1.0000
  H   H478      1.0  0.05646000000000003  0.92379  0.30532  1.0000
  H   H479      1.0  0.0012799999999999901  0.92841  0.18504  1.0000
  H   H480      1.0  0.9217599999999999  0.78955  0.2984  1.0000
  H   H481      1.0  0.08832000000000007  0.8713700000000001  0.26788  1.0000
  H   H482      1.0  0.1143299999999999  0.81287  0.30961  1.0000
  H   H483      1.0  0.09721  0.71762  0.3127  1.0000
  H   H484      1.0  0.054349999999999996  0.67963  0.26801  1.0000
  H   H485      1.0  0.0010200000000000053  0.09777  0.30315  1.0000
  H   H486      1.0  0.04031000000000002  0.61067  0.35960999999999993  1.0000
  H   H487      1.0  0.04345000000000001  0.08752  0.24394  1.0000
  H   H488      1.0  0.01117  0.028730000000000002  0.28181  1.0000
  H   H489      1.0  0.06924000000000001  0.045380000000000004  0.34080000000000005  1.0000
  H   H490      1.0  0.08200999999999999  0.04836  0.27744  1.0000
  H   H491      1.0  0.12445999999999993  0.67685  0.06972  1.0000
  H   H492      1.0  0.12241  0.13888  0.11885  1.0000
  H   H493      1.0  0.18537  0.69523  0.31193  1.0000
  H   H494      1.0  0.15493999999999997  0.11358999999999998  0.28686  1.0000
  Ca  Ca14      1.0  0.72083  0.61038  0.3764799999999999  1.0000
  Cd  Cd27      1.0  0.15425  0.07932  0.43393  1.0000
  Cd  Cd28      1.0  0.80063  0.69543  0.61518  1.0000
  C   C573      1.0  0.17868999999999993  0.63016  0.36146  1.0000
  C   C574      1.0  0.75312  0.7837200000000001  0.36672  1.0000
  C   C575      1.0  0.9077599999999999  0.81557  0.63988  1.0000
  C   C576      1.0  0.13952999999999996  0.15245  0.46114999999999995  1.0000
  C   C577      1.0  0.72796  0.60007  0.48028  1.0000
  C   C578      1.0  0.7408799999999998  0.62001  0.52728  1.0000
  O   O197      1.0  0.78168  0.5941  0.38699999999999996  1.0000
  O   O198      1.0  0.78079  0.09203000000000001  0.63725  1.0000
  O   O199      1.0  0.12312999999999999  0.01659  0.37427  1.0000
  O   O200      1.0  0.0983  0.007579999999999993  0.45042999999999994  1.0000
  O   O201      1.0  0.1521499999999999  0.57193  0.36405999999999994  1.0000
  O   O202      1.0  0.19351  0.66376  0.40665  1.0000
  O   O203      1.0  0.76549  0.74076  0.36735  1.0000
  O   O204      1.0  0.7716199999999998  0.75186  0.63004  1.0000
  O   O205      1.0  0.8720699999999998  0.75958  0.61691  1.0000
  O   O206      1.0  0.10851999999999999  0.09461  0.69545  1.0000
  O   O207      1.0  0.17853  0.16622  0.46672  1.0000
  O   O208      1.0  0.7435899999999998  0.64332  0.45147  1.0000
  O   O209      1.0  0.18769999999999995  0.04978  0.4647899999999999  1.0000
  O   O210      1.0  0.7108499999999996  0.59266  0.55358  1.0000
  O   O211      1.0  0.7786799999999999  0.67308  0.54292  1.0000
  C   C579      1.0  0.77163  0.04136999999999999  0.35691999999999996  1.0000
  C   C580      1.0  0.08802999999999997  0.98418  0.40093  1.0000
  C   C581      1.0  0.93389  0.05563  0.4268  1.0000
  C   C582      1.0  0.9122399999999999  0.08073  0.43705  1.0000
  C   C583      1.0  0.8881299999999999  0.05827  0.47569  1.0000
  C   C584      1.0  0.88116  0.006360000000000006  0.49888  1.0000
  N   N53       1.0  0.85091  0.97929  0.53161  1.0000
  N   N54       1.0  0.8112699999999999  0.94972  0.51155  1.0000
  C   C585      1.0  0.7952699999999998  0.9385199999999999  0.45589  1.0000
  C   C586      1.0  0.7915899999999998  0.88843  0.42956  1.0000
  C   C587      1.0  0.7714799999999999  0.8637099999999999  0.37686  1.0000
  C   C588      1.0  0.76041  0.91135  0.3511600000000001  1.0000
  C   C589      1.0  0.77271  0.97692  0.37751  1.0000
  C   C590      1.0  0.7886999999999998  0.9815500000000001  0.43132  1.0000
  C   C591      1.0  0.8948999999999999  0.97337  0.47961999999999994  1.0000
  C   C592      1.0  0.92056  0.99727  0.44227999999999995  1.0000
  C   C593      1.0  0.98099  0.10009000000000001  0.43661  1.0000
  C   C594      1.0  0.99987  0.65344  0.40404  1.0000
  C   C595      1.0  0.04852  0.70205  0.43043  1.0000
  C   C596      1.0  0.09715000000000004  0.7502900000000001  0.42780000000000007  1.0000
  C   C597      1.0  0.12276000000000005  0.72345  0.42356999999999995  1.0000
  C   C598      1.0  0.13143  0.19788  0.47332  1.0000
  H   H495      1.0  0.92006  0.62434  0.42637  1.0000
  H   H496      1.0  0.8747999999999999  0.08134  0.48754  1.0000
  H   H497      1.0  0.8018799999999998  0.8639499999999999  0.45366  1.0000
  H   H498      1.0  0.74092  0.89669  0.3109  1.0000
  H   H499      1.0  0.7976399999999999  0.02155000000000001  0.45568  1.0000
  H   H500      1.0  0.8863999999999999  0.93014  0.49393  1.0000
  H   H501      1.0  0.9367600000000003  0.9766500000000002  0.43428  1.0000
  H   H502      1.0  0.99558  0.07494999999999999  0.43316  1.0000
  H   H503      1.0  0.98775  0.62279  0.47832  1.0000
  H   H504      1.0  0.98222  0.67476  0.39717  1.0000
  H   H505      1.0  0.99523  0.13037  0.3681900000000001  1.0000
  H   H506      1.0  0.05321  0.6674  0.44329  1.0000
  H   H507      1.0  0.04451999999999999  0.72789  0.45867  1.0000
  H   H508      1.0  0.10219000000000006  0.7816500000000001  0.39809  1.0000
  H   H509      1.0  0.11405000000000003  0.78063  0.46603  1.0000
  H   H510      1.0  0.10147000000000005  0.68502  0.39424000000000003  1.0000
  H   H511      1.0  0.1534299999999999  0.7554699999999999  0.4104999999999999  1.0000
  H   H512      1.0  0.10295999999999997  0.17171  0.48978  1.0000
  H   H513      1.0  0.15816999999999998  0.73555  0.50369  1.0000
  C   C599      1.0  0.049320000000000024  0.73064  0.56098  1.0000
  C   C600      1.0  0.005879999999999958  0.70829  0.55336  1.0000
  C   C601      1.0  0.99288  0.74499  0.53744  1.0000
  C   C602      1.0  0.02127000000000004  0.7995900000000001  0.51804  1.0000
  N   N55       1.0  0.0027400000000000068  0.82133  0.48071  1.0000
  N   N56       1.0  0.98297  0.84148  0.4940399999999999  1.0000
  C   C603      1.0  0.98775  0.85856  0.54776  1.0000
  C   C604      1.0  0.029529999999999997  0.90547  0.57535  1.0000
  C   C605      1.0  0.03781000000000009  0.9306500000000001  0.62616  1.0000
  C   C606      1.0  0.99843  0.90489  0.39854999999999996  1.0000
  C   C607      1.0  0.95344  0.84987  0.62144  1.0000
  C   C608      1.0  0.95165  0.82863  0.57104  1.0000
  C   C609      1.0  0.06571000000000006  0.8268800000000001  0.53001  1.0000
  C   C610      1.0  0.08010999999999988  0.79325  0.55398  1.0000
  C   C611      1.0  0.06214999999999999  0.68793  0.55718  1.0000
  C   C612      1.0  0.03577000000000001  0.61829  0.56701  1.0000
  C   C613      1.0  0.04077  0.07645  0.53475  1.0000
  C   C614      1.0  0.07842999999999999  0.0735  0.55723  1.0000
  C   C615      1.0  0.12102  0.13602  0.57808  1.0000
  C   C616      1.0  0.16225  0.6474  0.56795  1.0000
  H   H514      1.0  0.98024  0.66057  0.55171  1.0000
  H   H515      1.0  0.9588299999999998  0.72553  0.53117  1.0000
  H   H516      1.0  0.05624999999999999  0.92347  0.55557  1.0000
  H   H517      1.0  0.0019500000000000901  0.9277800000000002  0.43551  1.0000
  H   H518      1.0  0.9214099999999998  0.7891300000000001  0.54826  1.0000
  H   H519      1.0  0.08851000000000002  0.87142  0.51803  1.0000
  H   H520      1.0  0.11438999999999995  0.8126099999999999  0.55939  1.0000
  H   H521      1.0  0.09714999999999997  0.71732  0.56216  1.0000
  H   H522      1.0  0.05423999999999997  0.679  0.5173  1.0000
  H   H523      1.0  0.0010400000000000036  0.09824  0.55357  1.0000
  H   H524      1.0  0.04037999999999999  0.61046  0.60907  1.0000
  H   H525      1.0  0.04302  0.08781  0.49419  1.0000
  H   H526      1.0  0.010880000000000003  0.028940000000000004  0.53208  1.0000
  H   H527      1.0  0.069  0.04507000000000001  0.59033  1.0000
  H   H528      1.0  0.08172999999999998  0.04866  0.52688  1.0000
  H   H529      1.0  0.12435000000000004  0.67671  0.31988  1.0000
  H   H530      1.0  0.12277  0.13935  0.36888  1.0000
  H   H531      1.0  0.1856  0.69575  0.56205  1.0000
  H   H532      1.0  0.1548  0.11347  0.5367  1.0000
  Ca  Ca15      1.0  0.72155  0.61765  0.62715  1.0000
  Cd  Cd29      1.0  0.15414  0.07992  0.68378  1.0000
  Cd  Cd30      1.0  0.8017999999999997  0.69428  0.86706  1.0000
  C   C617      1.0  0.17915999999999993  0.63098  0.61165  1.0000
  C   C618      1.0  0.7703299999999997  0.7970999999999999  0.60455  1.0000
  C   C619      1.0  0.9086299999999999  0.81476  0.89085  1.0000
  C   C620      1.0  0.13933999999999996  0.15254  0.71195  1.0000
  C   C621      1.0  0.72784  0.59612  0.73046  1.0000
  C   C622      1.0  0.7411699999999998  0.61248  0.77833  1.0000
  O   O212      1.0  0.77926  0.59421  0.63562  1.0000
  O   O213      1.0  0.77915  0.09183  0.8866  1.0000
  O   O214      1.0  0.12302  0.016719999999999992  0.62428  1.0000
  O   O215      1.0  0.09811999999999999  0.007950000000000002  0.70024  1.0000
  O   O216      1.0  0.15289  0.57272  0.61435  1.0000
  O   O217      1.0  0.19382999999999995  0.6646799999999999  0.6567599999999999  1.0000
  O   O218      1.0  0.7715299999999999  0.74937  0.63174  1.0000
  O   O219      1.0  0.77331  0.75435  0.86748  1.0000
  O   O220      1.0  0.87324  0.75849  0.8676099999999999  1.0000
  O   O221      1.0  0.10872999999999998  0.09482  0.94515  1.0000
  O   O222      1.0  0.17834999999999998  0.16665  0.71668  1.0000
  O   O223      1.0  0.7440899999999997  0.64212  0.7044199999999999  1.0000
  O   O224      1.0  0.18832  0.05207  0.71555  1.0000
  O   O225      1.0  0.71057  0.5841199999999999  0.8042899999999998  1.0000
  O   O226      1.0  0.7796799999999999  0.66503  0.7949899999999999  1.0000
  C   C623      1.0  0.7758999999999999  0.04344000000000001  0.60867  1.0000
  C   C624      1.0  0.08782000000000002  0.9844100000000001  0.6508099999999999  1.0000
  C   C625      1.0  0.9328799999999999  0.055399999999999984  0.67809  1.0000
  C   C626      1.0  0.91041  0.07949  0.68736  1.0000
  C   C627      1.0  0.8837199999999998  0.05415999999999997  0.7233099999999999  1.0000
  C   C628      1.0  0.8757799999999998  0.0010999999999999923  0.7452299999999998  1.0000
  N   N57       1.0  0.84678  0.9744700000000001  0.78002  1.0000
  N   N58       1.0  0.8065899999999999  0.9433900000000001  0.76266  1.0000
  C   C629      1.0  0.7884699999999999  0.93077  0.70748  1.0000
  C   C630      1.0  0.78349  0.87955  0.6810299999999999  1.0000
  C   C631      1.0  0.7713600000000002  0.86289  0.62643  1.0000
  C   C632      1.0  0.7659799999999999  0.9153  0.6003  1.0000
  C   C633      1.0  0.77421  0.9769000000000001  0.62854  1.0000
  C   C634      1.0  0.7844700000000001  0.9762000000000001  0.68295  1.0000
  C   C635      1.0  0.8912499999999999  0.9699600000000002  0.72704  1.0000
  C   C636      1.0  0.91922  0.99647  0.69229  1.0000
  C   C637      1.0  0.98006  0.10051  0.68826  1.0000
  C   C638      1.0  0.0009600000000000159  0.65435  0.6539299999999999  1.0000
  C   C639      1.0  0.04933  0.70319  0.68097  1.0000
  C   C640      1.0  0.09780999999999992  0.7507199999999999  0.6777  1.0000
  C   C641      1.0  0.12301000000000001  0.72319  0.67362  1.0000
  C   C642      1.0  0.13134  0.19808000000000003  0.7239  1.0000
  H   H533      1.0  0.9215499999999998  0.62506  0.67515  1.0000
  H   H534      1.0  0.87037  0.07712  0.73523  1.0000
  H   H535      1.0  0.7920899999999997  0.8532100000000001  0.70495  1.0000
  H   H536      1.0  0.75353  0.90704  0.55772  1.0000
  H   H537      1.0  0.7928799999999998  0.015439999999999982  0.7079299999999998  1.0000
  H   H538      1.0  0.8832699999999999  0.9269300000000001  0.7412699999999999  1.0000
  H   H539      1.0  0.93639  0.9769900000000001  0.68538  1.0000
  H   H540      1.0  0.99484  0.07544  0.68651  1.0000
  H   H541      1.0  0.9892299999999999  0.6204  0.72728  1.0000
  H   H542      1.0  0.9830599999999999  0.67529  0.64772  1.0000
  H   H543      1.0  0.9936899999999995  0.12791  0.61868  1.0000
  H   H544      1.0  0.05407000000000001  0.66887  0.6943399999999998  1.0000
  H   H545      1.0  0.04525999999999995  0.72909  0.70901  1.0000
  H   H546      1.0  0.10269000000000002  0.7816  0.64759  1.0000
  H   H547      1.0  0.11495999999999995  0.7814699999999999  0.7156999999999999  1.0000
  H   H548      1.0  0.10133999999999993  0.68462  0.64443  1.0000
  H   H549      1.0  0.1536399999999999  0.7548299999999999  0.66035  1.0000
  H   H550      1.0  0.10282999999999999  0.17218  0.7402200000000001  1.0000
  H   H551      1.0  0.15832999999999992  0.73543  0.7540099999999998  1.0000
  C   C643      1.0  0.04934999999999999  0.73084  0.81123  1.0000
  C   C644      1.0  0.005849999999999992  0.70831  0.80318  1.0000
  C   C645      1.0  0.9928699999999998  0.7450000000000001  0.78717  1.0000
  C   C646      1.0  0.02132999999999997  0.79969  0.7679  1.0000
  N   N59       1.0  0.0028999999999999937  0.82169  0.7307  1.0000
  N   N60       1.0  0.98336  0.84212  0.7442  1.0000
  C   C647      1.0  0.9882099999999998  0.8590200000000001  0.79799  1.0000
  C   C648      1.0  0.030020000000000026  0.90583  0.82564  1.0000
  C   C649      1.0  0.03835999999999996  0.93073  0.8766  1.0000
  C   C650      1.0  0.99785  0.90496  0.64822  1.0000
  C   C651      1.0  0.95412  0.84958  0.87203  1.0000
  C   C652      1.0  0.9521999999999999  0.8287300000000001  0.8214099999999999  1.0000
  C   C653      1.0  0.0657699999999999  0.82703  0.7800699999999999  1.0000
  C   C654      1.0  0.08015  0.7934500000000001  0.8042199999999999  1.0000
  C   C655      1.0  0.06225999999999997  0.68823  0.80762  1.0000
  C   C656      1.0  0.035990000000000015  0.61858  0.81743  1.0000
  C   C657      1.0  0.041839999999999995  0.07659  0.78502  1.0000
  C   C658      1.0  0.08009000000000001  0.07487000000000002  0.80788  1.0000
  C   C659      1.0  0.12256000000000002  0.13793  0.82874  1.0000
  C   C660      1.0  0.16403  0.65029  0.82047  1.0000
  H   H552      1.0  0.9802699999999999  0.66053  0.80137  1.0000
  H   H553      1.0  0.95882  0.72555  0.78082  1.0000
  H   H554      1.0  0.05671000000000005  0.92399  0.80579  1.0000
  H   H555      1.0  0.001240000000000005  0.9280400000000001  0.68497  1.0000
  H   H556      1.0  0.9219399999999998  0.78924  0.7986299999999998  1.0000
  H   H557      1.0  0.08859999999999991  0.87156  0.7681  1.0000
  H   H558      1.0  0.11442999999999999  0.81281  0.80969  1.0000
  H   H559      1.0  0.09718999999999998  0.71759  0.8122299999999999  1.0000
  H   H560      1.0  0.05425999999999996  0.67939  0.76783  1.0000
  H   H561      1.0  0.0013300000000000354  0.09764000000000003  0.8030500000000002  1.0000
  H   H562      1.0  0.04045999999999999  0.61056  0.8594400000000001  1.0000
  H   H563      1.0  0.043669999999999994  0.08713000000000003  0.74416  1.0000
  H   H564      1.0  0.012230000000000003  0.02888  0.78282  1.0000
  H   H565      1.0  0.07071999999999999  0.046499999999999986  0.84105  1.0000
  H   H566      1.0  0.08373999999999998  0.05012999999999998  0.7779  1.0000
  H   H567      1.0  0.12438999999999992  0.67661  0.56994  1.0000
  H   H568      1.0  0.12225999999999997  0.13871  0.61902  1.0000
  H   H569      1.0  0.18813999999999997  0.6994800000000001  0.81668  1.0000
  H   H570      1.0  0.15760999999999997  0.11766999999999997  0.7884399999999999  1.0000
  Ca  Ca16      1.0  0.72075  0.61282  0.87629  1.0000
  Cd  Cd31      1.0  0.15439  0.07962  0.93477  1.0000
  Cd  Cd32      1.0  0.80066  0.69532  0.11532  1.0000
  C   C661      1.0  0.17975  0.6313199999999999  0.86381  1.0000
  C   C662      1.0  0.75318  0.78437  0.86687  1.0000
  C   C663      1.0  0.9077599999999999  0.8159800000000001  0.13998  1.0000
  C   C664      1.0  0.13954999999999998  0.15279  0.96156  1.0000
  C   C665      1.0  0.7282399999999999  0.60067  0.9801  1.0000
  C   C666      1.0  0.74121  0.62013  0.02722  1.0000
  O   O227      1.0  0.7802699999999999  0.59384  0.88728  1.0000
  O   O228      1.0  0.7809799999999999  0.09221  0.13611  1.0000
  O   O229      1.0  0.12375999999999997  0.017040000000000007  0.87515  1.0000
  O   O230      1.0  0.09823999999999997  0.00806  0.9508  1.0000
  O   O231      1.0  0.15256000000000006  0.5728  0.8654  1.0000
  O   O232      1.0  0.19540999999999997  0.66413  0.90962  1.0000
  O   O233      1.0  0.7662199999999998  0.74246  0.86735  1.0000
  O   O234      1.0  0.7716099999999999  0.7519999999999999  0.13035  1.0000
  O   O235      1.0  0.10878999999999998  0.09483  0.19519  1.0000
  O   O236      1.0  0.17857  0.16654  0.96731  1.0000
  O   O237      1.0  0.74366  0.64451  0.95177  1.0000
  O   O238      1.0  0.18739999999999998  0.04949999999999998  0.9658699999999999  1.0000
  O   O239      1.0  0.71102  0.59303  0.05334  1.0000
  O   O240      1.0  0.7791699999999998  0.67294  0.04306999999999999  1.0000
  C   C667      1.0  0.7718799999999998  0.04106999999999998  0.85848  1.0000
  C   C668      1.0  0.08831000000000004  0.98455  0.90143  1.0000
  C   C669      1.0  0.9338999999999998  0.05567000000000001  0.92668  1.0000
  C   C670      1.0  0.9123399999999999  0.0808  0.93726  1.0000
  C   C671      1.0  0.8885099999999999  0.05843999999999998  0.9762  1.0000
  C   C672      1.0  0.8815999999999999  0.0064700000000000035  0.99922  1.0000
  N   N61       1.0  0.85153  0.97934  0.03219  1.0000
  N   N62       1.0  0.81185  0.94946  0.01238  1.0000
  C   C673      1.0  0.7955899999999997  0.93832  0.95678  1.0000
  C   C674      1.0  0.7916699999999999  0.88827  0.93014  1.0000
  C   C675      1.0  0.7714200000000001  0.86393  0.87747  1.0000
  C   C676      1.0  0.7600799999999999  0.9112100000000001  0.8521  1.0000
  C   C677      1.0  0.7726399999999999  0.9766  0.87879  1.0000
  C   C678      1.0  0.7890599999999999  0.98142  0.93245  1.0000
  C   C679      1.0  0.8951799999999999  0.97345  0.97962  1.0000
  C   C680      1.0  0.9205999999999998  0.99728  0.94203  1.0000
  C   C681      1.0  0.98101  0.10011  0.93647  1.0000
  C   C682      1.0  0.0008600000000000065  0.65448  0.90392  1.0000
  C   C683      1.0  0.04925000000000017  0.7033000000000003  0.93095  1.0000
  C   C684      1.0  0.09776000000000003  0.75096  0.92779  1.0000
  C   C685      1.0  0.12298000000000002  0.72355  0.92349  1.0000
  C   C686      1.0  0.13153  0.19831000000000001  0.97358  1.0000
  H   H571      1.0  0.9213899999999999  0.62496  0.92525  1.0000
  H   H572      1.0  0.8753699999999999  0.08164000000000003  0.98842  1.0000
  H   H573      1.0  0.8018699999999999  0.8635  0.95391  1.0000
  H   H574      1.0  0.7401899999999999  0.89641  0.81201  1.0000
  H   H575      1.0  0.79847  0.021679999999999984  0.9568  1.0000
  H   H576      1.0  0.88676  0.93024  0.99391  1.0000
  H   H577      1.0  0.9367199999999998  0.9766299999999999  0.9337899999999999  1.0000
  H   H578      1.0  0.99562  0.07498  0.93309  1.0000
  H   H579      1.0  0.98917  0.62048  0.97727  1.0000
  H   H580      1.0  0.98296  0.6754199999999999  0.89777  1.0000
  H   H581      1.0  0.99527  0.13032  0.868  1.0000
  H   H582      1.0  0.05398999999999999  0.6689399999999999  0.94422  1.0000
  H   H583      1.0  0.045179999999999984  0.72912  0.95905  1.0000
  H   H584      1.0  0.10267999999999995  0.782  0.8978299999999999  1.0000
  H   H585      1.0  0.11489000000000008  0.7815300000000001  0.96588  1.0000
  H   H586      1.0  0.10130999999999997  0.68506  0.8943499999999999  1.0000
  H   H587      1.0  0.15360999999999997  0.7552200000000001  0.91022  1.0000
  H   H588      1.0  0.10305  0.17221  0.9899899999999999  1.0000
  H   H589      1.0  0.15823999999999994  0.73559  0.00367  1.0000
  C   C687      1.0  0.049309999999999916  0.73083  0.06123  1.0000
  C   C688      1.0  0.005829999999999999  0.70833  0.053279999999999994  1.0000
  C   C689      1.0  0.99284  0.74504  0.03741  1.0000
  C   C690      1.0  0.021259999999999973  0.79969  0.01808  1.0000
  N   N63       1.0  0.002739999999999914  0.8214899999999999  0.98082  1.0000
  N   N64       1.0  0.98299  0.8416200000000001  0.9942299999999998  1.0000
  C   C691      1.0  0.9877999999999999  0.85867  0.04796999999999999  1.0000
  C   C692      1.0  0.029599999999999994  0.90559  0.07556  1.0000
  C   C693      1.0  0.03790999999999996  0.9307999999999998  0.12641  1.0000
  C   C694      1.0  0.9984499999999997  0.9047900000000001  0.8987599999999999  1.0000
  C   C695      1.0  0.9534899999999998  0.85009  0.12164  1.0000
  C   C696      1.0  0.9517099999999997  0.82875  0.07129  1.0000
  C   C697      1.0  0.0657  0.82702  0.03012  1.0000
  C   C698      1.0  0.08011000000000007  0.7934500000000001  0.05423  1.0000
  C   C699      1.0  0.06219999999999999  0.6882  0.05759  1.0000
  C   C700      1.0  0.03577000000000001  0.6185  0.06731  1.0000
  C   C701      1.0  0.04086999999999999  0.07648  0.03464  1.0000
  C   C702      1.0  0.07849  0.0735  0.057289999999999994  1.0000
  C   C703      1.0  0.12112999999999999  0.13602  0.07797  1.0000
  C   C704      1.0  0.16218  0.64731  0.06789  1.0000
  H   H590      1.0  0.98022  0.66056  0.05143  1.0000
  H   H591      1.0  0.9587899999999999  0.72557  0.03108  1.0000
  H   H592      1.0  0.056299999999999996  0.92359  0.05573999999999999  1.0000
  H   H593      1.0  0.0017799999999999444  0.92773  0.93556  1.0000
  H   H594      1.0  0.92144  0.78927  0.0485  1.0000
  H   H595      1.0  0.08851000000000002  0.8715200000000001  0.01806  1.0000
  H   H596      1.0  0.11438999999999994  0.81281  0.05965  1.0000
  H   H597      1.0  0.09718999999999996  0.71754  0.0624  1.0000
  H   H598      1.0  0.054319999999999986  0.67947  0.01779  1.0000
  H   H599      1.0  0.0010300000000000016  0.09818  0.05335  1.0000
  H   H600      1.0  0.0403799999999999  0.61049  0.10932  1.0000
  H   H601      1.0  0.043200000000000016  0.08791000000000002  0.99409  1.0000
  H   H602      1.0  0.010980000000000002  0.028960000000000003  0.03187  1.0000
  H   H603      1.0  0.06905000000000001  0.045190000000000015  0.09048000000000002  1.0000
  H   H604      1.0  0.08175999999999997  0.0485  0.02707  1.0000
  H   H605      1.0  0.12517999999999987  0.6779999999999999  0.8203  1.0000
  H   H606      1.0  0.12347999999999998  0.1407  0.8694  1.0000
  H   H607      1.0  0.18563999999999997  0.69567  0.06203  1.0000
  H   H608      1.0  0.15485  0.11318  0.03673  1.0000
