data_image0
_chemical_formula_structural       O3Mg2CIn2CO4C2O2CO2CO2CO2C4NC12H6C3NC12H6O3Mg2CIn2CO4C2O2CO2CO2CO2C4NC12H6C3NC12H6O3Mg2CIn2CO4C2O2CO2CO2CO2C4NC12H6C3NC12H6O3Mg2CIn2CO4C2O2CO2CO2CO2C4NC12H6C3NC12H6O3Mg2CIn2CO4C2O2CO2CO2CO2C4NC12H6C3NC12H6O3Mg2CIn2CO4C2O2CO2CO2CO2C4NC12H6C3NC12H6O2InCO3NO2InCO3NO2InCO3NO2InCO3NO2InCO3NO2InCO3NO7C3OC3OC3OC3OC3OC3O6C12O33Mg2CInCOCO4C14H6C3NC12H6O3Mg2CInCOCO4C14H6C3NC12H6O3Mg2CInCOCO4C14H6C3NC12H6O3Mg2CInCOCO4C14H6C3NC12H6O3Mg2CInCOCO4C14H6C3NC12H6O3Mg2CInCOCO4C14H6C3NC12H6
_chemical_formula_sum              "O216 Mg24 C456 In24 N24 H144"
_cell_length_a       30.597
_cell_length_b       27.4435
_cell_length_c       20.599100000000004
_cell_angle_alpha    104.11899999999999
_cell_angle_beta     86.995
_cell_angle_gamma    124.916

_symmetry_space_group_name_H-M    'P 1'
_symmetry_Int_Tables_number       1

loop_
  _symmetry_equiv_pos_as_xyz
  'x,y,z'

loop_
  _atom_site_type_symbol
  _atom_site_label
  _atom_site_symmetry_multiplicity
  _atom_site_fract_x
  _atom_site_fract_y
  _atom_site_fract_z
  _atom_site_occupancy
  O   O1        1.0  0.37068  0.32907  0.13502  1.0000
  O   O2        1.0  0.41505  0.37118  0.23905999999999997  1.0000
  O   O3        1.0  0.32349  0.22223000000000007  0.43068  1.0000
  Mg  Mg1       1.0  0.3386700000000001  0.32349000000000006  0.27211  1.0000
  Mg  Mg2       1.0  0.72997  0.59316  0.41814999999999997  1.0000
  C   C1        1.0  0.6916600000000002  0.25281  0.13021  1.0000
  In  In1       1.0  0.289  0.26336  0.14409  1.0000
  In  In2       1.0  0.73291  0.6498300000000001  0.21739  1.0000
  C   C2        1.0  0.25886  0.54697  0.17963  1.0000
  O   O4        1.0  0.25066  0.58582  0.22229999999999997  1.0000
  O   O5        1.0  0.30995000000000006  0.19593000000000005  0.25616  1.0000
  O   O6        1.0  0.34017000000000003  0.28457  0.33922  1.0000
  O   O7        1.0  0.27323  0.24471000000000007  0.22776999999999997  1.0000
  C   C3        1.0  0.41712  0.36879  0.17479  1.0000
  C   C4        1.0  0.32560000000000006  0.22697000000000006  0.31918  1.0000
  O   O8        1.0  0.69645  0.26433  0.19659  1.0000
  O   O9        1.0  0.72674  0.24827  0.42719  1.0000
  C   C5        1.0  0.31031  0.19223  0.36747  1.0000
  O   O10       1.0  0.31266  0.37833  0.27629  1.0000
  O   O11       1.0  0.29368  0.34916  0.16222  1.0000
  C   C6        1.0  0.62264  0.52705  0.13158  1.0000
  O   O12       1.0  0.63655  0.64956  0.193  1.0000
  O   O13       1.0  0.68596  0.16029999999999997  0.28216  1.0000
  C   C7        1.0  0.29915000000000014  0.3868700000000001  0.22138  1.0000
  O   O14       1.0  0.64914  0.53673  0.41055  1.0000
  O   O15       1.0  0.65097  0.56347  0.19146  1.0000
  C   C8        1.0  0.64355  0.65414  0.25729  1.0000
  C   C9        1.0  0.32710000000000006  0.53914  0.31632  1.0000
  C   C10       1.0  0.3103000000000001  0.5574300000000001  0.27366  1.0000
  C   C11       1.0  0.28187  0.51883  0.21126  1.0000
  N   N1        1.0  0.27648000000000006  0.4620200000000001  0.18969999999999998  1.0000
  C   C12       1.0  0.29814  0.44488000000000005  0.23177  1.0000
  C   C13       1.0  0.32289  0.48509  0.2953799999999999  1.0000
  C   C14       1.0  0.35859  0.58083  0.37792  1.0000
  C   C15       1.0  0.3915  0.59972  0.42305999999999994  1.0000
  C   C16       1.0  0.43902  0.607  0.43656  1.0000
  C   C17       1.0  0.47591000000000006  0.6064000000000002  0.41606999999999994  1.0000
  C   C18       1.0  0.51357  0.6082800000000002  0.37174  1.0000
  C   C19       1.0  0.55433  0.60569  0.39299  1.0000
  C   C20       1.0  0.59659  0.11947  0.35424  1.0000
  C   C21       1.0  0.59782  0.13575000000000004  0.29458  1.0000
  C   C22       1.0  0.55394  0.63215  0.27043  1.0000
  C   C23       1.0  0.5117000000000002  0.6182000000000001  0.30877999999999994  1.0000
  H   H1        1.0  0.32234  0.60414  0.28852  1.0000
  H   H2        1.0  0.3417  0.4764000000000001  0.32968  1.0000
  H   H3        1.0  0.5544  0.59534  0.44009  1.0000
  H   H4        1.0  0.62913  0.11961000000000001  0.37243  1.0000
  H   H5        1.0  0.55323  0.64255  0.22326  1.0000
  H   H6        1.0  0.47923  0.61844  0.29082  1.0000
  C   C24       1.0  0.49842000000000003  0.38116  0.030840000000000003  1.0000
  C   C25       1.0  0.45972  0.3643  0.07349  1.0000
  C   C26       1.0  0.46913  0.39874  0.13954  1.0000
  N   N2        1.0  0.5215800000000002  0.45265000000000005  0.16262999999999997  1.0000
  C   C27       1.0  0.56293  0.47003999999999996  0.11961  1.0000
  C   C28       1.0  0.5499600000000001  0.43121000000000004  0.05441  1.0000
  C   C29       1.0  0.48903  0.33497000000000005  0.97239  1.0000
  C   C30       1.0  0.4944000000000001  0.29499000000000003  0.9477200000000001  1.0000
  C   C31       1.0  0.51613  0.2666800000000001  0.96375  1.0000
  C   C32       1.0  0.54434  0.26469  0.99901  1.0000
  C   C33       1.0  0.58199  0.26531  0.03602  1.0000
  C   C34       1.0  0.62863  0.27977  0.34095  1.0000
  C   C35       1.0  0.6653200000000001  0.27707000000000004  0.37278  1.0000
  C   C36       1.0  0.65503  0.25958  0.0998  1.0000
  C   C37       1.0  0.61003  0.25034  0.13137  1.0000
  C   C38       1.0  0.57341  0.25338  0.09895  1.0000
  H   H7        1.0  0.42293  0.31965  0.055850000000000004  1.0000
  H   H8        1.0  0.58044  0.4377500000000001  0.0213  1.0000
  H   H9        1.0  0.6363  0.29206  0.29371  1.0000
  H   H10       1.0  0.70112  0.28725  0.3496099999999999  1.0000
  H   H11       1.0  0.60247  0.23870000000000002  0.17903  1.0000
  H   H12       1.0  0.53799  0.24488  0.12262999999999999  1.0000
  O   O16       1.0  0.3707500000000001  0.3293400000000001  0.46832999999999997  1.0000
  O   O17       1.0  0.41512  0.37134  0.57235  1.0000
  O   O18       1.0  0.32329  0.22225  0.76399  1.0000
  Mg  Mg3       1.0  0.33874  0.32368  0.60546  1.0000
  Mg  Mg4       1.0  0.72957  0.59301  0.75131  1.0000
  C   C39       1.0  0.69168  0.25323  0.46365  1.0000
  In  In3       1.0  0.28905  0.26357  0.47752  1.0000
  In  In4       1.0  0.73299  0.64999  0.55047  1.0000
  C   C40       1.0  0.25871  0.54703  0.51303  1.0000
  O   O19       1.0  0.25052  0.58593  0.55562  1.0000
  O   O20       1.0  0.30999000000000004  0.19612  0.58947  1.0000
  O   O21       1.0  0.34022  0.28473000000000004  0.67257  1.0000
  O   O22       1.0  0.27325  0.2449  0.56119  1.0000
  C   C41       1.0  0.4172  0.3690100000000001  0.50807  1.0000
  C   C42       1.0  0.32559000000000005  0.22711000000000006  0.65251  1.0000
  O   O23       1.0  0.6965  0.26466  0.52982  1.0000
  O   O24       1.0  0.72665  0.24807000000000004  0.76056  1.0000
  C   C43       1.0  0.31016  0.19231  0.70077  1.0000
  O   O25       1.0  0.3127  0.37851  0.60969  1.0000
  O   O26       1.0  0.29361  0.3493  0.4956499999999999  1.0000
  C   C44       1.0  0.62277  0.52725  0.4648  1.0000
  O   O27       1.0  0.63681  0.64997  0.526  1.0000
  O   O28       1.0  0.68609  0.16043  0.61563  1.0000
  C   C45       1.0  0.29909000000000013  0.38700000000000007  0.55482  1.0000
  O   O29       1.0  0.64875  0.53667  0.74364  1.0000
  O   O30       1.0  0.65104  0.56374  0.52469  1.0000
  C   C46       1.0  0.64377  0.65457  0.5902999999999999  1.0000
  C   C47       1.0  0.3269000000000001  0.5392200000000001  0.6497499999999999  1.0000
  C   C48       1.0  0.31022  0.55756  0.607  1.0000
  C   C49       1.0  0.28171  0.5189  0.54468  1.0000
  N   N3        1.0  0.27631  0.46209000000000006  0.52314  1.0000
  C   C50       1.0  0.29794  0.44492000000000004  0.56524  1.0000
  C   C51       1.0  0.32256  0.48509  0.6289  1.0000
  C   C52       1.0  0.3584900000000001  0.5809300000000002  0.71128  1.0000
  C   C53       1.0  0.39148999999999995  0.5996299999999999  0.7562299999999998  1.0000
  C   C54       1.0  0.43892  0.6065700000000003  0.76926  1.0000
  C   C55       1.0  0.47575  0.60593  0.74857  1.0000
  C   C56       1.0  0.51343  0.60788  0.7042599999999999  1.0000
  C   C57       1.0  0.55428  0.60548  0.72561  1.0000
  C   C58       1.0  0.59666  0.11952  0.68771  1.0000
  C   C59       1.0  0.5979699999999999  0.13597  0.62814  1.0000
  C   C60       1.0  0.55405  0.63227  0.6032199999999999  1.0000
  C   C61       1.0  0.51165  0.61796  0.64137  1.0000
  H   H13       1.0  0.32241000000000003  0.6043300000000001  0.62172  1.0000
  H   H14       1.0  0.34125  0.47634000000000004  0.6632899999999999  1.0000
  H   H15       1.0  0.5543300000000001  0.5950900000000001  0.7726899999999999  1.0000
  H   H16       1.0  0.62915  0.11956000000000001  0.70585  1.0000
  H   H17       1.0  0.55341  0.64285  0.55614  1.0000
  H   H18       1.0  0.4791200000000001  0.6180700000000002  0.62333  1.0000
  C   C62       1.0  0.4985700000000002  0.3813200000000001  0.36417  1.0000
  C   C63       1.0  0.45986  0.36443  0.40681  1.0000
  C   C64       1.0  0.46922  0.3989400000000001  0.47278  1.0000
  N   N4        1.0  0.52167  0.45291000000000003  0.49588999999999994  1.0000
  C   C65       1.0  0.56301  0.4703100000000001  0.4528  1.0000
  C   C66       1.0  0.55003  0.4315300000000001  0.38763  1.0000
  C   C67       1.0  0.48934  0.33502  0.30572  1.0000
  C   C68       1.0  0.49449  0.29521  0.28096  1.0000
  C   C69       1.0  0.51609  0.26573  0.29612  1.0000
  C   C70       1.0  0.54325  0.26444  0.33349  1.0000
  C   C71       1.0  0.58159  0.26444000000000006  0.36854  1.0000
  C   C72       1.0  0.62875  0.28004  0.67481  1.0000
  C   C73       1.0  0.66533  0.27708  0.70658  1.0000
  C   C74       1.0  0.6549300000000001  0.25978999999999997  0.43317999999999995  1.0000
  C   C75       1.0  0.61001  0.25049  0.46463  1.0000
  C   C76       1.0  0.57304  0.25303  0.4323699999999999  1.0000
  H   H19       1.0  0.42312  0.31972  0.38925  1.0000
  H   H20       1.0  0.58049  0.43814000000000003  0.35445  1.0000
  H   H21       1.0  0.6364  0.2923  0.6276  1.0000
  H   H22       1.0  0.70108  0.28705  0.68323  1.0000
  H   H23       1.0  0.60257  0.23907  0.51257  1.0000
  H   H24       1.0  0.5377  0.24448  0.45593999999999996  1.0000
  O   O31       1.0  0.37051  0.32935  0.80167  1.0000
  O   O32       1.0  0.41488  0.37114  0.90567  1.0000
  O   O33       1.0  0.32335  0.222  0.09705  1.0000
  Mg  Mg5       1.0  0.33849  0.32357  0.93874  1.0000
  Mg  Mg6       1.0  0.72973  0.59304  0.08487  1.0000
  C   C77       1.0  0.69164  0.25289  0.79703  1.0000
  In  In5       1.0  0.2888  0.26354  0.8108  1.0000
  In  In6       1.0  0.7327300000000001  0.6498000000000002  0.88383  1.0000
  C   C78       1.0  0.25869  0.54717  0.84615  1.0000
  O   O34       1.0  0.25049  0.58609  0.88869  1.0000
  O   O35       1.0  0.30967000000000006  0.19588  0.9225699999999999  1.0000
  O   O36       1.0  0.33996  0.28449  0.00574  1.0000
  O   O37       1.0  0.273  0.24482000000000004  0.89445  1.0000
  C   C79       1.0  0.41696  0.36893000000000004  0.8414399999999999  1.0000
  C   C80       1.0  0.32532  0.22686  0.98561  1.0000
  O   O38       1.0  0.69654  0.2644  0.8633099999999999  1.0000
  O   O39       1.0  0.72669  0.248  0.09395  1.0000
  C   C81       1.0  0.31003000000000003  0.19204  0.03384  1.0000
  O   O40       1.0  0.31259  0.37857  0.94287  1.0000
  O   O41       1.0  0.29349000000000003  0.34933000000000003  0.82883  1.0000
  C   C82       1.0  0.62245  0.52708  0.79794  1.0000
  O   O42       1.0  0.6362700000000001  0.6493900000000001  0.85926  1.0000
  O   O43       1.0  0.68599  0.16047  0.94863  1.0000
  C   C83       1.0  0.29904  0.38708999999999993  0.8879699999999999  1.0000
  O   O44       1.0  0.64894  0.53665  0.07728  1.0000
  O   O45       1.0  0.6508  0.56343  0.85782  1.0000
  C   C84       1.0  0.6432  0.6539  0.92354  1.0000
  C   C85       1.0  0.32697000000000004  0.5393800000000001  0.98285  1.0000
  C   C86       1.0  0.31007000000000007  0.5576100000000002  0.9402400000000001  1.0000
  C   C87       1.0  0.28165  0.519  0.87786  1.0000
  N   N5        1.0  0.2763  0.46222  0.85629  1.0000
  C   C88       1.0  0.29802  0.4451  0.89833  1.0000
  C   C89       1.0  0.32283  0.48537  0.96188  1.0000
  C   C90       1.0  0.35846  0.58106  0.04445  1.0000
  C   C91       1.0  0.39138  0.59979  0.08951  1.0000
  C   C92       1.0  0.43875  0.60667  0.10280999999999998  1.0000
  C   C93       1.0  0.47553  0.60587  0.08221999999999999  1.0000
  C   C94       1.0  0.51306  0.60751  0.0378  1.0000
  C   C95       1.0  0.5539700000000001  0.6052200000000001  0.059179999999999996  1.0000
  C   C96       1.0  0.59657  0.11939  0.02065  1.0000
  C   C97       1.0  0.59782  0.13582000000000005  0.96109  1.0000
  C   C98       1.0  0.55334  0.6312599999999999  0.9364099999999999  1.0000
  C   C99       1.0  0.51107  0.61719  0.97474  1.0000
  H   H25       1.0  0.32208  0.6043  0.95511  1.0000
  H   H26       1.0  0.34174  0.47674  0.99612  1.0000
  H   H27       1.0  0.55421  0.59519  0.10645  1.0000
  H   H28       1.0  0.62908  0.11944000000000002  0.03875  1.0000
  H   H29       1.0  0.55251  0.64146  0.88914  1.0000
  H   H30       1.0  0.4784800000000001  0.61719  0.95668  1.0000
  C   C100      1.0  0.4980900000000001  0.3810600000000001  0.69741  1.0000
  C   C101      1.0  0.4595700000000001  0.36407000000000006  0.7403  1.0000
  C   C102      1.0  0.46898000000000006  0.39874  0.8061799999999999  1.0000
  N   N6        1.0  0.52142  0.45276000000000005  0.82912  1.0000
  C   C103      1.0  0.5627  0.47011  0.78597  1.0000
  C   C104      1.0  0.54961  0.4313  0.72074  1.0000
  C   C105      1.0  0.48871  0.33477000000000007  0.63898  1.0000
  C   C106      1.0  0.49362  0.29444  0.61492  1.0000
  C   C107      1.0  0.5153100000000003  0.26605  0.6314  1.0000
  C   C108      1.0  0.5438100000000003  0.26465  0.6666  1.0000
  C   C109      1.0  0.58178  0.26532  0.70324  1.0000
  C   C110      1.0  0.62915  0.28004  0.00768  1.0000
  C   C111      1.0  0.66553  0.27701  0.0397  1.0000
  C   C112      1.0  0.65492  0.25967  0.76676  1.0000
  C   C113      1.0  0.61009  0.25052  0.79847  1.0000
  C   C114      1.0  0.57331  0.25354  0.76637  1.0000
  H   H31       1.0  0.4229  0.31922  0.723  1.0000
  H   H32       1.0  0.58004  0.43788000000000005  0.6875  1.0000
  H   H33       1.0  0.63692  0.29247000000000006  0.96067  1.0000
  H   H34       1.0  0.70136  0.28705  0.01643  1.0000
  H   H35       1.0  0.60257  0.23888000000000004  0.84618  1.0000
  H   H36       1.0  0.53802  0.24508000000000002  0.79012  1.0000
  O   O46       1.0  0.37083  0.82908  0.13514  1.0000
  O   O47       1.0  0.41524  0.87128  0.23916  1.0000
  O   O48       1.0  0.32359  0.72227  0.43080999999999997  1.0000
  Mg  Mg7       1.0  0.33887  0.82363  0.27224999999999994  1.0000
  Mg  Mg8       1.0  0.73004  0.09331  0.41831999999999997  1.0000
  C   C115      1.0  0.69144  0.75274  0.13064  1.0000
  In  In7       1.0  0.28913  0.76341  0.14435  1.0000
  In  In8       1.0  0.73304  0.14993  0.21740999999999996  1.0000
  C   C116      1.0  0.25862  0.046820000000000014  0.17962  1.0000
  O   O49       1.0  0.25043  0.08571  0.22224999999999998  1.0000
  O   O50       1.0  0.31014  0.69603  0.25628  1.0000
  O   O51       1.0  0.34041000000000005  0.7846900000000001  0.33934  1.0000
  O   O52       1.0  0.27349  0.74478  0.22800999999999996  1.0000
  C   C117      1.0  0.41728000000000004  0.8688000000000001  0.17484  1.0000
  C   C118      1.0  0.3258  0.72708  0.3193  1.0000
  O   O53       1.0  0.6964  0.76433  0.19687  1.0000
  O   O54       1.0  0.7265900000000001  0.7481900000000002  0.42742  1.0000
  C   C119      1.0  0.31049000000000004  0.6923100000000001  0.36758  1.0000
  O   O55       1.0  0.31276  0.87839  0.27623  1.0000
  O   O56       1.0  0.29375  0.84915  0.16215999999999997  1.0000
  C   C120      1.0  0.62279  0.027099999999999996  0.13153999999999996  1.0000
  O   O57       1.0  0.6366800000000001  0.14956000000000003  0.19263  1.0000
  O   O58       1.0  0.68592  0.66022  0.28236  1.0000
  C   C121      1.0  0.2992  0.88688  0.2213  1.0000
  O   O59       1.0  0.6492400000000002  0.03691999999999999  0.41057999999999995  1.0000
  O   O60       1.0  0.65112  0.06352  0.19146  1.0000
  C   C122      1.0  0.6436  0.15417  0.25694  1.0000
  C   C123      1.0  0.32699  0.039060000000000004  0.31623  1.0000
  C   C124      1.0  0.31004  0.05727  0.27364  1.0000
  C   C125      1.0  0.28163  0.018670000000000006  0.21124999999999997  1.0000
  N   N7        1.0  0.27633  0.96191  0.18963999999999998  1.0000
  C   C126      1.0  0.29812  0.94484  0.23166  1.0000
  C   C127      1.0  0.32294  0.98511  0.29521  1.0000
  C   C128      1.0  0.35849  0.08077  0.37781  1.0000
  C   C129      1.0  0.39147  0.09964  0.42285  1.0000
  C   C130      1.0  0.43899  0.10682000000000001  0.43606  1.0000
  C   C131      1.0  0.4758200000000001  0.10616000000000002  0.41542  1.0000
  C   C132      1.0  0.51343  0.10795  0.37108  1.0000
  C   C133      1.0  0.55425  0.10551  0.39245  1.0000
  C   C134      1.0  0.59664  0.61959  0.35472  1.0000
  C   C135      1.0  0.5978400000000001  0.63585  0.29506  1.0000
  C   C136      1.0  0.55389  0.13192  0.26982999999999996  1.0000
  C   C137      1.0  0.51157  0.11782  0.30809  1.0000
  H   H37       1.0  0.32203  0.10394000000000003  0.28853  1.0000
  H   H38       1.0  0.34192  0.97654  0.32941  1.0000
  H   H39       1.0  0.55437  0.09528000000000003  0.43961999999999996  1.0000
  H   H40       1.0  0.6291600000000002  0.61967  0.37286  1.0000
  H   H41       1.0  0.55322  0.14238000000000003  0.22268  1.0000
  H   H42       1.0  0.47906  0.11797  0.29005  1.0000
  C   C138      1.0  0.4985  0.88119  0.030769999999999995  1.0000
  C   C139      1.0  0.45986  0.86427  0.07356  1.0000
  C   C140      1.0  0.46928  0.8987  0.13955  1.0000
  N   N8        1.0  0.52174  0.95267  0.16264  1.0000
  C   C141      1.0  0.56306  0.97009  0.11952999999999998  1.0000
  C   C142      1.0  0.55003  0.93135  0.05431  1.0000
  C   C143      1.0  0.48913  0.83503  0.9723099999999999  1.0000
  C   C144      1.0  0.49378  0.79442  0.9482399999999999  1.0000
  C   C145      1.0  0.51501  0.76563  0.96469  1.0000
  C   C146      1.0  0.54332  0.76395  0.00011  1.0000
  C   C147      1.0  0.58116  0.76448  0.03661  1.0000
  C   C148      1.0  0.62848  0.7798500000000002  0.34174  1.0000
  C   C149      1.0  0.6651000000000001  0.7770200000000002  0.37354  1.0000
  C   C150      1.0  0.65456  0.75923  0.10026  1.0000
  C   C151      1.0  0.6096200000000002  0.7498900000000001  0.13198  1.0000
  C   C152      1.0  0.57272  0.75264  0.09986  1.0000
  H   H43       1.0  0.4230400000000001  0.8195900000000002  0.055909999999999994  1.0000
  H   H44       1.0  0.58049  0.93794  0.0211  1.0000
  H   H45       1.0  0.6359700000000001  0.7920300000000001  0.29457  1.0000
  H   H46       1.0  0.70079  0.7869200000000001  0.35001  1.0000
  H   H47       1.0  0.60225  0.73837  0.17976  1.0000
  H   H48       1.0  0.53738  0.74406  0.12354  1.0000
  O   O61       1.0  0.3709  0.82936  0.46832999999999997  1.0000
  O   O62       1.0  0.41528  0.87149  0.57234  1.0000
  O   O63       1.0  0.32372  0.72242  0.76366  1.0000
  Mg  Mg9       1.0  0.33893000000000006  0.82375  0.60539  1.0000
  Mg  Mg10      1.0  0.72998  0.09326  0.7514  1.0000
  C   C153      1.0  0.69173  0.75319  0.46401999999999993  1.0000
  In  In9       1.0  0.28916000000000003  0.7636800000000001  0.47748  1.0000
  In  In10      1.0  0.73311  0.15009000000000003  0.55071  1.0000
  C   C154      1.0  0.25877  0.04709000000000002  0.51319  1.0000
  O   O64       1.0  0.2505  0.08592999999999998  0.5557399999999999  1.0000
  O   O65       1.0  0.31015  0.69616  0.58912  1.0000
  O   O66       1.0  0.34082  0.78485  0.6723  1.0000
  O   O67       1.0  0.2733000000000001  0.7449800000000002  0.5612  1.0000
  C   C155      1.0  0.41734999999999994  0.86907  0.5080599999999998  1.0000
  C   C156      1.0  0.32598  0.72715  0.65215  1.0000
  O   O68       1.0  0.69674  0.7648000000000001  0.53032  1.0000
  O   O69       1.0  0.7260700000000001  0.7479600000000002  0.76162  1.0000
  C   C157      1.0  0.31054  0.69238  0.70046  1.0000
  O   O70       1.0  0.31299  0.87872  0.60983  1.0000
  O   O71       1.0  0.2938  0.84947  0.49579999999999996  1.0000
  C   C158      1.0  0.62287  0.02734  0.46480999999999995  1.0000
  O   O72       1.0  0.63687  0.14997  0.52624  1.0000
  O   O73       1.0  0.68608  0.6605400000000001  0.61539  1.0000
  C   C159      1.0  0.29935000000000017  0.8872000000000002  0.55498  1.0000
  O   O74       1.0  0.64914  0.03695999999999999  0.74377  1.0000
  O   O75       1.0  0.65116  0.06375  0.52473  1.0000
  C   C160      1.0  0.64376  0.15441000000000002  0.59051  1.0000
  C   C161      1.0  0.32714  0.03943000000000001  0.6499  1.0000
  C   C162      1.0  0.31022  0.05762999999999998  0.60727  1.0000
  C   C163      1.0  0.28179  0.018999999999999993  0.54489  1.0000
  N   N9        1.0  0.2765  0.96224  0.52333  1.0000
  C   C164      1.0  0.29824000000000006  0.9451600000000001  0.56539  1.0000
  C   C165      1.0  0.32302000000000003  0.9854200000000001  0.62895  1.0000
  C   C166      1.0  0.3587000000000001  0.08118000000000002  0.71144  1.0000
  C   C167      1.0  0.3917  0.10005999999999997  0.75646  1.0000
  C   C168      1.0  0.4392  0.10719  0.76968  1.0000
  C   C169      1.0  0.476  0.10646  0.74903  1.0000
  C   C170      1.0  0.5136  0.10825000000000001  0.70467  1.0000
  C   C171      1.0  0.5543100000000002  0.10556000000000003  0.72591  1.0000
  C   C172      1.0  0.59674  0.61972  0.68754  1.0000
  C   C173      1.0  0.59799  0.63612  0.62796  1.0000
  C   C174      1.0  0.55412  0.13234  0.60349  1.0000
  C   C175      1.0  0.51182  0.1183  0.64177  1.0000
  H   H49       1.0  0.32221  0.10431000000000001  0.62211  1.0000
  H   H50       1.0  0.3419200000000001  0.9768100000000001  0.66321  1.0000
  H   H51       1.0  0.55432  0.09514  0.77298  1.0000
  H   H52       1.0  0.62933  0.61997  0.70578  1.0000
  H   H53       1.0  0.5535  0.1429  0.5564  1.0000
  H   H54       1.0  0.4793900000000001  0.11861000000000001  0.62381  1.0000
  C   C176      1.0  0.49855000000000016  0.8815000000000002  0.36399999999999993  1.0000
  C   C177      1.0  0.46  0.86443  0.4069  1.0000
  C   C178      1.0  0.4693700000000001  0.8989700000000002  0.4728399999999999  1.0000
  N   N10       1.0  0.52181  0.95296  0.49588  1.0000
  C   C179      1.0  0.56311  0.97042  0.45275999999999994  1.0000
  C   C180      1.0  0.5500500000000001  0.9317600000000003  0.38747  1.0000
  C   C181      1.0  0.48931000000000013  0.8354  0.3056  1.0000
  C   C182      1.0  0.4939400000000002  0.7946800000000003  0.28172  1.0000
  C   C183      1.0  0.51517  0.76609  0.2984  1.0000
  C   C184      1.0  0.54345  0.7642000000000001  0.33365  1.0000
  C   C185      1.0  0.58145  0.76519  0.37043999999999994  1.0000
  C   C186      1.0  0.62739  0.77938  0.6768699999999999  1.0000
  C   C187      1.0  0.66438  0.7767  0.70832  1.0000
  C   C188      1.0  0.65492  0.75987  0.43381  1.0000
  C   C189      1.0  0.61012  0.75077  0.46571999999999997  1.0000
  C   C190      1.0  0.57324  0.7535500000000002  0.43352  1.0000
  H   H55       1.0  0.42332  0.8196  0.38947  1.0000
  H   H56       1.0  0.58047  0.93839  0.35421  1.0000
  H   H57       1.0  0.63494  0.79137  0.62933  1.0000
  H   H58       1.0  0.7001000000000002  0.78683  0.68494  1.0000
  H   H59       1.0  0.60283  0.73941  0.51355  1.0000
  H   H60       1.0  0.53794  0.74511  0.45743  1.0000
  O   O76       1.0  0.37096  0.82944  0.80159  1.0000
  O   O77       1.0  0.41506000000000015  0.8715600000000002  0.90581  1.0000
  O   O78       1.0  0.3233900000000001  0.7220800000000003  0.09704  1.0000
  Mg  Mg11      1.0  0.33859000000000017  0.8238000000000002  0.93871  1.0000
  Mg  Mg12      1.0  0.72993  0.09316000000000002  0.08487  1.0000
  C   C191      1.0  0.69128  0.7529200000000003  0.79864  1.0000
  In  In11      1.0  0.28921  0.76372  0.81034  1.0000
  In  In12      1.0  0.73309  0.15009999999999998  0.8838699999999999  1.0000
  C   C192      1.0  0.25845000000000007  0.046950000000000006  0.8461399999999999  1.0000
  O   O79       1.0  0.25016  0.08574  0.88878  1.0000
  O   O80       1.0  0.30994  0.69631  0.9226  1.0000
  O   O81       1.0  0.33997000000000005  0.78477  0.00586  1.0000
  O   O82       1.0  0.2733  0.74506  0.89399  1.0000
  C   C193      1.0  0.41731  0.86915  0.84154  1.0000
  C   C194      1.0  0.32538000000000006  0.7271700000000001  0.98568  1.0000
  O   O83       1.0  0.69665  0.76467  0.86486  1.0000
  O   O84       1.0  0.7264400000000001  0.7479200000000001  0.09408  1.0000
  C   C195      1.0  0.31001  0.69223  0.03381  1.0000
  O   O85       1.0  0.31241  0.87849  0.94271  1.0000
  O   O86       1.0  0.29391000000000006  0.84955  0.82858  1.0000
  C   C196      1.0  0.6228299999999999  0.027379999999999977  0.7980699999999998  1.0000
  O   O87       1.0  0.63664  0.14962000000000006  0.8591099999999999  1.0000
  O   O88       1.0  0.68562  0.66009  0.9486699999999999  1.0000
  C   C197      1.0  0.29909000000000013  0.8871  0.88772  1.0000
  O   O89       1.0  0.64911  0.03674  0.07728  1.0000
  O   O90       1.0  0.65118  0.06372  0.85796  1.0000
  C   C198      1.0  0.64359  0.15428  0.92343  1.0000
  C   C199      1.0  0.32739999999999997  0.039579999999999955  0.9824299999999999  1.0000
  C   C200      1.0  0.31023  0.05766999999999997  0.93996  1.0000
  C   C201      1.0  0.2816  0.018929999999999975  0.8777099999999999  1.0000
  N   N11       1.0  0.27621999999999997  0.9621299999999999  0.85614  1.0000
  C   C202      1.0  0.29822  0.94518  0.8979999999999999  1.0000
  C   C203      1.0  0.32339  0.98566  0.96136  1.0000
  C   C204      1.0  0.35885  0.08125000000000002  0.04406  1.0000
  C   C205      1.0  0.39172  0.10004  0.0892  1.0000
  C   C206      1.0  0.43913  0.10707  0.10268  1.0000
  C   C207      1.0  0.47593  0.10631  0.08213  1.0000
  C   C208      1.0  0.5135  0.10806000000000002  0.03771  1.0000
  C   C209      1.0  0.55425  0.10543  0.05890999999999999  1.0000
  C   C210      1.0  0.5963  0.61922  0.02093  1.0000
  C   C211      1.0  0.5974  0.63534  0.9611899999999999  1.0000
  C   C212      1.0  0.55392  0.13212000000000004  0.93647  1.0000
  C   C213      1.0  0.51165  0.11807000000000008  0.9748000000000001  1.0000
  H   H61       1.0  0.3221300000000001  0.10432000000000005  0.95484  1.0000
  H   H62       1.0  0.34259  0.97718  0.9953799999999999  1.0000
  H   H63       1.0  0.55434  0.09507  0.106  1.0000
  H   H64       1.0  0.62896  0.6196  0.03919999999999999  1.0000
  H   H65       1.0  0.55325  0.14265  0.88937  1.0000
  H   H66       1.0  0.47918  0.11834  0.95687  1.0000
  C   C214      1.0  0.49848  0.88119  0.6976  1.0000
  C   C215      1.0  0.46011  0.86401  0.7406999999999999  1.0000
  C   C216      1.0  0.46941999999999995  0.8988899999999999  0.8064299999999999  1.0000
  N   N12       1.0  0.5218000000000002  0.9530500000000001  0.82928  1.0000
  C   C217      1.0  0.56306  0.97043  0.78609  1.0000
  C   C218      1.0  0.5499500000000002  0.9316700000000001  0.72081  1.0000
  C   C219      1.0  0.48917  0.83481  0.6392799999999998  1.0000
  C   C220      1.0  0.49215000000000003  0.7932100000000001  0.61667  1.0000
  C   C221      1.0  0.51457  0.76519  0.63383  1.0000
  C   C222      1.0  0.5399  0.76038  0.66959  1.0000
  C   C223      1.0  0.58104  0.7653  0.70528  1.0000
  C   C224      1.0  0.6282100000000002  0.7794300000000001  0.00839  1.0000
  C   C225      1.0  0.66486  0.77658  0.04009  1.0000
  C   C226      1.0  0.6542700000000001  0.7594  0.76864  1.0000
  C   C227      1.0  0.60947  0.74999  0.80045  1.0000
  C   C228      1.0  0.5724400000000002  0.7528400000000002  0.76888  1.0000
  H   H67       1.0  0.42348  0.81906  0.72347  1.0000
  H   H68       1.0  0.58036  0.9383099999999999  0.6875199999999999  1.0000
  H   H69       1.0  0.6359499999999999  0.7919699999999997  0.9613199999999998  1.0000
  H   H70       1.0  0.70064  0.78672  0.01674  1.0000
  H   H71       1.0  0.60205  0.73829  0.84822  1.0000
  H   H72       1.0  0.53719  0.74411  0.79238  1.0000
  O   O91       1.0  0.7709900000000001  0.6329000000000001  0.3489  1.0000
  O   O92       1.0  0.23843  0.66861  0.13452  1.0000
  In  In13      1.0  0.23312  0.64986  0.21752  1.0000
  C   C229      1.0  0.7586  0.54686  0.17961  1.0000
  O   O93       1.0  0.75038  0.58571  0.22224  1.0000
  O   O94       1.0  0.75654  0.5455  0.11558  1.0000
  O   O95       1.0  0.22638  0.24798  0.42784  1.0000
  N   N13       1.0  0.7762700000000001  0.46195000000000014  0.18972  1.0000
  O   O96       1.0  0.77058  0.63281  0.6821  1.0000
  O   O97       1.0  0.23831  0.66884  0.46765999999999996  1.0000
  In  In14      1.0  0.23304999999999998  0.65005  0.55067  1.0000
  C   C230      1.0  0.75874  0.54703  0.51295  1.0000
  O   O98       1.0  0.75044  0.58586  0.55547  1.0000
  O   O99       1.0  0.75678  0.54567  0.44891999999999993  1.0000
  O   O100      1.0  0.22608000000000003  0.24806000000000003  0.76136  1.0000
  N   N14       1.0  0.7764600000000002  0.4622100000000001  0.52321  1.0000
  O   O101      1.0  0.77056  0.63279  0.0155  1.0000
  O   O102      1.0  0.23842  0.66893  0.80063  1.0000
  In  In15      1.0  0.23303000000000007  0.6502000000000001  0.8836599999999999  1.0000
  C   C231      1.0  0.7582900000000001  0.5467000000000001  0.8459599999999999  1.0000
  O   O103      1.0  0.75009  0.5855800000000001  0.88859  1.0000
  O   O104      1.0  0.75629  0.54536  0.78194  1.0000
  O   O105      1.0  0.22637  0.24788  0.0944  1.0000
  N   N15       1.0  0.77601  0.4618  0.85604  1.0000
  O   O106      1.0  0.77105  0.13306  0.34907  1.0000
  O   O107      1.0  0.23826  0.16857  0.13442  1.0000
  In  In16      1.0  0.23294  0.14983  0.21744999999999998  1.0000
  C   C232      1.0  0.75876  0.04699  0.17969  1.0000
  O   O108      1.0  0.75052  0.08583999999999999  0.22229999999999997  1.0000
  O   O109      1.0  0.75673  0.04563000000000001  0.11565  1.0000
  O   O110      1.0  0.22667000000000012  0.7482600000000001  0.42738999999999994  1.0000
  N   N16       1.0  0.77633  0.96201  0.1898  1.0000
  O   O111      1.0  0.77105  0.13313  0.6822  1.0000
  O   O112      1.0  0.23831  0.16876  0.46777  1.0000
  In  In17      1.0  0.23298  0.15  0.55079  1.0000
  C   C233      1.0  0.75886  0.04714  0.51305  1.0000
  O   O113      1.0  0.75062  0.08599  0.55564  1.0000
  O   O114      1.0  0.7568  0.04574000000000001  0.4490199999999999  1.0000
  O   O115      1.0  0.22681  0.74832  0.7601  1.0000
  N   N17       1.0  0.77651  0.96221  0.5230599999999999  1.0000
  O   O116      1.0  0.77083  0.13304  0.01558  1.0000
  O   O117      1.0  0.23801999999999998  0.16872  0.8009  1.0000
  In  In18      1.0  0.23267999999999997  0.14987  0.8839  1.0000
  C   C234      1.0  0.7587799999999998  0.047089999999999965  0.84622  1.0000
  O   O118      1.0  0.75061  0.08601999999999994  0.8887899999999999  1.0000
  O   O119      1.0  0.7566699999999998  0.04560999999999995  0.7821599999999999  1.0000
  O   O120      1.0  0.22623000000000004  0.74786  0.09537  1.0000
  N   N18       1.0  0.77639  0.96212  0.85628  1.0000
  O   O121      1.0  0.73819  0.66861  0.13438  1.0000
  O   O122      1.0  0.73834  0.66875  0.46742999999999996  1.0000
  O   O123      1.0  0.73805  0.6686000000000001  0.80083  1.0000
  O   O124      1.0  0.73838  0.16870000000000002  0.13441  1.0000
  O   O125      1.0  0.73837  0.16886000000000004  0.4677  1.0000
  O   O126      1.0  0.73845  0.16883  0.80084  1.0000
  O   O127      1.0  0.81005  0.1961  0.25616  1.0000
  C   C235      1.0  0.82571  0.22712  0.31919  1.0000
  C   C236      1.0  0.81044  0.19235  0.36746  1.0000
  C   C237      1.0  0.78168  0.51877  0.21123  1.0000
  O   O128      1.0  0.81018  0.19622000000000006  0.58923  1.0000
  C   C238      1.0  0.82595  0.22720000000000004  0.65226  1.0000
  C   C239      1.0  0.81053  0.19239000000000003  0.70054  1.0000
  C   C240      1.0  0.7818  0.519  0.54468  1.0000
  O   O129      1.0  0.81008  0.19623999999999997  0.9226899999999999  1.0000
  C   C241      1.0  0.82567  0.22718000000000002  0.98574  1.0000
  C   C242      1.0  0.8103  0.19232  0.03396  1.0000
  C   C243      1.0  0.78124  0.51852  0.87763  1.0000
  O   O130      1.0  0.80996  0.6959300000000002  0.25594  1.0000
  C   C244      1.0  0.82571  0.7269500000000001  0.31896  1.0000
  C   C245      1.0  0.81041  0.69219  0.36725  1.0000
  C   C246      1.0  0.78173  0.01883  0.21135  1.0000
  O   O131      1.0  0.80993  0.69599  0.58927  1.0000
  C   C247      1.0  0.82544  0.72694  0.65232  1.0000
  C   C248      1.0  0.81  0.6921  0.70054  1.0000
  C   C249      1.0  0.78187  0.019000000000000013  0.54467  1.0000
  O   O132      1.0  0.8097500000000001  0.6958800000000002  0.92254  1.0000
  C   C250      1.0  0.82546  0.72686  0.9855799999999999  1.0000
  C   C251      1.0  0.81003  0.69206  0.03384  1.0000
  C   C252      1.0  0.78168  0.018869999999999984  0.87791  1.0000
  O   O133      1.0  0.25675  0.54556  0.11558  1.0000
  O   O134      1.0  0.25664  0.54561  0.44899999999999995  1.0000
  O   O135      1.0  0.25664  0.54572  0.7821  1.0000
  O   O136      1.0  0.25654  0.04542  0.11556999999999999  1.0000
  O   O137      1.0  0.2567400000000001  0.04567999999999999  0.44915  1.0000
  O   O138      1.0  0.25649  0.045680000000000026  0.78214  1.0000
  C   C253      1.0  0.79908  0.3869  0.22143  1.0000
  C   C254      1.0  0.79802  0.44487  0.23177  1.0000
  C   C255      1.0  0.79929  0.38720000000000004  0.55493  1.0000
  C   C256      1.0  0.7982900000000002  0.44522000000000006  0.56525  1.0000
  C   C257      1.0  0.7990000000000002  0.3868900000000001  0.8878099999999999  1.0000
  C   C258      1.0  0.7976800000000001  0.4447000000000001  0.8982  1.0000
  C   C259      1.0  0.79902  0.8868600000000001  0.22148999999999996  1.0000
  C   C260      1.0  0.7979  0.94481  0.23192999999999997  1.0000
  C   C261      1.0  0.79925  0.88706  0.55465  1.0000
  C   C262      1.0  0.79819  0.94505  0.56509  1.0000
  C   C263      1.0  0.79915  0.88699  0.8879399999999998  1.0000
  C   C264      1.0  0.79798  0.94491  0.8983899999999999  1.0000
  O   O139      1.0  0.84032  0.28472  0.33927  1.0000
  O   O140      1.0  0.7732599999999998  0.24479999999999996  0.22778  1.0000
  O   O141      1.0  0.81262  0.3784  0.27635  1.0000
  O   O142      1.0  0.7937100000000002  0.34924  0.16229  1.0000
  O   O143      1.0  0.84072  0.28487  0.6724  1.0000
  O   O144      1.0  0.7732800000000001  0.24499000000000007  0.56115  1.0000
  O   O145      1.0  0.8128799999999999  0.37872  0.60983  1.0000
  O   O146      1.0  0.7938  0.34948  0.49578  1.0000
  O   O147      1.0  0.84038  0.28483  0.00587  1.0000
  O   O148      1.0  0.7733900000000002  0.24497000000000005  0.89423  1.0000
  O   O149      1.0  0.81257  0.37843000000000004  0.94273  1.0000
  O   O150      1.0  0.7936800000000002  0.34928  0.82866  1.0000
  O   O151      1.0  0.8403600000000001  0.7845800000000002  0.33908  1.0000
  O   O152      1.0  0.77315  0.7447100000000001  0.22774  1.0000
  O   O153      1.0  0.81258  0.87833  0.27637  1.0000
  O   O154      1.0  0.79356  0.84918  0.16232  1.0000
  O   O155      1.0  0.83997  0.78452  0.67241  1.0000
  O   O156      1.0  0.77328  0.7448700000000001  0.56084  1.0000
  O   O157      1.0  0.8127  0.87846  0.60954  1.0000
  O   O158      1.0  0.79388  0.8494300000000001  0.49546999999999997  1.0000
  O   O159      1.0  0.84031  0.7845700000000001  0.00571  1.0000
  O   O160      1.0  0.77317  0.74477  0.89444  1.0000
  O   O161      1.0  0.81277  0.87849  0.94281  1.0000
  O   O162      1.0  0.79356  0.84922  0.8287699999999999  1.0000
  O   O163      1.0  0.2711  0.63302  0.34916  1.0000
  O   O164      1.0  0.27105  0.63312  0.68212  1.0000
  O   O165      1.0  0.27061  0.63293  0.015409999999999998  1.0000
  O   O166      1.0  0.27091  0.13294  0.34911  1.0000
  O   O167      1.0  0.27075  0.13303  0.68234  1.0000
  O   O168      1.0  0.2706  0.13275  0.0155  1.0000
  O   O169      1.0  0.8709  0.32915  0.13517  1.0000
  O   O170      1.0  0.91513  0.37132  0.23929  1.0000
  O   O171      1.0  0.8236  0.22232000000000002  0.43068  1.0000
  Mg  Mg13      1.0  0.8386900000000003  0.3236000000000001  0.27219  1.0000
  Mg  Mg14      1.0  0.22995000000000002  0.59326  0.41831  1.0000
  C   C265      1.0  0.19148  0.25281  0.13125  1.0000
  In  In19      1.0  0.7891500000000001  0.26350000000000007  0.14411  1.0000
  C   C266      1.0  0.91729  0.36883  0.17496999999999996  1.0000
  O   O172      1.0  0.19661  0.26444000000000006  0.19738  1.0000
  C   C267      1.0  0.12282999999999998  0.52706  0.13167  1.0000
  O   O173      1.0  0.1364  0.64895  0.19269  1.0000
  O   O174      1.0  0.18587  0.16018  0.28232  1.0000
  O   O175      1.0  0.14913  0.53686  0.41048999999999997  1.0000
  O   O176      1.0  0.15124  0.56336  0.19159  1.0000
  C   C268      1.0  0.14342  0.6537  0.25703999999999994  1.0000
  C   C269      1.0  0.82708  0.5392400000000002  0.3162  1.0000
  C   C270      1.0  0.81024  0.55748  0.27352  1.0000
  C   C271      1.0  0.8228299999999996  0.48516  0.29532  1.0000
  C   C272      1.0  0.85863  0.5809500000000001  0.37776  1.0000
  C   C273      1.0  0.89155  0.59968  0.42280999999999996  1.0000
  C   C274      1.0  0.93892  0.60658  0.43616  1.0000
  C   C275      1.0  0.9757299999999999  0.6058099999999998  0.41564999999999996  1.0000
  C   C276      1.0  0.013299999999999998  0.60744  0.3713  1.0000
  C   C277      1.0  0.05429000000000006  0.60535  0.39284  1.0000
  C   C278      1.0  0.09653  0.11938  0.35459999999999997  1.0000
  C   C279      1.0  0.09768999999999999  0.13555  0.29488  1.0000
  C   C280      1.0  0.05354  0.63096  0.26982999999999996  1.0000
  C   C281      1.0  0.011260000000000058  0.6169200000000001  0.30813  1.0000
  H   H73       1.0  0.8223400000000001  0.6042100000000002  0.28827  1.0000
  H   H74       1.0  0.84167  0.4765100000000001  0.32962  1.0000
  H   H75       1.0  0.054540000000000116  0.5954400000000001  0.44017  1.0000
  H   H76       1.0  0.12915  0.11970000000000001  0.37286  1.0000
  H   H77       1.0  0.05263999999999998  0.64093  0.22242999999999996  1.0000
  H   H78       1.0  0.97861  0.61675  0.28994999999999993  1.0000
  C   C282      1.0  0.9985600000000001  0.38101  0.03104  1.0000
  C   C283      1.0  0.96  0.36397  0.07393999999999999  1.0000
  C   C284      1.0  0.9693600000000001  0.3986200000000001  0.13981  1.0000
  N   N19       1.0  0.021780000000000032  0.4526700000000001  0.16282  1.0000
  C   C285      1.0  0.06309  0.47006000000000003  0.11971  1.0000
  C   C286      1.0  0.05005000000000013  0.4313400000000003  0.05447  1.0000
  C   C287      1.0  0.98931  0.33491  0.97262  1.0000
  C   C288      1.0  0.99333  0.29370000000000007  0.94902  1.0000
  C   C289      1.0  0.01423000000000003  0.26474  0.96576  1.0000
  C   C290      1.0  0.04267000000000003  0.26322000000000007  0.00126  1.0000
  C   C291      1.0  0.08078000000000006  0.26413000000000003  0.03758  1.0000
  C   C292      1.0  0.12798  0.27927  0.3422299999999999  1.0000
  C   C293      1.0  0.16475  0.27658  0.37396  1.0000
  C   C294      1.0  0.15445  0.25919  0.10104  1.0000
  C   C295      1.0  0.10965000000000003  0.24982000000000004  0.13286  1.0000
  C   C296      1.0  0.07253  0.25242  0.101  1.0000
  H   H79       1.0  0.9232600000000001  0.3191800000000001  0.05644999999999999  1.0000
  H   H80       1.0  0.08048  0.438  0.021199999999999997  1.0000
  H   H81       1.0  0.13557000000000002  0.29150000000000004  0.29499  1.0000
  H   H82       1.0  0.20048000000000005  0.28663000000000005  0.35057  1.0000
  H   H83       1.0  0.10237000000000002  0.23831000000000002  0.1807  1.0000
  H   H84       1.0  0.037290000000000045  0.24384000000000008  0.12478999999999998  1.0000
  O   O177      1.0  0.87086  0.32933  0.4683399999999999  1.0000
  O   O178      1.0  0.9152  0.37151  0.57239  1.0000
  O   O179      1.0  0.82375  0.2224  0.76375  1.0000
  Mg  Mg15      1.0  0.8388400000000001  0.32376000000000005  0.60545  1.0000
  Mg  Mg16      1.0  0.22994999999999996  0.59332  0.7513199999999999  1.0000
  C   C297      1.0  0.19145  0.25288  0.46453  1.0000
  In  In20      1.0  0.78914  0.26367  0.47743  1.0000
  C   C298      1.0  0.91729  0.36906000000000005  0.50811  1.0000
  O   O180      1.0  0.19655999999999998  0.26458  0.53077  1.0000
  C   C299      1.0  0.12279999999999995  0.52727  0.46474999999999994  1.0000
  O   O181      1.0  0.13674  0.64982  0.52624  1.0000
  O   O182      1.0  0.18598  0.16035  0.61581  1.0000
  O   O183      1.0  0.14910999999999994  0.5369699999999998  0.7437299999999999  1.0000
  O   O184      1.0  0.15111000000000005  0.5636700000000001  0.52465  1.0000
  C   C300      1.0  0.14365000000000006  0.6542700000000001  0.5905  1.0000
  C   C301      1.0  0.82738  0.53964  0.64959  1.0000
  C   C302      1.0  0.81033  0.55773  0.6069799999999999  1.0000
  C   C303      1.0  0.82326  0.48563  0.6287  1.0000
  C   C304      1.0  0.85895  0.58147  0.7111  1.0000
  C   C305      1.0  0.8919000000000001  0.60058  0.75629  1.0000
  C   C306      1.0  0.9394700000000001  0.6080300000000001  0.76996  1.0000
  C   C307      1.0  0.97631  0.6073  0.7495099999999999  1.0000
  C   C308      1.0  0.013860000000000006  0.60897  0.70512  1.0000
  C   C309      1.0  0.054480000000000056  0.6061  0.72628  1.0000
  C   C310      1.0  0.09662999999999998  0.11939999999999999  0.6881  1.0000
  C   C311      1.0  0.09780000000000001  0.1357  0.62847  1.0000
  C   C312      1.0  0.0541  0.63244  0.6036399999999998  1.0000
  C   C313      1.0  0.01197000000000002  0.61879  0.64212  1.0000
  H   H85       1.0  0.82227  0.6044  0.62177  1.0000
  H   H86       1.0  0.84227  0.47708  0.6629099999999999  1.0000
  H   H87       1.0  0.05449999999999999  0.5957  0.77336  1.0000
  H   H88       1.0  0.12926999999999994  0.11973  0.70633  1.0000
  H   H89       1.0  0.05337000000000002  0.64277  0.55643  1.0000
  H   H90       1.0  0.97956  0.6191500000000001  0.62419  1.0000
  C   C314      1.0  0.9985000000000003  0.38122  0.36416  1.0000
  C   C315      1.0  0.9599500000000001  0.36422000000000004  0.4070099999999999  1.0000
  C   C316      1.0  0.9693200000000002  0.39889  0.47289  1.0000
  N   N20       1.0  0.02175000000000003  0.45293000000000005  0.49586  1.0000
  C   C317      1.0  0.06305000000000006  0.4702900000000001  0.45274999999999993  1.0000
  C   C318      1.0  0.05001  0.43148  0.38752999999999993  1.0000
  C   C319      1.0  0.98918  0.33494  0.30574999999999997  1.0000
  C   C320      1.0  0.99332  0.29392  0.2822  1.0000
  C   C321      1.0  0.014450000000000001  0.26503  0.2989  1.0000
  C   C322      1.0  0.04292  0.26361  0.33415  1.0000
  C   C323      1.0  0.08102000000000004  0.26441  0.37067  1.0000
  C   C324      1.0  0.12731000000000006  0.27905  0.67618  1.0000
  C   C325      1.0  0.16419  0.27655  0.70786  1.0000
  C   C326      1.0  0.15452  0.25935  0.43427  1.0000
  C   C327      1.0  0.10968  0.25007  0.46602  1.0000
  C   C328      1.0  0.07269000000000002  0.25277000000000005  0.4339199999999999  1.0000
  H   H91       1.0  0.92324  0.31941000000000014  0.38962  1.0000
  H   H92       1.0  0.08046  0.43806  0.35434  1.0000
  H   H93       1.0  0.13469  0.29116  0.62891  1.0000
  H   H94       1.0  0.19993  0.2867  0.68433  1.0000
  H   H95       1.0  0.10231000000000003  0.23858000000000004  0.51383  1.0000
  H   H96       1.0  0.03742000000000001  0.24425000000000002  0.45769  1.0000
  O   O185      1.0  0.8709400000000002  0.32943000000000006  0.80166  1.0000
  O   O186      1.0  0.91517  0.37148000000000003  0.9057899999999999  1.0000
  O   O187      1.0  0.8236  0.22226  0.09717  1.0000
  Mg  Mg17      1.0  0.83877  0.32374  0.93874  1.0000
  Mg  Mg18      1.0  0.2299  0.59307  0.08482  1.0000
  C   C329      1.0  0.19122999999999998  0.25300999999999996  0.7982699999999999  1.0000
  In  In21      1.0  0.7892100000000001  0.26362  0.8105399999999999  1.0000
  C   C330      1.0  0.91733  0.36911  0.8415  1.0000
  O   O188      1.0  0.19649000000000003  0.26472000000000007  0.86446  1.0000
  C   C331      1.0  0.12276  0.52744  0.79798  1.0000
  O   O189      1.0  0.13700999999999994  0.65019  0.85852  1.0000
  O   O190      1.0  0.18561  0.16014999999999996  0.9488299999999998  1.0000
  O   O191      1.0  0.14907  0.53676  0.07738  1.0000
  O   O192      1.0  0.15106999999999995  0.5638999999999998  0.8578999999999999  1.0000
  C   C332      1.0  0.14387  0.6550100000000001  0.92291  1.0000
  C   C333      1.0  0.82628  0.5388200000000001  0.98279  1.0000
  C   C334      1.0  0.8095600000000001  0.55709  0.94005  1.0000
  C   C335      1.0  0.8222  0.48485000000000006  0.96188  1.0000
  C   C336      1.0  0.85786  0.58064  0.04427  1.0000
  C   C337      1.0  0.89104  0.59968  0.0891  1.0000
  C   C338      1.0  0.93876  0.6071200000000001  0.10162999999999998  1.0000
  C   C339      1.0  0.9756100000000001  0.6066900000000001  0.08063  1.0000
  C   C340      1.0  0.013410000000000026  0.60881  0.03646  1.0000
  C   C341      1.0  0.05411000000000001  0.60622  0.057949999999999995  1.0000
  C   C342      1.0  0.09627000000000001  0.11924  0.02107  1.0000
  C   C343      1.0  0.09741000000000001  0.13546000000000002  0.9613899999999999  1.0000
  C   C344      1.0  0.054359999999999985  0.63338  0.9356399999999999  1.0000
  C   C345      1.0  0.011859999999999992  0.61909  0.9736299999999999  1.0000
  H   H97       1.0  0.8216699999999999  0.60383  0.9548099999999999  1.0000
  H   H98       1.0  0.84103  0.4762300000000001  0.99625  1.0000
  H   H99       1.0  0.05407000000000006  0.59583  0.10507  1.0000
  H   H100      1.0  0.1289  0.11957000000000002  0.03931  1.0000
  H   H101      1.0  0.05397000000000001  0.6442  0.88866  1.0000
  H   H102      1.0  0.97947  0.61941  0.95552  1.0000
  C   C346      1.0  0.99847  0.38116  0.6975099999999999  1.0000
  C   C347      1.0  0.96007  0.36397  0.74064  1.0000
  C   C348      1.0  0.96939  0.39885  0.80635  1.0000
  N   N21       1.0  0.02176000000000004  0.45304000000000005  0.8292  1.0000
  C   C349      1.0  0.06301  0.47046  0.786  1.0000
  C   C350      1.0  0.04991999999999999  0.43172  0.72074  1.0000
  C   C351      1.0  0.98926  0.33506  0.63915  1.0000
  C   C352      1.0  0.9925700000000001  0.29319  0.61608  1.0000
  C   C353      1.0  0.013350000000000006  0.2643  0.63313  1.0000
  C   C354      1.0  0.04199  0.26278  0.66836  1.0000
  C   C355      1.0  0.08029000000000006  0.26415000000000005  0.70485  1.0000
  C   C356      1.0  0.12771  0.27907  0.009229999999999999  1.0000
  C   C357      1.0  0.16460000000000002  0.27647000000000005  0.04072  1.0000
  C   C358      1.0  0.15419  0.25937  0.76811  1.0000
  C   C359      1.0  0.10931000000000002  0.24995000000000003  0.80007  1.0000
  C   C360      1.0  0.07225  0.25254  0.76808  1.0000
  H   H103      1.0  0.92345  0.31899  0.72341  1.0000
  H   H104      1.0  0.08030000000000001  0.43842000000000003  0.68737  1.0000
  H   H105      1.0  0.13524  0.29141  0.96197  1.0000
  H   H106      1.0  0.20029  0.2866  0.01725  1.0000
  H   H107      1.0  0.10209999999999998  0.23848999999999998  0.8478499999999999  1.0000
  H   H108      1.0  0.03694  0.24392  0.79198  1.0000
  O   O193      1.0  0.87072  0.82917  0.13511  1.0000
  O   O194      1.0  0.9149900000000001  0.87127  0.23921  1.0000
  O   O195      1.0  0.82358  0.72219  0.43046  1.0000
  Mg  Mg19      1.0  0.83861  0.82348  0.27211  1.0000
  Mg  Mg20      1.0  0.22995000000000002  0.09322000000000001  0.41838  1.0000
  C   C361      1.0  0.19147000000000006  0.75275  0.1325  1.0000
  In  In22      1.0  0.78898  0.76341  0.14405  1.0000
  C   C362      1.0  0.91712  0.86889  0.17494  1.0000
  O   O196      1.0  0.1968700000000001  0.7643900000000001  0.19869999999999996  1.0000
  C   C363      1.0  0.12266  0.0271  0.13165  1.0000
  O   O197      1.0  0.13652  0.14947000000000005  0.19291  1.0000
  O   O198      1.0  0.18591000000000005  0.66008  0.28225  1.0000
  O   O199      1.0  0.14915  0.036819999999999985  0.4106099999999999  1.0000
  O   O200      1.0  0.15102  0.06346  0.19155  1.0000
  C   C364      1.0  0.14347  0.15403000000000003  0.2572  1.0000
  C   C365      1.0  0.82684  0.03908999999999999  0.31646  1.0000
  C   C366      1.0  0.81016  0.057440000000000005  0.27373  1.0000
  C   C367      1.0  0.82251  0.98495  0.2956  1.0000
  C   C368      1.0  0.85842  0.08079  0.37801  1.0000
  C   C369      1.0  0.89138  0.09955  0.42303  1.0000
  C   C370      1.0  0.93881  0.10657000000000003  0.4363  1.0000
  C   C371      1.0  0.97566  0.10588999999999998  0.41573999999999994  1.0000
  C   C372      1.0  0.013279999999999997  0.10769  0.3714  1.0000
  C   C373      1.0  0.05417000000000005  0.10535000000000004  0.3928  1.0000
  C   C374      1.0  0.09665000000000006  0.6193700000000002  0.35463  1.0000
  C   C375      1.0  0.09766999999999999  0.63525  0.29475  1.0000
  C   C376      1.0  0.053679999999999985  0.13158  0.27011  1.0000
  C   C377      1.0  0.011380000000000017  0.11748000000000003  0.30839  1.0000
  H   H109      1.0  0.8223  0.10418000000000001  0.28851  1.0000
  H   H110      1.0  0.84117  0.97618  0.33  1.0000
  H   H111      1.0  0.05433000000000003  0.09521000000000003  0.44001000000000007  1.0000
  H   H112      1.0  0.12937000000000012  0.6199200000000001  0.37302  1.0000
  H   H113      1.0  0.05292  0.14189  0.2229  1.0000
  H   H114      1.0  0.9788200000000002  0.11753000000000001  0.29032  1.0000
  C   C378      1.0  0.9983800000000003  0.88103  0.03111  1.0000
  C   C379      1.0  0.9598300000000001  0.8640700000000002  0.07395  1.0000
  C   C380      1.0  0.9691900000000001  0.8987400000000001  0.1398  1.0000
  N   N22       1.0  0.02161  0.95278  0.16279  1.0000
  C   C381      1.0  0.06292000000000005  0.9701  0.1197  1.0000
  C   C382      1.0  0.0499  0.93125  0.0545  1.0000
  C   C383      1.0  0.9890400000000001  0.8345600000000001  0.97292  1.0000
  C   C384      1.0  0.9923700000000001  0.7928000000000001  0.9505199999999999  1.0000
  C   C385      1.0  0.013580000000000002  0.76419  0.9680100000000001  1.0000
  C   C386      1.0  0.04256  0.76369  0.00348  1.0000
  C   C387      1.0  0.08097000000000008  0.7648000000000001  0.03971999999999999  1.0000
  C   C388      1.0  0.12775  0.77923  0.34194  1.0000
  C   C389      1.0  0.1647100000000001  0.7766800000000001  0.37343  1.0000
  C   C390      1.0  0.1545399999999999  0.7594699999999999  0.10272999999999999  1.0000
  C   C391      1.0  0.10975999999999997  0.75013  0.13467  1.0000
  C   C392      1.0  0.07284000000000003  0.75316  0.10299  1.0000
  H   H115      1.0  0.92309  0.8192900000000001  0.05651  1.0000
  H   H116      1.0  0.08039000000000004  0.9377000000000001  0.02143  1.0000
  H   H117      1.0  0.13532000000000002  0.79175  0.2948  1.0000
  H   H118      1.0  0.20039000000000007  0.78682  0.34991999999999995  1.0000
  H   H119      1.0  0.10233000000000013  0.7382000000000002  0.18224  1.0000
  H   H120      1.0  0.03755000000000004  0.7445300000000001  0.12685  1.0000
  O   O201      1.0  0.87087  0.82926  0.46817999999999993  1.0000
  O   O202      1.0  0.9151100000000001  0.87121  0.57229  1.0000
  O   O203      1.0  0.8232  0.72201  0.76376  1.0000
  Mg  Mg21      1.0  0.8386900000000002  0.8235800000000002  0.60531  1.0000
  Mg  Mg22      1.0  0.22968  0.09319  0.75148  1.0000
  C   C393      1.0  0.19164  0.7531300000000001  0.46407  1.0000
  In  In23      1.0  0.7891500000000001  0.7635700000000002  0.47720999999999997  1.0000
  C   C394      1.0  0.91727  0.86888  0.50801  1.0000
  O   O204      1.0  0.19664000000000006  0.76466  0.5301899999999999  1.0000
  C   C395      1.0  0.12277999999999997  0.027239999999999966  0.4648399999999999  1.0000
  O   O205      1.0  0.13660000000000003  0.14972000000000005  0.52651  1.0000
  O   O206      1.0  0.18601  0.66034  0.6156  1.0000
  O   O207      1.0  0.14886999999999997  0.03670000000000002  0.74367  1.0000
  O   O208      1.0  0.15105  0.06366  0.52476  1.0000
  C   C396      1.0  0.14358  0.15424  0.59078  1.0000
  C   C397      1.0  0.82712  0.039290000000000005  0.64968  1.0000
  C   C398      1.0  0.81034  0.05761  0.60704  1.0000
  C   C399      1.0  0.82289  0.98522  0.62872  1.0000
  C   C400      1.0  0.8586  0.08091  0.71132  1.0000
  C   C401      1.0  0.89148  0.09952999999999998  0.75639  1.0000
  C   C402      1.0  0.9388200000000002  0.10636999999999998  0.76975  1.0000
  C   C403      1.0  0.97566  0.10566  0.74925  1.0000
  C   C404      1.0  0.013300000000000005  0.10752000000000002  0.7049  1.0000
  C   C405      1.0  0.054199999999999984  0.10517999999999997  0.72624  1.0000
  C   C406      1.0  0.09669000000000004  0.6197300000000001  0.68791  1.0000
  C   C407      1.0  0.09793  0.636  0.62824  1.0000
  C   C408      1.0  0.05378  0.13171  0.60373  1.0000
  C   C409      1.0  0.011429999999999982  0.11744999999999996  0.6419599999999999  1.0000
  H   H121      1.0  0.82242  0.10433000000000002  0.62188  1.0000
  H   H122      1.0  0.84165  0.9764800000000001  0.66303  1.0000
  H   H123      1.0  0.05429  0.09484000000000001  0.77333  1.0000
  H   H124      1.0  0.12913000000000005  0.61965  0.70598  1.0000
  H   H125      1.0  0.053050000000000014  0.14214  0.55659  1.0000
  H   H126      1.0  0.97886  0.11750000000000001  0.62392  1.0000
  C   C410      1.0  0.99864  0.8811800000000001  0.36412  1.0000
  C   C411      1.0  0.9600200000000002  0.8640700000000002  0.40691999999999995  1.0000
  C   C412      1.0  0.9693199999999998  0.8987099999999999  0.4728299999999999  1.0000
  N   N23       1.0  0.02170999999999999  0.95278  0.49587  1.0000
  C   C413      1.0  0.06305000000000004  0.97024  0.4528  1.0000
  C   C414      1.0  0.05008000000000001  0.93151  0.38757  1.0000
  C   C415      1.0  0.98954  0.83514  0.30559  1.0000
  C   C416      1.0  0.9942500000000001  0.7946400000000002  0.28144  1.0000
  C   C417      1.0  0.01486000000000007  0.7651700000000001  0.29794  1.0000
  C   C418      1.0  0.04275999999999998  0.76344  0.3339  1.0000
  C   C419      1.0  0.08077000000000004  0.764  0.37015  1.0000
  C   C420      1.0  0.12972999999999998  0.78072  0.67335  1.0000
  C   C421      1.0  0.16592999999999997  0.77748  0.7054  1.0000
  C   C422      1.0  0.15461000000000014  0.7594300000000002  0.43372  1.0000
  C   C423      1.0  0.10973000000000002  0.7499400000000002  0.46552  1.0000
  C   C424      1.0  0.07251000000000006  0.7523600000000001  0.43361  1.0000
  H   H127      1.0  0.92332  0.81925  0.38945  1.0000
  H   H128      1.0  0.08053000000000002  0.93822  0.35433  1.0000
  H   H129      1.0  0.13758000000000004  0.79298  0.62618  1.0000
  H   H130      1.0  0.2016600000000002  0.7870700000000002  0.68214  1.0000
  H   H131      1.0  0.10244999999999997  0.7384  0.5133099999999999  1.0000
  H   H132      1.0  0.03730000000000004  0.74377  0.45743  1.0000
  O   O209      1.0  0.87056  0.8292000000000002  0.80158  1.0000
  O   O210      1.0  0.91503  0.87115  0.90553  1.0000
  O   O211      1.0  0.82334  0.72205  0.09705  1.0000
  Mg  Mg23      1.0  0.8387000000000002  0.8235300000000001  0.93866  1.0000
  Mg  Mg24      1.0  0.22975  0.09299  0.08487  1.0000
  C   C425      1.0  0.1918  0.75337  0.79633  1.0000
  In  In24      1.0  0.78887  0.7634200000000002  0.81077  1.0000
  C   C426      1.0  0.91703  0.86884  0.84127  1.0000
  O   O212      1.0  0.19651999999999994  0.7649  0.8626399999999999  1.0000
  C   C427      1.0  0.1225  0.027100000000000016  0.7978899999999999  1.0000
  O   O213      1.0  0.13632  0.1496  0.8594999999999999  1.0000
  O   O214      1.0  0.18605000000000005  0.6609  0.94828  1.0000
  O   O215      1.0  0.14893  0.03670000000000001  0.07735  1.0000
  O   O216      1.0  0.15076  0.06352  0.85782  1.0000
  C   C428      1.0  0.14322  0.15403  0.92375  1.0000
  C   C429      1.0  0.82673  0.03904999999999999  0.9830499999999999  1.0000
  C   C430      1.0  0.80999  0.057390000000000024  0.94038  1.0000
  C   C431      1.0  0.8225500000000003  0.9850200000000005  0.9620799999999999  1.0000
  C   C432      1.0  0.85821  0.08071000000000002  0.04466  1.0000
  C   C433      1.0  0.89116  0.09943  0.08968999999999999  1.0000
  C   C434      1.0  0.9385800000000002  0.10639  0.10289  1.0000
  C   C435      1.0  0.97539  0.10568000000000001  0.08227  1.0000
  C   C436      1.0  0.012989999999999998  0.10746  0.03789  1.0000
  C   C437      1.0  0.05389  0.10515  0.05926  1.0000
  C   C438      1.0  0.09658000000000007  0.6202900000000001  0.01998  1.0000
  C   C439      1.0  0.09807999999999999  0.63684  0.96044  1.0000
  C   C440      1.0  0.053390000000000014  0.13145  0.93662  1.0000
  C   C441      1.0  0.01107000000000001  0.11728  0.9748899999999999  1.0000
  H   H133      1.0  0.82205  0.10408999999999996  0.9552599999999999  1.0000
  H   H134      1.0  0.84129  0.9762900000000001  0.9964299999999999  1.0000
  H   H135      1.0  0.054070000000000014  0.09498000000000001  0.10645  1.0000
  H   H136      1.0  0.12899999999999995  0.62028  0.03828  1.0000
  H   H137      1.0  0.05263000000000002  0.14179000000000005  0.88944  1.0000
  H   H138      1.0  0.9784999999999999  0.11730999999999996  0.95684  1.0000
  C   C442      1.0  0.99809  0.8813900000000001  0.6970899999999999  1.0000
  C   C443      1.0  0.95952  0.86442  0.73991  1.0000
  C   C444      1.0  0.9690100000000003  0.8988200000000002  0.80595  1.0000
  N   N24       1.0  0.021470000000000083  0.9527200000000001  0.82901  1.0000
  C   C445      1.0  0.06274000000000003  0.97017  0.78585  1.0000
  C   C446      1.0  0.04964000000000007  0.9314900000000002  0.72054  1.0000
  C   C447      1.0  0.9886400000000002  0.83517  0.63857  1.0000
  C   C448      1.0  0.9944700000000002  0.7956800000000002  0.61368  1.0000
  C   C449      1.0  0.016629999999999985  0.7676  0.62952  1.0000
  C   C450      1.0  0.04517000000000004  0.7661400000000002  0.66474  1.0000
  C   C451      1.0  0.08267000000000006  0.76634  0.70155  1.0000
  C   C452      1.0  0.1279100000000001  0.77975  0.01109  1.0000
  C   C453      1.0  0.16470999999999994  0.77697  0.04256999999999999  1.0000
  C   C454      1.0  0.1553900000000001  0.7603600000000001  0.76575  1.0000
  C   C455      1.0  0.11061000000000008  0.7517600000000001  0.79735  1.0000
  C   C456      1.0  0.0740900000000001  0.7548400000000001  0.76481  1.0000
  H   H139      1.0  0.92282  0.81966  0.72244  1.0000
  H   H140      1.0  0.08004999999999998  0.93813  0.68725  1.0000
  H   H141      1.0  0.13528000000000004  0.7917200000000001  0.9637  1.0000
  H   H142      1.0  0.20037  0.78701  0.01901  1.0000
  H   H143      1.0  0.10312  0.74065  0.8453399999999999  1.0000
  H   H144      1.0  0.038799999999999994  0.74675  0.78844  1.0000
