data_image0
_chemical_formula_structural       CH3C2H2C2O4CdCO3C2O4Cd2CO3HC6HC4H4C2H6C6H2C3H4CH3C6H3C6HC3H2CH3C2H10C3H2CH5C2H7NC2H3C2H3CH4CH2NC9H3NC8H5C2H4C5HCHCH2C5HC2H2C2H5CH2CH4C2HCH2CHC2H2C2H2CH7OHCHC2H2C3H2C3H2C3HC3OC5HCH6CH3CHCHCHCH4CHCH2C2H4NHNCH2C4H3C2H2C6HC2H3CH2C2H3CH2C6HC3H5CHCdC3H4NHCH2CH4CHO2C2H2C7H3C6H4C2O3Cd2C2O4HOC2O3Cd2C2O4HOC2HC2H3CH4CHCH3C6H2C3H4CH5C6HC3H2CH4C2H7C5HC2H3CH2C6H2C3H2CH3C2H6
_chemical_formula_sum              "C244 H254 O34 Cd8 N6"
_cell_length_a       19.76824
_cell_length_b       20.62741
_cell_length_c       23.73857
_cell_angle_alpha    97.95756
_cell_angle_beta     82.04027
_cell_angle_gamma    116.26439

_symmetry_space_group_name_H-M    'P 1'
_symmetry_Int_Tables_number       1

loop_
  _symmetry_equiv_pos_as_xyz
  'x,y,z'

loop_
  _atom_site_type_symbol
  _atom_site_label
  _atom_site_symmetry_multiplicity
  _atom_site_fract_x
  _atom_site_fract_y
  _atom_site_fract_z
  _atom_site_occupancy
  C   C1        1.0  0.10558000000000003  0.51498  0.33588  1.0000
  H   H1        1.0  0.04540999999999998  0.49995999999999996  0.33823000000000003  1.0000
  H   H2        1.0  0.13261000000000003  0.62335  0.37376  1.0000
  H   H3        1.0  0.18520999999999996  0.78406  0.24728  1.0000
  C   C2        1.0  0.27136999999999994  0.81847  0.7702800000000002  1.0000
  C   C3        1.0  0.22636999999999996  0.78293  0.8175600000000002  1.0000
  H   H4        1.0  0.17283000000000012  0.7852700000000001  0.8311500000000002  1.0000
  H   H5        1.0  0.21305000000000002  0.7129  0.8815000000000002  1.0000
  C   C4        1.0  0.14274  0.18924  0.09273  1.0000
  C   C5        1.0  0.16387999999999997  0.056020000000000014  0.23117000000000004  1.0000
  O   O1        1.0  0.10496  0.13364  0.12242000000000003  1.0000
  O   O2        1.0  0.10461000000000001  0.02646  0.20253000000000004  1.0000
  O   O3        1.0  0.10312999999999999  0.19833  0.057810000000000014  1.0000
  O   O4        1.0  0.18294999999999997  0.12373  0.24904000000000007  1.0000
  Cd  Cd1       1.0  0.07792  0.13512  0.22083  1.0000
  C   C6        1.0  0.97092  0.19762  0.17867  1.0000
  O   O5        1.0  0.9737499999999999  0.13798  0.18804000000000004  1.0000
  O   O6        1.0  0.95861  0.19996  0.1269  1.0000
  O   O7        1.0  0.036579999999999974  0.12509  0.32092000000000004  1.0000
  C   C7        1.0  0.11225  0.10211  0.52457  1.0000
  C   C8        1.0  0.1900100000000001  0.98355  0.6402600000000002  1.0000
  O   O8        1.0  0.0894  0.06335  0.56795  1.0000
  O   O9        1.0  0.11773999999999993  0.96466  0.64124  1.0000
  O   O10       1.0  0.06049999999999998  0.11418  0.5059600000000001  1.0000
  O   O11       1.0  0.23170000000000002  0.05278000000000001  0.6381300000000001  1.0000
  Cd  Cd2       1.0  0.13639  0.09366  0.65593  1.0000
  Cd  Cd3       1.0  0.96526  0.06779  0.5815  1.0000
  C   C9        1.0  0.050009999999999964  0.18979999999999997  0.65648  1.0000
  O   O12       1.0  0.03771999999999998  0.12584  0.6681200000000002  1.0000
  O   O13       1.0  0.014249999999999966  0.19179  0.6154700000000001  1.0000
  O   O14       1.0  0.17061999999999997  0.11907000000000002  0.7527000000000001  1.0000
  H   H6        1.0  0.006779999999999981  0.10771  0.70508  1.0000
  C   C10       1.0  0.09394  0.25527  0.69227  1.0000
  C   C11       1.0  0.16785  0.30486  0.67312  1.0000
  C   C12       1.0  0.20418999999999998  0.37044  0.70631  1.0000
  C   C13       1.0  0.16833999999999993  0.38726  0.75757  1.0000
  C   C14       1.0  0.09568999999999997  0.33633999999999986  0.77752  1.0000
  C   C15       1.0  0.06020999999999995  0.26993  0.7452200000000001  1.0000
  H   H7        1.0  0.003919999999999972  0.23128999999999997  0.7597600000000001  1.0000
  C   C16       1.0  0.2045  0.293  0.61417  1.0000
  C   C17       1.0  0.05138  0.3554  0.82905  1.0000
  C   C18       1.0  0.28586  0.30145  0.61456  1.0000
  C   C19       1.0  0.007150000000000008  0.39357  0.81162  1.0000
  H   H8        1.0  0.9708799999999999  0.3595  0.7770800000000001  1.0000
  H   H9        1.0  0.04708999999999995  0.44643  0.7952400000000002  1.0000
  H   H10       1.0  0.17125  0.23896  0.59258  1.0000
  H   H11       1.0  0.08904999999999996  0.38993  0.8625200000000001  1.0000
  C   C20       1.0  0.28876  0.24106999999999998  0.6432300000000001  1.0000
  C   C21       1.0  0.9567299999999999  0.40720000000000006  0.8619100000000002  1.0000
  H   H12       1.0  0.25750000000000006  0.188  0.6194200000000001  1.0000
  H   H13       1.0  0.3485299999999999  0.25016  0.64284  1.0000
  H   H14       1.0  0.26393999999999995  0.24012  0.6881900000000001  1.0000
  H   H15       1.0  0.92698  0.43635  0.8482200000000001  1.0000
  H   H16       1.0  0.9911500000000001  0.44093000000000004  0.8974100000000003  1.0000
  H   H17       1.0  0.011000000000000003  0.30484000000000006  0.8487900000000003  1.0000
  C   C22       1.0  0.24765  0.86116  0.73953  1.0000
  C   C23       1.0  0.28656999999999994  0.93766  0.74329  1.0000
  C   C24       1.0  0.2733800000000001  0.97616  0.7053500000000003  1.0000
  C   C25       1.0  0.21810999999999983  0.94025  0.6664500000000001  1.0000
  C   C26       1.0  0.18364000000000005  0.8635700000000001  0.65956  1.0000
  C   C27       1.0  0.19504999999999995  0.82489  0.69876  1.0000
  H   H18       1.0  0.30229  0.03495000000000001  0.7092200000000001  1.0000
  H   H19       1.0  0.16785000000000005  0.76604  0.6942700000000002  1.0000
  C   C28       1.0  0.33818999999999994  0.9797999999999999  0.79022  1.0000
  C   C29       1.0  0.14794999999999994  0.82286  0.60526  1.0000
  C   C30       1.0  0.29882  0.012580000000000006  0.83805  1.0000
  H   H20       1.0  0.26410999999999996  0.03382000000000002  0.8203500000000001  1.0000
  H   H21       1.0  0.34314  0.059500000000000004  0.8603600000000001  1.0000
  H   H22       1.0  0.36088  0.9474  0.80834  1.0000
  H   H23       1.0  0.12590000000000007  0.8535000000000001  0.5843100000000001  1.0000
  C   C31       1.0  0.24932999999999994  0.95864  0.88149  1.0000
  H   H24       1.0  0.38886999999999994  0.024950000000000017  0.7713400000000001  1.0000
  H   H25       1.0  0.14605  0.77248  0.48564  1.0000
  H   H26       1.0  0.09873999999999993  0.77148  0.6164800000000001  1.0000
  C   C32       1.0  0.010129999999999983  0.26624  0.21367000000000005  1.0000
  C   C33       1.0  0.9823500000000001  0.27814  0.2705  1.0000
  C   C34       1.0  0.026279999999999984  0.34152  0.30363000000000007  1.0000
  C   C35       1.0  0.08666999999999996  0.39907  0.27725000000000005  1.0000
  C   C36       1.0  0.10216999999999998  0.39295  0.21732000000000007  1.0000
  C   C37       1.0  0.06951999999999998  0.32453  0.18722000000000005  1.0000
  H   H27       1.0  0.010150000000000013  0.34796000000000005  0.34887000000000007  1.0000
  H   H28       1.0  0.08652999999999997  0.31802  0.14215  1.0000
  H   H29       1.0  0.9320400000000001  0.19805  0.36277  1.0000
  C   C38       1.0  0.18548000000000003  0.01095  0.26098  1.0000
  C   C39       1.0  0.25644  0.008560000000000002  0.24791000000000002  1.0000
  C   C40       1.0  0.27153999999999984  0.9599899999999999  0.27423  1.0000
  C   C41       1.0  0.21582999999999994  0.9117400000000001  0.31071  1.0000
  C   C42       1.0  0.14786999999999986  0.9187699999999999  0.32756  1.0000
  C   C43       1.0  0.13383000000000003  0.96896  0.30276  1.0000
  H   H30       1.0  0.08360999999999998  0.9768399999999999  0.31713  1.0000
  C   C44       1.0  0.31403  0.05233  0.20257  1.0000
  C   C45       1.0  0.09563000000000013  0.8815500000000001  0.37762  1.0000
  C   C46       1.0  0.31819  0.003620000000000003  0.14842  1.0000
  H   H31       1.0  0.3296200000000001  0.9586600000000001  0.15878000000000003  1.0000
  H   H32       1.0  0.36688  0.03638000000000001  0.11940000000000003  1.0000
  C   C47       1.0  0.11367000000000005  0.9338399999999999  0.43181  1.0000
  H   H33       1.0  0.09812999999999984  0.9787399999999999  0.42847  1.0000
  H   H34       1.0  0.30334  0.0974  0.19158  1.0000
  H   H35       1.0  0.09999999999999999  0.83131  0.38399  1.0000
  C   C48       1.0  0.24570999999999985  0.9716799999999999  0.11775000000000002  1.0000
  C   C49       1.0  0.07052000000000007  0.8952500000000001  0.48453  1.0000
  H   H36       1.0  0.23032  0.015050000000000001  0.10966  1.0000
  H   H37       1.0  0.2548899999999999  0.94341  0.07622  1.0000
  H   H38       1.0  0.19807  0.9317100000000001  0.14351  1.0000
  H   H39       1.0  0.008569999999999939  0.8710399999999999  0.48094  1.0000
  H   H40       1.0  0.03593999999999999  0.86442  0.36911  1.0000
  H   H41       1.0  0.14387000000000003  0.24065000000000003  0.49608  1.0000
  H   H42       1.0  0.13044999999999998  0.34232  0.46158  1.0000
  H   H43       1.0  0.99862  0.33233  0.95528  1.0000
  H   H44       1.0  0.19966999999999996  0.28915  0.17545000000000002  1.0000
  H   H45       1.0  0.21313  0.27592  0.2753300000000001  1.0000
  C   C50       1.0  0.9867499999999998  0.0575  0.31684  1.0000
  C   C51       1.0  0.11338999999999998  0.06342000000000005  0.7734700000000002  1.0000
  C   C52       1.0  0.20508000000000004  0.80514  0.563  1.0000
  H   H46       1.0  0.23528  0.78326  0.58544  1.0000
  H   H47       1.0  0.2478499999999999  0.85549  0.5443100000000001  1.0000
  C   C53       1.0  0.1662  0.7486  0.5149500000000001  1.0000
  H   H48       1.0  0.28402  0.94021  0.9022500000000001  1.0000
  H   H49       1.0  0.20396999999999996  0.9110199999999999  0.86057  1.0000
  H   H50       1.0  0.11769000000000003  0.70069  0.53247  1.0000
  H   H51       1.0  0.2068399999999999  0.72945  0.49034000000000005  1.0000
  H   H52       1.0  0.08727000000000003  0.85195  0.4896700000000001  1.0000
  C   C54       1.0  0.10494999999999999  0.046170000000000024  0.8330500000000002  1.0000
  C   C55       1.0  0.92105  0.04665  0.4154  1.0000
  H   H53       1.0  0.92775  0.10182000000000001  0.4164300000000001  1.0000
  H   H54       1.0  0.22218999999999997  0.98501  0.91485  1.0000
  H   H55       1.0  0.9117299999999999  0.13473  0.3003  1.0000
  H   H56       1.0  0.1354899999999999  0.9463  0.76803  1.0000
  H   H57       1.0  0.08458  0.93471  0.52275  1.0000
  H   H58       1.0  0.9921  0.37426  0.026430000000000002  1.0000
  H   H59       1.0  0.1752700000000001  0.9577000000000001  0.43704000000000004  1.0000
  N   N1        1.0  0.10152  0.9279700000000001  0.8053500000000002  1.0000
  C   C56       1.0  0.08473000000000008  0.9741900000000001  0.8447400000000002  1.0000
  C   C57       1.0  0.24948  0.74263  0.8465  1.0000
  H   H60       1.0  0.08310000000000001  0.87373  0.8128400000000001  1.0000
  H   H61       1.0  0.23424  0.43319  0.8578  1.0000
  H   H62       1.0  0.12284  0.29831  0.38962  1.0000
  C   C58       1.0  0.20971000000000004  0.78804  0.28644000000000003  1.0000
  C   C59       1.0  0.23757999999999999  0.47711000000000003  0.8355600000000001  1.0000
  H   H63       1.0  0.11069999999999998  0.45409  0.14801  1.0000
  H   H64       1.0  0.37058  0.07855  0.21967  1.0000
  H   H65       1.0  0.31036  0.29977  0.56966  1.0000
  C   C60       1.0  0.22572  0.84946  0.32542  1.0000
  H   H66       1.0  0.21478999999999995  0.68552  0.26657000000000003  1.0000
  H   H67       1.0  0.30277  0.56008  0.8975200000000002  1.0000
  H   H68       1.0  0.20594  0.33343  0.58699  1.0000
  H   H69       1.0  0.32526  0.9569  0.26368  1.0000
  C   C61       1.0  0.16292  0.33553  0.42091  1.0000
  H   H70       1.0  0.1949  0.38926  0.40356  1.0000
  H   H71       1.0  0.13613999999999998  0.19348000000000004  0.4254100000000001  1.0000
  N   N2        1.0  0.28668  0.68479  0.3565500000000001  1.0000
  C   C62       1.0  0.13401999999999994  0.4649499999999999  0.31205000000000005  1.0000
  C   C63       1.0  0.15534000000000003  0.58582  0.3539  1.0000
  C   C64       1.0  0.23441000000000004  0.60868  0.3440800000000001  1.0000
  C   C65       1.0  0.26141  0.55509  0.32837  1.0000
  C   C66       1.0  0.2112  0.48366  0.31281000000000003  1.0000
  C   C67       1.0  0.22673  0.73231  0.29734  1.0000
  C   C68       1.0  0.26104000000000005  0.73805  0.3473  1.0000
  C   C69       1.0  0.27598  0.79928  0.3863800000000001  1.0000
  C   C70       1.0  0.25627  0.85359  0.37631000000000003  1.0000
  H   H72       1.0  0.23283999999999994  0.44378999999999996  0.29819000000000007  1.0000
  H   H73       1.0  0.30423  0.80533  0.4240200000000001  1.0000
  H   H74       1.0  0.2651000000000001  0.89899  0.4078100000000001  1.0000
  N   N3        1.0  0.33030000000000004  0.68097  0.84984  1.0000
  C   C71       1.0  0.20258999999999996  0.46206  0.7847300000000003  1.0000
  C   C72       1.0  0.27725999999999995  0.54897  0.8576400000000002  1.0000
  C   C73       1.0  0.28618999999999994  0.60658  0.82739  1.0000
  C   C74       1.0  0.2521699999999999  0.5908  0.77547  1.0000
  C   C75       1.0  0.20912  0.51923  0.7554600000000002  1.0000
  C   C76       1.0  0.31631999999999993  0.73532  0.8272700000000002  1.0000
  C   C77       1.0  0.36188999999999993  0.77214  0.7800300000000002  1.0000
  C   C78       1.0  0.33896  0.81272  0.75159  1.0000
  H   H75       1.0  0.25997999999999993  0.63349  0.7500000000000002  1.0000
  H   H76       1.0  0.1831  0.50799  0.71576  1.0000
  H   H77       1.0  0.3734  0.83925  0.71454  1.0000
  H   H78       1.0  0.25825999999999993  0.41107000000000005  0.6902300000000002  1.0000
  H   H79       1.0  0.32268  0.35484  0.63555  1.0000
  C   C79       1.0  0.14337000000000003  0.45988000000000007  0.18447000000000005  1.0000
  C   C80       1.0  0.22354999999999994  0.4703399999999999  0.16134  1.0000
  H   H80       1.0  0.22011999999999998  0.42565  0.12809  1.0000
  H   H81       1.0  0.25493  0.46927  0.19623  1.0000
  H   H82       1.0  0.14576  0.5094  0.21124000000000004  1.0000
  H   H83       1.0  0.23842  0.54531  0.09939  1.0000
  C   C81       1.0  0.31642  0.13296  0.4973600000000001  1.0000
  C   C82       1.0  0.2377899999999999  0.0996  0.50993  1.0000
  C   C83       1.0  0.19241999999999998  0.13266000000000003  0.4999800000000001  1.0000
  C   C84       1.0  0.22537999999999997  0.19669  0.47023  1.0000
  C   C85       1.0  0.30373999999999995  0.22630000000000003  0.4530000000000001  1.0000
  H   H84       1.0  0.21212  0.04910000000000001  0.52998  1.0000
  C   C86       1.0  0.17646999999999993  0.23180999999999996  0.45617000000000013  1.0000
  H   H85       1.0  0.29538999999999993  0.9911299999999998  0.4855400000000001  1.0000
  C   C87       1.0  0.21824  0.30577000000000004  0.43101000000000006  1.0000
  H   H86       1.0  0.24915  0.30001  0.38939000000000007  1.0000
  H   H87       1.0  0.25921  0.34536  0.46082000000000006  1.0000
  C   C88       1.0  0.32383  0.20924  0.0068  1.0000
  C   C89       1.0  0.24921  0.1775  0.03207  1.0000
  C   C90       1.0  0.22452  0.21410999999999997  0.07832  1.0000
  C   C91       1.0  0.27633  0.28148  0.10222000000000002  1.0000
  C   C92       1.0  0.34862  0.31633  0.074  1.0000
  H   H88       1.0  0.20946  0.12493  0.01457  1.0000
  C   C93       1.0  0.2613  0.30903  0.16280000000000003  1.0000
  C   C94       1.0  0.2984200000000001  0.28595000000000004  0.20388  1.0000
  H   H89       1.0  0.36109  0.31472  0.19616  1.0000
  H   H90       1.0  0.28215000000000007  0.22683  0.19601000000000005  1.0000
  C   C95       1.0  0.35801  0.07685  0.01263  1.0000
  C   C96       1.0  0.27563  0.30337  0.26609  1.0000
  H   H91       1.0  0.3049  0.034560000000000014  0.99583  1.0000
  H   H92       1.0  0.34444  0.10145  0.05467000000000002  1.0000
  H   H93       1.0  0.29566999999999993  0.36286  0.27571  1.0000
  H   H94       1.0  0.3021299999999999  0.28395  0.29408000000000006  1.0000
  H   H95       1.0  0.28612  0.36915  0.16614000000000004  1.0000
  C   C97       1.0  0.35615  0.02964  0.48663000000000006  1.0000
  H   H96       1.0  0.34651  0.09348000000000001  0.5646100000000001  1.0000
  H   H97       1.0  0.2969  0.12274  0.9383800000000001  1.0000
  C   C98       1.0  0.36459  0.10233  0.51886  1.0000
  H   H98       1.0  0.91192  0.44643  0.15960000000000002  1.0000
  H   H99       1.0  0.84592  0.47747000000000006  0.20006000000000004  1.0000
  H   H100      1.0  0.32090999999999986  0.56847  0.32779  1.0000
  H   H101      1.0  0.4126699999999999  0.76624  0.7633800000000002  1.0000
  C   C99       1.0  0.26792  0.54255  0.13493  1.0000
  C   C100      1.0  0.3494999999999999  0.19696  0.46857  1.0000
  H   H102      1.0  0.33026  0.27391  0.42946  1.0000
  C   C101      1.0  0.39465  0.03842  0.4259300000000001  1.0000
  H   H103      1.0  0.39447999999999994  0.9861800000000001  0.40669000000000005  1.0000
  H   H104      1.0  0.36397999999999997  0.0547  0.39908  1.0000
  C   C102      1.0  0.37427  0.27979  0.02812  1.0000
  H   H105      1.0  0.38772  0.36925  0.09142  1.0000
  C   C103      1.0  0.3478  0.16764  0.95632  1.0000
  C   C104      1.0  0.39929000000000003  0.13564  0.97167  1.0000
  H   H106      1.0  0.41990999999999984  0.11188  0.93215  1.0000
  H   H107      1.0  0.39497  0.05086  0.01823  1.0000
  C   C105      1.0  0.38441  0.71446  0.27388000000000007  1.0000
  C   C106      1.0  0.36414  0.70548  0.33257  1.0000
  H   H108      1.0  0.34149  0.70031  0.24485000000000007  1.0000
  H   H109      1.0  0.40464  0.70794  0.4130300000000001  1.0000
  C   C107      1.0  0.40969999999999995  0.69982  0.8522300000000002  1.0000
  H   H110      1.0  0.42266  0.64259  0.77064  1.0000
  H   H111      1.0  0.41671  0.76367  0.9331800000000001  1.0000
  H   H112      1.0  0.32513999999999993  0.54779  0.11781000000000001  1.0000
  H   H113      1.0  0.2744500000000001  0.5884900000000001  0.16770000000000002  1.0000
  H   H114      1.0  0.38273000000000007  0.005330000000000002  0.51029  1.0000
  H   H115      1.0  0.42552999999999996  0.1404  0.51813  1.0000
  H   H116      1.0  0.37607  0.2023  0.92064  1.0000
  O   O15       1.0  0.06256999999999997  0.024669999999999997  0.73863  1.0000
  H   H117      1.0  0.95464  0.57762  0.15126000000000003  1.0000
  C   C108      1.0  0.04682000000000004  0.9502900000000001  0.89753  1.0000
  H   H118      1.0  0.026300000000000035  0.89379  0.9048300000000002  1.0000
  C   C109      1.0  0.45093999999999995  0.67788  0.80661  1.0000
  C   C110      1.0  0.44787999999999983  0.74663  0.8978900000000002  1.0000
  H   H119      1.0  0.45459  0.07934  0.4263400000000001  1.0000
  H   H120      1.0  0.45036  0.17803000000000005  0.9907500000000002  1.0000
  C   C111      1.0  0.45657999999999993  0.30933  0.011190000000000004  1.0000
  C   C112      1.0  0.48516999999999993  0.32537  0.9547900000000002  1.0000
  C   C113      1.0  0.50628  0.31701  0.05112  1.0000
  H   H121      1.0  0.44925  0.32695  0.92495  1.0000
  H   H122      1.0  0.48578  0.30838  0.09547  1.0000
  C   C114      1.0  0.43232  0.23640000000000003  0.45798  1.0000
  C   C115      1.0  0.46963000000000005  0.21885  0.40787  1.0000
  C   C116      1.0  0.4746299999999999  0.28507  0.5010900000000001  1.0000
  H   H123      1.0  0.43748  0.1839  0.37327  1.0000
  H   H124      1.0  0.44632  0.30091  0.53908  1.0000
  C   C117      1.0  0.41997  0.71704  0.36826  1.0000
  C   C118      1.0  0.4605600000000001  0.74243  0.25279  1.0000
  C   C119      1.0  0.49550999999999995  0.73973  0.3461400000000001  1.0000
  H   H125      1.0  0.47585  0.75273  0.20819  1.0000
  C   C120      1.0  0.52948  0.70572  0.80547  1.0000
  C   C121      1.0  0.52665  0.77447  0.8966400000000002  1.0000
  C   C122      1.0  0.9493800000000001  0.01578999999999999  0.3672  1.0000
  O   O16       1.0  0.97525  0.02789  0.26528  1.0000
  C   C123      1.0  0.55907  0.33524  0.9360700000000002  1.0000
  C   C124      1.0  0.58198  0.33375  0.03359  1.0000
  C   C125      1.0  0.54798  0.24207000000000004  0.40407000000000004  1.0000
  C   C126      1.0  0.553  0.30925  0.49704000000000004  1.0000
  C   C127      1.0  0.51681  0.7569  0.28916  1.0000
  H   H126      1.0  0.53792  0.74675  0.37381  1.0000
  C   C128      1.0  0.56775  0.75478  0.8501  1.0000
  H   H127      1.0  0.56092  0.6906500000000001  0.7691600000000002  1.0000
  H   H128      1.0  0.55587  0.81273  0.9310400000000002  1.0000
  H   H129      1.0  0.62694  0.71474  0.98125  1.0000
  H   H130      1.0  0.5967400000000002  0.65442  0.88036  1.0000
  H   H131      1.0  0.5794799999999999  0.34288  0.8916300000000003  1.0000
  H   H132      1.0  0.6204499999999998  0.34346  0.06523  1.0000
  C   C129      1.0  0.58966  0.28489  0.44955000000000006  1.0000
  H   H133      1.0  0.5759799999999999  0.22464999999999996  0.36676  1.0000
  H   H134      1.0  0.58508  0.34621  0.53078  1.0000
  H   H135      1.0  0.5774600000000001  0.8794800000000002  0.3565500000000001  1.0000
  C   C130      1.0  0.60751  0.33788  0.9751600000000001  1.0000
  H   H136      1.0  0.67318  0.32015  0.56437  1.0000
  C   C131      1.0  0.6583200000000001  0.67437  0.8675400000000002  1.0000
  H   H137      1.0  0.6752300000000001  0.6235200000000002  0.9348400000000002  1.0000
  C   C132      1.0  0.68813  0.73041  0.96908  1.0000
  H   H138      1.0  0.71443  0.72793  0.006640000000000001  1.0000
  C   C133      1.0  0.59769  0.786  0.26658000000000004  1.0000
  H   H139      1.0  0.57689  0.70136  0.19755  1.0000
  H   H140      1.0  0.6748799999999998  0.93215  0.36312000000000005  1.0000
  H   H141      1.0  0.56587  0.80627  0.034260000000000006  1.0000
  H   H142      1.0  0.66055  0.47457  0.97517  1.0000
  C   C134      1.0  0.6512699999999999  0.7890299999999999  0.84589  1.0000
  H   H143      1.0  0.66134  0.8971800000000001  0.8445900000000002  1.0000
  C   C135      1.0  0.69873  0.67865  0.9197900000000001  1.0000
  H   H144      1.0  0.71591  0.78715  0.9570400000000001  1.0000
  H   H145      1.0  0.66447  0.63257  0.83507  1.0000
  C   C136      1.0  0.6196199999999998  0.74821  0.21937000000000006  1.0000
  C   C137      1.0  0.6325  0.90493  0.33107000000000003  1.0000
  H   H146      1.0  0.63137  0.00894000000000001  0.32875000000000004  1.0000
  H   H147      1.0  0.5104999999999998  0.9093300000000001  0.2904  1.0000
  H   H148      1.0  0.5691799999999999  0.9294999999999999  0.057390000000000004  1.0000
  H   H149      1.0  0.5481  0.88104  0.11940000000000003  1.0000
  N   N4        1.0  0.68491  0.35151  0.95571  1.0000
  H   H150      1.0  0.66773  0.22678000000000006  0.8943700000000002  1.0000
  N   N5        1.0  0.66842  0.29974  0.4486100000000001  1.0000
  C   C138      1.0  0.67912  0.27209  0.54509  1.0000
  H   H151      1.0  0.65468  0.41509  0.41518000000000005  1.0000
  H   H152      1.0  0.69765  0.24591999999999997  0.62448  1.0000
  C   C139      1.0  0.6914399999999999  0.74617  0.8409900000000001  1.0000
  C   C140      1.0  0.69048  0.8626  0.8359600000000003  1.0000
  C   C141      1.0  0.65346  0.85028  0.29229000000000005  1.0000
  C   C142      1.0  0.63248  0.9637100000000001  0.29774  1.0000
  H   H153      1.0  0.64366  0.61848  0.21523000000000003  1.0000
  H   H154      1.0  0.61908  0.59101  0.14205  1.0000
  H   H155      1.0  0.56361  0.91739  0.80437  1.0000
  C   C143      1.0  0.5935100000000001  0.9083600000000001  0.08587  1.0000
  C   C144      1.0  0.61654  0.85184  0.05170000000000002  1.0000
  H   H156      1.0  0.64056  0.82968  0.07956  1.0000
  H   H157      1.0  0.65859  0.87597  0.015460000000000002  1.0000
  C   C145      1.0  0.7405399999999999  0.42662  0.96695  1.0000
  C   C146      1.0  0.71842  0.48411  0.9776800000000002  1.0000
  C   C147      1.0  0.68936  0.23283000000000006  0.9352000000000003  1.0000
  C   C148      1.0  0.7030799999999999  0.29601  0.9718600000000001  1.0000
  C   C149      1.0  0.67625  0.25361  0.48566000000000004  1.0000
  C   C150      1.0  0.69433  0.23072000000000004  0.57904  1.0000
  H   H158      1.0  0.76023  0.69576  0.90776  1.0000
  C   C151      1.0  0.5639399999999999  0.93572  0.26299  1.0000
  C   C152      1.0  0.66466  0.60707  0.17089  1.0000
  H   H159      1.0  0.6795100000000001  0.5609400000000001  0.17018000000000003  1.0000
  H   H160      1.0  0.62857  0.020439999999999996  0.74413  1.0000
  H   H161      1.0  0.64107  0.07161  0.06487  1.0000
  C   C153      1.0  0.7035599999999997  0.43019  0.43849  1.0000
  H   H162      1.0  0.75278  0.59698  0.00515  1.0000
  H   H163      1.0  0.74247  0.35145  0.05375  1.0000
  C   C154      1.0  0.72097  0.37666  0.45537  1.0000
  C   C155      1.0  0.69635  0.77098  0.19975  1.0000
  H   H164      1.0  0.56253  0.98188  0.24487  1.0000
  H   H165      1.0  0.67118  0.71818  0.11475  1.0000
  H   H166      1.0  0.68314  0.96956  0.74193  1.0000
  C   C156      1.0  0.56278  0.90702  0.75726  1.0000
  H   H167      1.0  0.63588  0.00203  0.14674  1.0000
  H   H168      1.0  0.6934299999999999  0.12916  0.92226  1.0000
  C   C157      1.0  0.63071  0.9678999999999999  0.72869  1.0000
  C   C158      1.0  0.65967  0.97101  0.11490000000000003  1.0000
  C   C159      1.0  0.7712900000000001  0.5544  0.9928600000000002  1.0000
  C   C160      1.0  0.70321  0.17727  0.9512600000000001  1.0000
  C   C161      1.0  0.73078  0.30285  0.025120000000000007  1.0000
  C   C162      1.0  0.74807  0.50353  0.45380000000000004  1.0000
  H   H169      1.0  0.731  0.54401  0.44489000000000006  1.0000
  C   C163      1.0  0.76517  0.77268  0.8142400000000002  1.0000
  C   C164      1.0  0.73033  0.8679199999999999  0.27659  1.0000
  C   C165      1.0  0.71749  0.73704  0.14346  1.0000
  H   H170      1.0  0.6852899999999998  0.9861400000000001  0.26884  1.0000
  H   H171      1.0  0.5678  0.89649  0.22715  1.0000
  H   H172      1.0  0.50925  0.90468  0.74557  1.0000
  H   H173      1.0  0.5647  0.85398  0.7441100000000003  1.0000
  H   H174      1.0  0.74013  0.57111  0.57183  1.0000
  C   C166      1.0  0.69668  0.07319  0.05267  1.0000
  H   H175      1.0  0.68666  0.9490599999999999  0.14036  1.0000
  Cd  Cd4       1.0  0.98358  0.10401  0.08191000000000001  1.0000
  C   C167      1.0  0.9009599999999999  0.23276000000000002  0.29192  1.0000
  C   C168      1.0  0.8943300000000001  0.17357  0.32756  1.0000
  C   C169      1.0  0.09821  0.09588  0.87769  1.0000
  H   H176      1.0  0.11498999999999998  0.15163000000000001  0.8697000000000001  1.0000
  H   H177      1.0  0.8382  0.07812  0.49993000000000004  1.0000
  H   H178      1.0  0.8780700000000001  0.26869  0.31847  1.0000
  H   H179      1.0  0.060199999999999976  0.69885  0.35499  1.0000
  N   N6        1.0  0.83943  0.028449999999999986  0.50191  1.0000
  H   H180      1.0  0.86464  0.20782  0.2558  1.0000
  C   C170      1.0  0.88106  0.004990000000000002  0.4615000000000001  1.0000
  H   H181      1.0  0.80914  0.08828000000000001  0.37715000000000004  1.0000
  H   H182      1.0  0.9136799999999999  0.35477  0.8772000000000002  1.0000
  C   C171      1.0  0.81305  0.13198  0.35253  1.0000
  H   H183      1.0  0.79489  0.16937  0.38151  1.0000
  H   H184      1.0  0.80243  0.99428  0.53222  1.0000
  H   H185      1.0  0.77447  0.10701  0.31788  1.0000
  H   H186      1.0  0.92634  0.09936000000000002  0.20631000000000005  1.0000
  C   C172      1.0  0.06206999999999999  0.07197000000000006  0.9310200000000002  1.0000
  H   H187      1.0  0.05200999999999999  0.10962000000000001  0.96369  1.0000
  O   O17       1.0  0.0009200000000000006  0.00301  0.0425  1.0000
  O   O18       1.0  0.92718  0.94776  0.55411  1.0000
  C   C173      1.0  0.93697  0.94302  0.3655200000000001  1.0000
  C   C174      1.0  0.9042599999999998  0.90422  0.41366  1.0000
  H   H188      1.0  0.90157  0.85058  0.4135  1.0000
  H   H189      1.0  0.9556300000000002  0.91742  0.32798  1.0000
  C   C175      1.0  0.03337999999999995  0.9984  0.94018  1.0000
  C   C176      1.0  0.88043  0.93654  0.4632000000000001  1.0000
  C   C177      1.0  0.8467600000000001  0.56869  0.99622  1.0000
  C   C178      1.0  0.8712299999999998  0.5147  0.97668  1.0000
  C   C179      1.0  0.81856  0.4441800000000001  0.9612700000000001  1.0000
  C   C180      1.0  0.73076  0.18438  0.00425  1.0000
  C   C181      1.0  0.74309  0.24674  0.04151  1.0000
  H   H190      1.0  0.9303899999999999  0.52643  0.9762800000000001  1.0000
  H   H191      1.0  0.83798  0.40273  0.9471200000000001  1.0000
  H   H192      1.0  0.76332  0.25221  0.08283  1.0000
  C   C182      1.0  0.8117099999999999  0.52408  0.4839000000000001  1.0000
  C   C183      1.0  0.8359499999999999  0.47182  0.4919100000000001  1.0000
  C   C184      1.0  0.79265  0.39883  0.47516000000000014  1.0000
  C   C185      1.0  0.70933  0.17228  0.55386  1.0000
  C   C186      1.0  0.69922  0.14977  0.49585000000000007  1.0000
  C   C187      1.0  0.68258  0.19029  0.46196  1.0000
  H   H193      1.0  0.88683  0.48751  0.5130000000000001  1.0000
  H   H194      1.0  0.8132999999999999  0.35948  0.4797800000000001  1.0000
  H   H195      1.0  0.70624  0.10204  0.47673000000000004  1.0000
  H   H196      1.0  0.67595  0.17329  0.4170300000000001  1.0000
  C   C188      1.0  0.00716999999999997  0.83579  0.13039  1.0000
  C   C189      1.0  0.9840999999999999  0.97013  0.9920900000000001  1.0000
  O   O19       1.0  0.0033300000000000014  0.8950899999999999  0.12144  1.0000
  O   O20       1.0  0.01914  0.83312  0.18228  1.0000
  O   O21       1.0  0.93344  0.9030200000000002  0.9918000000000002  1.0000
  Cd  Cd5       1.0  0.8978299999999998  0.8977999999999999  0.0906  1.0000
  Cd  Cd6       1.0  0.9935500000000002  0.92852  0.22733000000000006  1.0000
  C   C190      1.0  0.8332099999999999  0.84718  0.21709000000000006  1.0000
  C   C191      1.0  0.8137200000000001  0.97881  0.08145000000000001  1.0000
  O   O22       1.0  0.8736599999999998  0.9019799999999999  0.18755000000000005  1.0000
  O   O23       1.0  0.8741  0.007390000000000002  0.10850000000000001  1.0000
  O   O24       1.0  0.8710899999999999  0.83497  0.2516300000000001  1.0000
  O   O25       1.0  0.79224  0.91062  0.06393  1.0000
  H   H197      1.0  0.05052000000000001  0.93444  0.10357  1.0000
  O   O26       1.0  0.98985  0.016840000000000004  0.15441000000000002  1.0000
  C   C192      1.0  0.94363  0.78258  0.63362  1.0000
  C   C193      1.0  0.8772100000000002  0.91028  0.51859  1.0000
  O   O27       1.0  0.9530099999999999  0.84628  0.62323  1.0000
  O   O28       1.0  0.9819199999999998  0.78175  0.6734900000000001  1.0000
  O   O29       1.0  0.8188600000000001  0.85506  0.5388300000000001  1.0000
  Cd  Cd7       1.0  0.8530199999999999  0.87816  0.63586  1.0000
  Cd  Cd8       1.0  0.02508000000000008  0.90399  0.7100400000000001  1.0000
  C   C194      1.0  0.8779499999999998  0.8680199999999999  0.76732  1.0000
  C   C195      1.0  0.80069  0.99  0.65382  1.0000
  O   O30       1.0  0.89979  0.9074500000000001  0.72437  1.0000
  O   O31       1.0  0.8729099999999999  0.00786  0.65179  1.0000
  O   O32       1.0  0.92905  0.85311  0.78369  1.0000
  O   O33       1.0  0.7579799999999999  0.9206  0.6524200000000001  1.0000
  H   H198      1.0  0.9833999999999999  0.8658900000000002  0.5866100000000001  1.0000
  O   O34       1.0  0.99475  0.9858800000000001  0.64615  1.0000
  C   C196      1.0  0.80138  0.8434  0.79712  1.0000
  C   C197      1.0  0.7663199999999999  0.8909899999999998  0.81293  1.0000
  H   H199      1.0  0.79496  0.73872  0.8079200000000002  1.0000
  C   C198      1.0  0.80992  0.97217  0.80866  1.0000
  C   C199      1.0  0.8686100000000001  0.008169999999999995  0.85291  1.0000
  H   H200      1.0  0.90558  0.97997  0.85086  1.0000
  H   H201      1.0  0.839  0.005220000000000009  0.8965300000000002  1.0000
  H   H202      1.0  0.77049  0.99832  0.81574  1.0000
  C   C200      1.0  0.9187599999999999  0.08752000000000001  0.8426700000000001  1.0000
  H   H203      1.0  0.949  0.09177  0.79937  1.0000
  H   H204      1.0  0.96171  0.11173  0.87415  1.0000
  H   H205      1.0  0.8842600000000003  0.11857  0.84717  1.0000
  H   H206      1.0  0.8374299999999998  0.9833299999999999  0.7649600000000001  1.0000
  C   C201      1.0  0.7521  0.82753  0.23158000000000004  1.0000
  H   H207      1.0  0.77339  0.91488  0.29812000000000005  1.0000
  C   C202      1.0  0.7348099999999999  0.67343  0.15112000000000003  1.0000
  H   H208      1.0  0.77832  0.69054  0.18195  1.0000
  H   H209      1.0  0.7582400000000002  0.6573800000000001  0.10920000000000003  1.0000
  H   H210      1.0  0.76765  0.7784  0.12063000000000001  1.0000
  C   C203      1.0  0.7304  0.13127000000000003  0.5890100000000001  1.0000
  C   C204      1.0  0.80462  0.1586  0.60638  1.0000
  C   C205      1.0  0.8238100000000003  0.11404  0.6343100000000002  1.0000
  C   C206      1.0  0.77177  0.04237  0.6429  1.0000
  C   C207      1.0  0.69444  0.02016000000000001  0.63462  1.0000
  C   C208      1.0  0.6755900000000001  0.06337000000000001  0.6047600000000001  1.0000
  H   H211      1.0  0.87953  0.13503  0.64895  1.0000
  H   H212      1.0  0.61768  0.04472  0.59468  1.0000
  C   C209      1.0  0.8635099999999999  0.23562000000000002  0.59737  1.0000
  C   C210      1.0  0.6308399999999998  0.9565699999999999  0.6632900000000002  1.0000
  C   C211      1.0  0.9220100000000002  0.23931000000000005  0.5462500000000001  1.0000
  H   H213      1.0  0.9341  0.19106  0.5414400000000001  1.0000
  H   H214      1.0  0.9759899999999999  0.28782  0.55447  1.0000
  H   H215      1.0  0.83801  0.27296  0.5939200000000001  1.0000
  H   H216      1.0  0.63333  0.90471  0.6466400000000001  1.0000
  C   C212      1.0  0.89748  0.24571  0.4899300000000001  1.0000
  H   H217      1.0  0.8773100000000001  0.28867  0.4945100000000001  1.0000
  H   H218      1.0  0.94653  0.26016  0.45721  1.0000
  H   H219      1.0  0.85221  0.1932  0.47496000000000005  1.0000
  H   H220      1.0  0.8945999999999998  0.25795  0.63642  1.0000
  H   H221      1.0  0.5752  0.95011  0.65214  1.0000
  C   C213      1.0  0.9080699999999999  0.7185400000000001  0.59366  1.0000
  C   C214      1.0  0.83085  0.67  0.6031300000000002  1.0000
  C   C215      1.0  0.7988899999999999  0.6094399999999999  0.56403  1.0000
  C   C216      1.0  0.84305  0.59566  0.51666  1.0000
  C   C217      1.0  0.91914  0.64637  0.50551  1.0000
  C   C218      1.0  0.95102  0.70724  0.54448  1.0000
  H   H222      1.0  0.009289999999999998  0.74601  0.53641  1.0000
  C   C219      1.0  0.78236  0.6801  0.6560000000000001  1.0000
  C   C220      1.0  0.96476  0.63973  0.44995000000000007  1.0000
  C   C221      1.0  0.7661  0.62477  0.69915  1.0000
  H   H223      1.0  0.73763  0.56859  0.6788300000000002  1.0000
  H   H224      1.0  0.72631  0.63167  0.7347  1.0000
  C   C222      1.0  0.95112  0.67603  0.40329  1.0000
  H   H225      1.0  0.9656699999999999  0.73394  0.41772  1.0000
  H   H226      1.0  0.89035  0.64855  0.39492  1.0000
  H   H227      1.0  0.8071000000000002  0.73587  0.67752  1.0000
  H   H228      1.0  0.95121  0.58221  0.4352700000000001  1.0000
  C   C223      1.0  0.8375200000000002  0.63393  0.7239  1.0000
  C   C224      1.0  0.99911  0.67228  0.34776000000000007  1.0000
  H   H229      1.0  0.86857  0.6904  0.74264  1.0000
  H   H230      1.0  0.8215099999999999  0.59674  0.75806  1.0000
  H   H231      1.0  0.87538  0.62034  0.6903000000000001  1.0000
  H   H232      1.0  0.72736  0.67237  0.64265  1.0000
  H   H233      1.0  0.98968  0.70082  0.31541  1.0000
  H   H234      1.0  0.98319  0.61489  0.33093  1.0000
  H   H235      1.0  0.026010000000000005  0.666  0.45666  1.0000
  C   C225      1.0  0.78818  0.024750000000000005  0.05623000000000001  1.0000
  C   C226      1.0  0.7157  0.02288  0.07281  1.0000
  C   C227      1.0  0.7501999999999999  0.12796  0.019700000000000002  1.0000
  C   C228      1.0  0.8231  0.1308  0.00414  1.0000
  C   C229      1.0  0.8402000000000001  0.07723  0.020530000000000003  1.0000
  H   H236      1.0  0.89528  0.07807  0.007220000000000002  1.0000
  C   C230      1.0  0.88514  0.19443  0.97476  1.0000
  C   C231      1.0  0.92821  0.25727  0.018350000000000005  1.0000
  H   H237      1.0  0.97626  0.24946  0.030390000000000007  1.0000
  H   H238      1.0  0.89122  0.2584  0.05787  1.0000
  H   H239      1.0  0.86132  0.21261  0.94369  1.0000
  C   C232      1.0  0.95989  0.3309  0.99417  1.0000
  H   H240      1.0  0.9130299999999998  0.34176000000000006  0.9836500000000002  1.0000
  H   H241      1.0  0.92649  0.1771  0.94907  1.0000
  C   C233      1.0  0.9701199999999999  0.76724  0.09438  1.0000
  C   C234      1.0  0.98372  0.76276  0.03399  1.0000
  C   C235      1.0  0.9424  0.6971  0.00224  1.0000
  C   C236      1.0  0.8955199999999999  0.63449  0.029790000000000007  1.0000
  C   C237      1.0  0.89032  0.6369  0.08991  1.0000
  C   C238      1.0  0.92511  0.70365  0.12161  1.0000
  H   H242      1.0  0.94874  0.69416  0.95597  1.0000
  H   H243      1.0  0.91788  0.7059  0.16785000000000003  1.0000
  C   C239      1.0  0.04892000000000002  0.82293  0.0035400000000000006  1.0000
  C   C240      1.0  0.85148  0.56815  0.12074000000000003  1.0000
  C   C241      1.0  0.12617  0.82732  0.01297  1.0000
  H   H244      1.0  0.13342999999999994  0.8343  0.059290000000000016  1.0000
  H   H245      1.0  0.17124999999999993  0.8757799999999999  0.9933800000000003  1.0000
  C   C242      1.0  0.90774  0.53716  0.12632000000000002  1.0000
  H   H246      1.0  0.93252  0.52556  0.08339  1.0000
  H   H247      1.0  0.04290999999999998  0.8145  0.9569  1.0000
  H   H248      1.0  0.80221  0.52658  0.0988  1.0000
  C   C243      1.0  0.13655000000000003  0.76026  0.9860500000000001  1.0000
  C   C244      1.0  0.86962  0.46721000000000007  0.15632  1.0000
  H   H249      1.0  0.12318999999999991  0.74862  0.9407900000000002  1.0000
  H   H250      1.0  0.1962  0.76996  0.98763  1.0000
  H   H251      1.0  0.09915999999999998  0.71236  0.00981  1.0000
  H   H252      1.0  0.047929999999999987  0.8758799999999999  0.01721  1.0000
  H   H253      1.0  0.8234599999999997  0.42518000000000006  0.13171000000000002  1.0000
  H   H254      1.0  0.82812  0.58042  0.16413000000000003  1.0000
