data_image0
_chemical_formula_structural       Zn8H320C192N32O64
_chemical_formula_sum              "Zn8 H320 C192 N32 O64"
_cell_length_a       24.86949715
_cell_length_b       18.82868035
_cell_length_c       16.23576654
_cell_angle_alpha    89.99996952
_cell_angle_beta     130.77607944
_cell_angle_gamma    90.00002042

_space_group_name_H-M_alt    "P 1"
_space_group_IT_number       1

loop_
  _space_group_symop_operation_xyz
  'x, y, z'

loop_
  _atom_site_type_symbol
  _atom_site_label
  _atom_site_symmetry_multiplicity
  _atom_site_fract_x
  _atom_site_fract_y
  _atom_site_fract_z
  _atom_site_occupancy
  Zn  Zn1       1.0  0.25001449  0.00026196  0.37517832  1.0000
  Zn  Zn2       1.0  0.7500145600000002  0.5002619500000001  0.37517774  1.0000
  Zn  Zn3       1.0  0.7499850000000001  0.00026249  0.12482179999999997  1.0000
  Zn  Zn4       1.0  0.24998571  0.50026188  0.12482287  1.0000
  Zn  Zn5       1.0  0.74998514  0.9997374600000001  0.62482157  1.0000
  Zn  Zn6       1.0  0.24998549000000006  0.49973735  0.62482276  1.0000
  Zn  Zn7       1.0  0.2500147099999999  0.99973775  0.8751779799999998  1.0000
  Zn  Zn8       1.0  0.7500155999999999  0.49973816000000004  0.8751788399999999  1.0000
  H   H1        1.0  0.45453338  0.06148763000000001  0.44335685  1.0000
  H   H2        1.0  0.4330927600000001  0.9769485700000001  0.38047388  1.0000
  H   H3        1.0  0.34973627  0.04153514  0.19411181999999996  1.0000
  H   H4        1.0  0.3852112200000001  0.12375266000000001  0.2674561899999999  1.0000
  H   H5        1.0  0.42037198  0.9671878100000001  0.17893377  1.0000
  H   H6        1.0  0.4867986  0.95941284  0.32364563  1.0000
  H   H7        1.0  0.42217538000000016  0.16096536  0.17734183  1.0000
  H   H8        1.0  0.37455008  0.08366020000000002  0.09283271999999997  1.0000
  H   H9        1.0  0.54423181  0.0650387  0.4309642299999999  1.0000
  H   H10       1.0  0.50640276  0.15146309  0.36891162  1.0000
  H   H11       1.0  0.06675008000000002  0.023092100000000008  0.01401508  1.0000
  H   H12       1.0  0.04547192000000001  0.9386232499999999  0.03458744  1.0000
  H   H13       1.0  0.14995818999999988  0.95861737  0.9944414899999998  1.0000
  H   H14       1.0  0.11512840999999988  0.87622733  0.9977486199999998  1.0000
  H   H15       1.0  0.07982958000000001  0.03175117  0.83770457  1.0000
  H   H16       1.0  0.013944529999999953  0.04060896  0.8503422499999997  1.0000
  H   H17       1.0  0.0776304499999999  0.83844057  0.8330824599999999  1.0000
  H   H18       1.0  0.12555496000000002  0.91566785  0.8446293299999998  1.0000
  H   H19       1.0  0.95509972  0.93513291  0.84125067  1.0000
  H   H20       1.0  0.99289123  0.84851071  0.8560262399999999  1.0000
  H   H21       1.0  0.31070414000000013  0.205031  0.57247724  1.0000
  H   H22       1.0  0.22647336  0.18284149  0.52995557  1.0000
  H   H23       1.0  0.37368915  0.13532225000000003  0.7414376399999998  1.0000
  H   H24       1.0  0.29163262  0.09962989  0.69735636  1.0000
  H   H25       1.0  0.20976698  0.23773920000000004  0.62325784  1.0000
  H   H26       1.0  0.21685661999999997  0.17054912000000003  0.7078630799999998  1.0000
  H   H27       1.0  0.21008997  0.26246299  0.7978396899999999  1.0000
  H   H28       1.0  0.21741221  0.32950761  0.72762659  1.0000
  H   H29       1.0  0.4015838699999999  0.25634383  0.7896445699999998  1.0000
  H   H30       1.0  0.31528256  0.29430327  0.67903238  1.0000
  H   H31       1.0  0.33318856999999996  0.3752281  0.8022114899999999  1.0000
  H   H32       1.0  0.41102367000000006  0.32819413  0.9164569199999998  1.0000
  H   H33       1.0  0.33310125  0.12422448  0.86481164  1.0000
  H   H34       1.0  0.41072762  0.17128850000000004  0.9056609699999998  1.0000
  H   H35       1.0  0.40190759  0.24281816  0.0146762  1.0000
  H   H36       1.0  0.31546757  0.20523932000000003  0.95252516  1.0000
  H   H37       1.0  0.37420355000000005  0.36449404  0.007206419999999998  1.0000
  H   H38       1.0  0.29206335  0.39990801  0.88697035  1.0000
  H   H39       1.0  0.22707331  0.31701975000000004  0.92444335  1.0000
  H   H40       1.0  0.31127203  0.29502381  0.05061378  1.0000
  H   H41       1.0  0.9545341700000001  0.5614883800000001  0.44335736999999986  1.0000
  H   H42       1.0  0.9330917700000002  0.4769485  0.3804722799999999  1.0000
  H   H43       1.0  0.8497366000000002  0.54153612  0.19411181999999996  1.0000
  H   H44       1.0  0.8852115  0.6237538  0.26745558  1.0000
  H   H45       1.0  0.9203726200000002  0.46718798  0.17893508  1.0000
  H   H46       1.0  0.98679906  0.45941305000000004  0.32364633  1.0000
  H   H47       1.0  0.9221754200000001  0.66096447  0.17734115  1.0000
  H   H48       1.0  0.8745513000000003  0.58366025  0.09283431  1.0000
  H   H49       1.0  0.04423214000000002  0.56503977  0.43096425999999993  1.0000
  H   H50       1.0  0.006402839999999947  0.65146365  0.3689109599999999  1.0000
  H   H51       1.0  0.5667498700000001  0.52309287  0.014014839999999997  1.0000
  H   H52       1.0  0.54547143  0.43862346  0.034586729999999996  1.0000
  H   H53       1.0  0.6499580399999999  0.45861745000000004  0.9944411699999998  1.0000
  H   H54       1.0  0.61512852  0.37622757  0.99774857  1.0000
  H   H55       1.0  0.5798291100000001  0.53175179  0.8377053299999998  1.0000
  H   H56       1.0  0.5139437600000001  0.54060875  0.85034186  1.0000
  H   H57       1.0  0.57763071  0.33844118  0.8330825599999998  1.0000
  H   H58       1.0  0.6255548100000001  0.41566846  0.8446288599999998  1.0000
  H   H59       1.0  0.45509968000000006  0.43513277  0.84125132  1.0000
  H   H60       1.0  0.49289132  0.34851078  0.85602549  1.0000
  H   H61       1.0  0.81070477  0.70503121  0.5724775399999998  1.0000
  H   H62       1.0  0.7264731500000001  0.68284019  0.52995555  1.0000
  H   H63       1.0  0.8736899800000001  0.63532154  0.74143902  1.0000
  H   H64       1.0  0.79163269  0.59962991  0.69735667  1.0000
  H   H65       1.0  0.7097676700000002  0.7377391300000001  0.62325825  1.0000
  H   H66       1.0  0.7168569600000002  0.67054944  0.70786319  1.0000
  H   H67       1.0  0.71009063  0.7624636200000001  0.7978396399999997  1.0000
  H   H68       1.0  0.71741284  0.82950774  0.7276270099999999  1.0000
  H   H69       1.0  0.90158473  0.75634354  0.7896450499999997  1.0000
  H   H70       1.0  0.8152833500000002  0.79430308  0.67903326  1.0000
  H   H71       1.0  0.8331896400000001  0.8752281600000001  0.8022125599999997  1.0000
  H   H72       1.0  0.9110243299999999  0.82819369  0.9164575699999998  1.0000
  H   H73       1.0  0.8331017300000001  0.62422508  0.8648119099999998  1.0000
  H   H74       1.0  0.9107275100000002  0.67128804  0.9056613499999999  1.0000
  H   H75       1.0  0.9019071300000002  0.74281761  0.014675989999999998  1.0000
  H   H76       1.0  0.8154677600000001  0.70523943  0.95252492  1.0000
  H   H77       1.0  0.87420389  0.86449371  0.007206819999999999  1.0000
  H   H78       1.0  0.7920642800000002  0.89990839  0.88697109  1.0000
  H   H79       1.0  0.7270734999999999  0.8170192000000002  0.9244428399999998  1.0000
  H   H80       1.0  0.81127229  0.7950238500000001  0.05061386  1.0000
  H   H81       1.0  0.54546625  0.06148773  0.05664293  1.0000
  H   H82       1.0  0.5669067700000001  0.97694861  0.11952620999999998  1.0000
  H   H83       1.0  0.65026326  0.0415358  0.30588758  1.0000
  H   H84       1.0  0.61478844  0.12375289  0.23254355999999995  1.0000
  H   H85       1.0  0.5796273500000001  0.96718767  0.3210646999999999  1.0000
  H   H86       1.0  0.51320056  0.9594131200000001  0.17635286  1.0000
  H   H87       1.0  0.5778244600000001  0.16096515  0.32265868  1.0000
  H   H88       1.0  0.6254492500000001  0.08365987  0.4071666599999999  1.0000
  H   H89       1.0  0.4557677500000001  0.06503956  0.06903526999999998  1.0000
  H   H90       1.0  0.4935971  0.15146382  0.13108889  1.0000
  H   H91       1.0  0.93324966  0.02309287  0.48598396999999993  1.0000
  H   H92       1.0  0.95452818  0.9386234000000001  0.46541177999999994  1.0000
  H   H93       1.0  0.8500416500000002  0.9586172000000001  0.50555854  1.0000
  H   H94       1.0  0.88487254  0.87622742  0.5022522  1.0000
  H   H95       1.0  0.92017014  0.03175116  0.6622955599999999  1.0000
  H   H96       1.0  0.98605559  0.04060921  0.64965812  1.0000
  H   H97       1.0  0.9223702100000002  0.83844027  0.6669184099999999  1.0000
  H   H98       1.0  0.8744452900000002  0.91566743  0.65537142  1.0000
  H   H99       1.0  0.0449011099999999  0.9351335100000001  0.6587492899999998  1.0000
  H   H100      1.0  0.007109309999999987  0.8485105500000001  0.64397469  1.0000
  H   H101      1.0  0.6892957400000003  0.20503108  0.9275229899999998  1.0000
  H   H102      1.0  0.77352673  0.18284162  0.97004477  1.0000
  H   H103      1.0  0.6263108300000001  0.13532212  0.75856256  1.0000
  H   H104      1.0  0.7083673100000002  0.09962977  0.80264374  1.0000
  H   H105      1.0  0.79023263  0.23773965000000002  0.87674243  1.0000
  H   H106      1.0  0.78314358  0.17054981  0.7921383799999998  1.0000
  H   H107      1.0  0.78991002  0.26246342  0.7021610199999998  1.0000
  H   H108      1.0  0.7825873300000001  0.3295079000000001  0.77237325  1.0000
  H   H109      1.0  0.59841562  0.25634408  0.7103555299999997  1.0000
  H   H110      1.0  0.6847170299999998  0.29430357  0.8209673499999999  1.0000
  H   H111      1.0  0.6668110200000001  0.37522828  0.6977879199999999  1.0000
  H   H112      1.0  0.5889760500000001  0.32819403  0.58354283  1.0000
  H   H113      1.0  0.66689894  0.12422455000000002  0.63518935  1.0000
  H   H114      1.0  0.58927248  0.17128833  0.59433939  1.0000
  H   H115      1.0  0.59809283  0.24281779000000003  0.4853243699999999  1.0000
  H   H116      1.0  0.6845328700000001  0.20523918000000002  0.5474757199999999  1.0000
  H   H117      1.0  0.62579633  0.36449364  0.4927935699999999  1.0000
  H   H118      1.0  0.7079358100000003  0.39990805  0.6130286199999999  1.0000
  H   H119      1.0  0.77292637  0.31701939  0.57555662  1.0000
  H   H120      1.0  0.6887278000000001  0.29502377  0.4493862  1.0000
  H   H121      1.0  0.04546647  0.56148794  0.05664272  1.0000
  H   H122      1.0  0.06690665  0.47694853  0.11952598999999998  1.0000
  H   H123      1.0  0.15026403000000002  0.54153553  0.3058882499999999  1.0000
  H   H124      1.0  0.11478895  0.6237527400000001  0.23254363  1.0000
  H   H125      1.0  0.07962806999999998  0.46718753  0.32106568999999996  1.0000
  H   H126      1.0  0.013201299999999996  0.45941306000000004  0.17635421999999998  1.0000
  H   H127      1.0  0.07782458  0.6609651500000001  0.32265778999999994  1.0000
  H   H128      1.0  0.12545007  0.58366044  0.4071669399999999  1.0000
  H   H129      1.0  0.9557679300000002  0.56503932  0.06903563  1.0000
  H   H130      1.0  0.99359676  0.6514627700000001  0.13108817  1.0000
  H   H131      1.0  0.43325064  0.52309245  0.48598545999999987  1.0000
  H   H132      1.0  0.45452881999999994  0.43862299  0.4654135399999999  1.0000
  H   H133      1.0  0.35004217  0.45861709000000006  0.50555877  1.0000
  H   H134      1.0  0.3848720700000001  0.37622693  0.50225206  1.0000
  H   H135      1.0  0.42017061999999994  0.53175147  0.6622947599999999  1.0000
  H   H136      1.0  0.48605579000000004  0.54060885  0.6496580199999998  1.0000
  H   H137      1.0  0.42236956000000003  0.338441  0.6669180799999999  1.0000
  H   H138      1.0  0.37444549  0.41566805  0.65537169  1.0000
  H   H139      1.0  0.54490044  0.43513287  0.65874894  1.0000
  H   H140      1.0  0.5071092100000001  0.34851088  0.6439752999999999  1.0000
  H   H141      1.0  0.1892956500000001  0.70502953  0.9275224  1.0000
  H   H142      1.0  0.27352693  0.6828405300000001  0.97004411  1.0000
  H   H143      1.0  0.1263112700000001  0.63532107  0.75856201  1.0000
  H   H144      1.0  0.20836743999999993  0.59962834  0.8026424999999998  1.0000
  H   H145      1.0  0.29023301000000007  0.73773816  0.87674257  1.0000
  H   H146      1.0  0.28314317  0.6705487  0.79213563  1.0000
  H   H147      1.0  0.28991018  0.76246415  0.70216162  1.0000
  H   H148      1.0  0.28258686  0.82950791  0.7723747  1.0000
  H   H149      1.0  0.09841529999999993  0.75634249  0.7103558399999997  1.0000
  H   H150      1.0  0.18471788999999997  0.7943024100000001  0.82096907  1.0000
  H   H151      1.0  0.1668103999999999  0.8752274200000001  0.6977882599999998  1.0000
  H   H152      1.0  0.08897522999999997  0.82819299  0.58354261  1.0000
  H   H153      1.0  0.16689888000000005  0.6242236  0.63518784  1.0000
  H   H154      1.0  0.08927157999999995  0.67128831  0.5943379299999999  1.0000
  H   H155      1.0  0.09809295000000001  0.74281782  0.48532338  1.0000
  H   H156      1.0  0.18453323  0.70523983  0.5474764  1.0000
  H   H157      1.0  0.12579635999999997  0.8644938000000001  0.4927942899999999  1.0000
  H   H158      1.0  0.20793610999999995  0.8999079100000001  0.6130300199999998  1.0000
  H   H159      1.0  0.27292596  0.81702005  0.57555705  1.0000
  H   H160      1.0  0.18872820999999998  0.79502409  0.44938820999999995  1.0000
  H   H161      1.0  0.54546642  0.93851229  0.55664396  1.0000
  H   H162      1.0  0.56690729  0.02305116  0.61952657  1.0000
  H   H163      1.0  0.65026386  0.95846486  0.8058887899999999  1.0000
  H   H164      1.0  0.6147887  0.87624767  0.73254435  1.0000
  H   H165      1.0  0.57962746  0.03281246000000001  0.82106514  1.0000
  H   H166      1.0  0.51320106  0.04058663  0.67635436  1.0000
  H   H167      1.0  0.5778247  0.8390344200000001  0.82265873  1.0000
  H   H168      1.0  0.6254497700000001  0.91633988  0.90716776  1.0000
  H   H169      1.0  0.45576841  0.9349605099999999  0.56903634  1.0000
  H   H170      1.0  0.49359765000000005  0.84853626  0.6310894  1.0000
  H   H171      1.0  0.93325026  0.97690776  0.98598544  1.0000
  H   H172      1.0  0.95452745  0.061376740000000006  0.9654115899999998  1.0000
  H   H173      1.0  0.8500416400000003  0.04138296  0.005558349999999998  1.0000
  H   H174      1.0  0.88487189  0.12377235  0.0022515  1.0000
  H   H175      1.0  0.92017099  0.96824893  0.16229535  1.0000
  H   H176      1.0  0.98605546  0.95939166  0.14965879  1.0000
  H   H177      1.0  0.9223691700000001  0.16155919000000002  0.16691734  1.0000
  H   H178      1.0  0.87444522  0.08433213  0.15537094  1.0000
  H   H179      1.0  0.04490024  0.06486758000000001  0.15874936  1.0000
  H   H180      1.0  0.007108479999999995  0.15148947  0.14397386  1.0000
  H   H181      1.0  0.6892961300000002  0.79497005  0.4275233999999999  1.0000
  H   H182      1.0  0.77352652  0.8171585900000001  0.47004351999999994  1.0000
  H   H183      1.0  0.6263111100000001  0.8646781400000001  0.25856293  1.0000
  H   H184      1.0  0.70836717  0.90036998  0.30264276  1.0000
  H   H185      1.0  0.79023132  0.76225908  0.37674128  1.0000
  H   H186      1.0  0.7831438100000001  0.8294504800000001  0.29213885999999994  1.0000
  H   H187      1.0  0.7899092099999999  0.73753747  0.20215968  1.0000
  H   H188      1.0  0.7825871200000001  0.67049189  0.27237211999999994  1.0000
  H   H189      1.0  0.59841403  0.74365644  0.21035291  1.0000
  H   H190      1.0  0.6847159900000002  0.70569663  0.32096692999999993  1.0000
  H   H191      1.0  0.66681121  0.6247716300000001  0.19778850999999997  1.0000
  H   H192      1.0  0.58897518  0.67180511  0.08354149  1.0000
  H   H193      1.0  0.6668994  0.8757753300000001  0.13518902999999996  1.0000
  H   H194      1.0  0.58927223  0.82871256  0.09433887999999997  1.0000
  H   H195      1.0  0.5980918100000001  0.75718177  0.9853235399999999  1.0000
  H   H196      1.0  0.6845319400000001  0.79476046  0.04747448  1.0000
  H   H197      1.0  0.6257961500000001  0.63550631  0.99279278  1.0000
  H   H198      1.0  0.7079357800000002  0.60009183  0.11302837999999998  1.0000
  H   H199      1.0  0.77292574  0.68298085  0.07555575  1.0000
  H   H200      1.0  0.68872767  0.7049754  0.9493855099999998  1.0000
  H   H201      1.0  0.04546577999999997  0.43851263  0.55664224  1.0000
  H   H202      1.0  0.06690739000000002  0.52305128  0.61952622  1.0000
  H   H203      1.0  0.15026291999999997  0.45846458000000007  0.8058873099999998  1.0000
  H   H204      1.0  0.1147880099999999  0.37624745  0.7325428099999998  1.0000
  H   H205      1.0  0.07962770999999991  0.5328127500000001  0.8210648599999999  1.0000
  H   H206      1.0  0.013199750000000001  0.5405866300000001  0.67635215  1.0000
  H   H207      1.0  0.07782518000000006  0.33903544  0.82265883  1.0000
  H   H208      1.0  0.12544907000000002  0.41634085000000004  0.9071661099999999  1.0000
  H   H209      1.0  0.9557673400000001  0.43496048000000004  0.56903454  1.0000
  H   H210      1.0  0.99359726  0.34853548  0.63108917  1.0000
  H   H211      1.0  0.43325052  0.47690749  0.98598584  1.0000
  H   H212      1.0  0.45452758000000004  0.56137638  0.9654121599999997  1.0000
  H   H213      1.0  0.35004162  0.54138252  0.00555867  1.0000
  H   H214      1.0  0.38487159000000004  0.62377183  0.00225162  1.0000
  H   H215      1.0  0.4201711100000001  0.46824835000000004  0.16229454  1.0000
  H   H216      1.0  0.4860561100000001  0.45939158999999996  0.14965855999999997  1.0000
  H   H217      1.0  0.4223689000000001  0.66155937  0.1669167  1.0000
  H   H218      1.0  0.3744453700000001  0.58433172  0.15537153  1.0000
  H   H219      1.0  0.54489984  0.56486759  0.15874789999999997  1.0000
  H   H220      1.0  0.50710799  0.65148997  0.14397368  1.0000
  H   H221      1.0  0.18929617999999995  0.29496974  0.4275231999999999  1.0000
  H   H222      1.0  0.2735267699999999  0.31715858  0.47004399999999996  1.0000
  H   H223      1.0  0.12631131  0.36467807  0.25856262  1.0000
  H   H224      1.0  0.20836751  0.40037044  0.30264313  1.0000
  H   H225      1.0  0.29023253  0.26226086  0.37674164  1.0000
  H   H226      1.0  0.28314334  0.32945035  0.29213725  1.0000
  H   H227      1.0  0.28990992  0.23753656000000004  0.20216100999999995  1.0000
  H   H228      1.0  0.28258725  0.17049239000000002  0.27237306  1.0000
  H   H229      1.0  0.09841541  0.24365642000000004  0.21035504  1.0000
  H   H230      1.0  0.18471708000000006  0.20569661  0.32096716  1.0000
  H   H231      1.0  0.16681096999999998  0.12477198  0.19778794999999996  1.0000
  H   H232      1.0  0.08897574000000001  0.17180616  0.08354223  1.0000
  H   H233      1.0  0.16689868000000005  0.37577553  0.13518852  1.0000
  H   H234      1.0  0.08927212  0.3287117  0.09433889999999998  1.0000
  H   H235      1.0  0.09809234999999997  0.25718202  0.98532336  1.0000
  H   H236      1.0  0.1845325  0.29476086  0.04747523999999999  1.0000
  H   H237      1.0  0.12579691999999992  0.13550637  0.9927939099999997  1.0000
  H   H238      1.0  0.20793639  0.10009163000000001  0.11302960999999997  1.0000
  H   H239      1.0  0.27292682  0.18298005  0.07555686999999998  1.0000
  H   H240      1.0  0.18872822999999997  0.20497611  0.94938658  1.0000
  H   H241      1.0  0.4545333500000001  0.9385123800000001  0.94335664  1.0000
  H   H242      1.0  0.4330927499999999  0.02305139  0.8804737899999998  1.0000
  H   H243      1.0  0.34973626999999996  0.9584650200000001  0.6941115899999998  1.0000
  H   H244      1.0  0.3852110700000001  0.8762480500000001  0.76745587  1.0000
  H   H245      1.0  0.42037286999999995  0.03281243  0.6789360799999999  1.0000
  H   H246      1.0  0.48679929999999993  0.040586760000000006  0.8236467499999999  1.0000
  H   H247      1.0  0.42217526999999994  0.8390346700000002  0.6773419399999998  1.0000
  H   H248      1.0  0.37455063  0.91634003  0.59283348  1.0000
  H   H249      1.0  0.54423198  0.93496071  0.9309648899999998  1.0000
  H   H250      1.0  0.5064024  0.84853602  0.86891154  1.0000
  H   H251      1.0  0.06674965999999999  0.97690799  0.51401486  1.0000
  H   H252      1.0  0.045471830000000046  0.061377240000000007  0.53458785  1.0000
  H   H253      1.0  0.14995821000000004  0.041384  0.49444175  1.0000
  H   H254      1.0  0.11512714000000002  0.12377321  0.49774760999999995  1.0000
  H   H255      1.0  0.07982919  0.9682493500000001  0.33770474  1.0000
  H   H256      1.0  0.013944790000000002  0.95939151  0.3503419  1.0000
  H   H257      1.0  0.07762986999999998  0.16155975  0.33308174999999995  1.0000
  H   H258      1.0  0.12555421  0.08433287  0.34462841  1.0000
  H   H259      1.0  0.9550991100000003  0.06486704  0.34125082  1.0000
  H   H260      1.0  0.9928904900000002  0.15148964000000004  0.35602501999999997  1.0000
  H   H261      1.0  0.31070411  0.79496969  0.07247689999999998  1.0000
  H   H262      1.0  0.22647335000000002  0.8171588700000001  0.02995591  1.0000
  H   H263      1.0  0.37368864  0.8646781400000001  0.24143737  1.0000
  H   H264      1.0  0.29163254000000005  0.9003706300000001  0.19735659  1.0000
  H   H265      1.0  0.20976769000000006  0.76226085  0.12325857999999998  1.0000
  H   H266      1.0  0.21685658  0.82944978  0.20786197999999997  1.0000
  H   H267      1.0  0.21009016  0.73753596  0.29783803  1.0000
  H   H268      1.0  0.21741293999999997  0.6704923  0.22762686999999995  1.0000
  H   H269      1.0  0.4015845300000001  0.74365648  0.28964445999999994  1.0000
  H   H270      1.0  0.31528262  0.70569665  0.17903233999999998  1.0000
  H   H271      1.0  0.33318935  0.62477199  0.30221246999999996  1.0000
  H   H272      1.0  0.4110242200000001  0.67180643  0.41645762999999997  1.0000
  H   H273      1.0  0.33310102  0.87577563  0.36481092999999987  1.0000
  H   H274      1.0  0.4107275900000001  0.8287117000000002  0.40566072  1.0000
  H   H275      1.0  0.40190724999999994  0.7571822  0.5146762999999999  1.0000
  H   H276      1.0  0.31546717  0.7947607300000001  0.4525242099999999  1.0000
  H   H277      1.0  0.37420302000000005  0.63550652  0.50720626  1.0000
  H   H278      1.0  0.29206378000000005  0.60009164  0.38697113  1.0000
  H   H279      1.0  0.22707340000000004  0.6829801  0.4244435499999999  1.0000
  H   H280      1.0  0.31127154  0.704975  0.5506137499999999  1.0000
  H   H281      1.0  0.9545334900000001  0.43851228  0.94335702  1.0000
  H   H282      1.0  0.9330933800000001  0.52305099  0.8804741599999999  1.0000
  H   H283      1.0  0.8497363399999999  0.4584644600000001  0.6941122299999998  1.0000
  H   H284      1.0  0.88521137  0.37624718000000007  0.76745677  1.0000
  H   H285      1.0  0.92037155  0.53281235  0.67893428  1.0000
  H   H286      1.0  0.9867993400000001  0.54058676  0.82364712  1.0000
  H   H287      1.0  0.92217514  0.33903417  0.6773418499999999  1.0000
  H   H288      1.0  0.8745498600000002  0.4163396700000001  0.59283267  1.0000
  H   H289      1.0  0.04423204999999992  0.43496059000000004  0.9309643499999998  1.0000
  H   H290      1.0  0.006402919999999923  0.34853645  0.8689109599999998  1.0000
  H   H291      1.0  0.56675034  0.47690797  0.51401549  1.0000
  H   H292      1.0  0.54547274  0.56137667  0.53458825  1.0000
  H   H293      1.0  0.6499583800000001  0.54138277  0.4944408299999999  1.0000
  H   H294      1.0  0.61512814  0.62377232  0.4977476299999999  1.0000
  H   H295      1.0  0.5798288  0.46824833  0.33770543  1.0000
  H   H296      1.0  0.51394389  0.45939189  0.35034135  1.0000
  H   H297      1.0  0.5776306  0.66155955  0.3330821599999999  1.0000
  H   H298      1.0  0.62555429  0.5843319  0.34462765999999995  1.0000
  H   H299      1.0  0.45509988  0.5648678400000001  0.3412513599999999  1.0000
  H   H300      1.0  0.49289145  0.65149027  0.35602524  1.0000
  H   H301      1.0  0.81070467  0.29497041000000007  0.0724778  1.0000
  H   H302      1.0  0.72647346  0.31715899  0.029956229999999993  1.0000
  H   H303      1.0  0.8736888800000001  0.36467851000000007  0.24143835999999994  1.0000
  H   H304      1.0  0.7916327800000003  0.4003709  0.19735775999999994  1.0000
  H   H305      1.0  0.7097679399999999  0.26226101  0.12325842999999997  1.0000
  H   H306      1.0  0.71685677  0.32945029  0.20786268999999993  1.0000
  H   H307      1.0  0.7100904300000003  0.23753618  0.29783903999999994  1.0000
  H   H308      1.0  0.7174131300000001  0.17049208  0.22762656999999997  1.0000
  H   H309      1.0  0.9015851300000002  0.24365695  0.28964496  1.0000
  H   H310      1.0  0.81528316  0.20569732  0.1790324  1.0000
  H   H311      1.0  0.8331895600000001  0.12477221  0.30221187  1.0000
  H   H312      1.0  0.9110247300000002  0.17180615  0.4164575299999999  1.0000
  H   H313      1.0  0.8331013799999998  0.37577583  0.36481187999999987  1.0000
  H   H314      1.0  0.9107284599999999  0.32871171000000005  0.40566171  1.0000
  H   H315      1.0  0.9019079500000001  0.25718169  0.51467683  1.0000
  H   H316      1.0  0.8154675900000001  0.29476032  0.45252475  1.0000
  H   H317      1.0  0.8742035300000002  0.13550623  0.50720561  1.0000
  H   H318      1.0  0.7920641100000002  0.10009170000000002  0.38697039999999994  1.0000
  H   H319      1.0  0.7270742700000001  0.18298054  0.42444332  1.0000
  H   H320      1.0  0.8112723600000001  0.20497537  0.55061324  1.0000
  C   C1        1.0  0.34718731  0.030338880000000002  0.35550029  1.0000
  C   C2        1.0  0.4135568300000001  0.03175071000000001  0.36799796  1.0000
  C   C3        1.0  0.3959635900000001  0.0669035  0.26884805  1.0000
  C   C4        1.0  0.4702299400000001  0.98939137  0.25233426  1.0000
  C   C5        1.0  0.4268253600000001  0.10524307000000001  0.16070435  1.0000
  C   C6        1.0  0.52191616  0.09867251000000002  0.3599601599999999  1.0000
  C   C7        1.0  0.15273716  0.97013894  0.16123532999999998  1.0000
  C   C8        1.0  0.08634801  0.96834524  0.040952  1.0000
  C   C9        1.0  0.10398348999999993  0.93298668  0.9771654399999998  1.0000
  C   C10       1.0  0.029937389999999942  0.01008307  0.8118062499999997  1.0000
  C   C11       1.0  0.07314247999999993  0.8942230900000001  0.80747695  1.0000
  C   C12       1.0  0.9777592800000001  0.9011761200000001  0.8157655499999998  1.0000
  C   C13       1.0  0.27999356  0.09762966  0.52163102  1.0000
  C   C14       1.0  0.28133989000000004  0.16371105  0.57728854  1.0000
  C   C15       1.0  0.31684363000000004  0.14592812  0.69406685  1.0000
  C   C16       1.0  0.23948818000000002  0.22043448  0.7075950799999999  1.0000
  C   C17       1.0  0.23977238000000003  0.27948337  0.7728125099999998  1.0000
  C   C18       1.0  0.34878543999999995  0.27183805  0.7612432199999999  1.0000
  C   C19       1.0  0.3552550199999999  0.32309919  0.8397129899999998  1.0000
  C   C20       1.0  0.35510690999999994  0.17637721  0.8714096399999998  1.0000
  C   C21       1.0  0.34904880000000005  0.22758404000000002  0.9374337199999999  1.0000
  C   C22       1.0  0.31737866  0.35373593  0.94095635  1.0000
  C   C23       1.0  0.28191860999999996  0.33620395  0.9868114699999999  1.0000
  C   C24       1.0  0.28032394000000005  0.40254445  0.03910568999999999  1.0000
  C   C25       1.0  0.8471852400000001  0.53034035  0.35549767999999987  1.0000
  C   C26       1.0  0.9135571100000005  0.53175083  0.3679982  1.0000
  C   C27       1.0  0.89596337  0.56690389  0.26884678  1.0000
  C   C28       1.0  0.9702307100000002  0.4893916300000001  0.25233521  1.0000
  C   C29       1.0  0.9268258600000001  0.6052434900000001  0.16070243999999997  1.0000
  C   C30       1.0  0.021916550000000003  0.5986725600000001  0.35996081  1.0000
  C   C31       1.0  0.6527363700000001  0.47013814000000004  0.16123468999999999  1.0000
  C   C32       1.0  0.5863477500000001  0.46834461  0.04095158999999999  1.0000
  C   C33       1.0  0.6039827800000002  0.43298733  0.9771651399999998  1.0000
  C   C34       1.0  0.52993638  0.51008202  0.8118045799999998  1.0000
  C   C35       1.0  0.5731427299999999  0.39422307  0.8074771999999999  1.0000
  C   C36       1.0  0.47775949000000006  0.4011751  0.81576593  1.0000
  C   C37       1.0  0.7799945599999999  0.59762883  0.5216321899999999  1.0000
  C   C38       1.0  0.7813399000000001  0.6637106600000001  0.5772889  1.0000
  C   C39       1.0  0.81684393  0.64592764  0.69406742  1.0000
  C   C40       1.0  0.7394888  0.72043503  0.7075958299999998  1.0000
  C   C41       1.0  0.7397730600000002  0.77948307  0.77281288  1.0000
  C   C42       1.0  0.84878554  0.77183801  0.76124349  1.0000
  C   C43       1.0  0.85525632  0.82309879  0.83971454  1.0000
  C   C44       1.0  0.8551075399999999  0.67637702  0.8714113899999998  1.0000
  C   C45       1.0  0.8490496000000001  0.72758359  0.9374342899999998  1.0000
  C   C46       1.0  0.81738  0.85373549  0.9409576799999998  1.0000
  C   C47       1.0  0.7819188900000003  0.83620438  0.9868119599999998  1.0000
  C   C48       1.0  0.7803231900000002  0.9025447700000001  0.039104669999999994  1.0000
  C   C49       1.0  0.65281332  0.03033926  0.14450117  1.0000
  C   C50       1.0  0.58644268  0.03175109  0.13200163  1.0000
  C   C51       1.0  0.60403644  0.06690353  0.23115193  1.0000
  C   C52       1.0  0.52976969  0.98939145  0.24766512999999996  1.0000
  C   C53       1.0  0.57317458  0.10524263  0.33929649  1.0000
  C   C54       1.0  0.4780841600000001  0.0986727  0.14003988  1.0000
  C   C55       1.0  0.8472635600000005  0.9701374699999998  0.33876682  1.0000
  C   C56       1.0  0.91365224  0.96834459  0.45904989999999996  1.0000
  C   C57       1.0  0.89601841  0.9329863300000001  0.52283695  1.0000
  C   C58       1.0  0.9700630600000002  0.01008182  0.68819451  1.0000
  C   C59       1.0  0.92685794  0.89422256  0.69252403  1.0000
  C   C60       1.0  0.022241269999999987  0.9011755  0.68423655  1.0000
  C   C61       1.0  0.72000534  0.09762925000000001  0.9783679399999998  1.0000
  C   C62       1.0  0.71865994  0.16371075000000002  0.92271194  1.0000
  C   C63       1.0  0.6831561100000002  0.14592846  0.80593336  1.0000
  C   C64       1.0  0.76051201  0.22043479  0.7924052799999999  1.0000
  C   C65       1.0  0.7602272900000002  0.2794837  0.72718729  1.0000
  C   C66       1.0  0.65121491  0.2718387  0.7387567699999998  1.0000
  C   C67       1.0  0.6447447500000001  0.32309931  0.66028651  1.0000
  C   C68       1.0  0.64489329  0.17637704  0.62859077  1.0000
  C   C69       1.0  0.65095099  0.22758423000000003  0.5625662399999999  1.0000
  C   C70       1.0  0.6826209599999999  0.35373617  0.5590425299999999  1.0000
  C   C71       1.0  0.71808148  0.33620381000000005  0.51318787  1.0000
  C   C72       1.0  0.7196771300000002  0.402544  0.4608948699999999  1.0000
  C   C73       1.0  0.15281439000000002  0.53033899  0.14450157  1.0000
  C   C74       1.0  0.08644340000000002  0.53175058  0.13200159999999997  1.0000
  C   C75       1.0  0.10403631999999997  0.56690355  0.23115098999999995  1.0000
  C   C76       1.0  0.02976940999999997  0.48939138000000004  0.24766496999999996  1.0000
  C   C77       1.0  0.07317436999999995  0.60524331  0.3392955199999999  1.0000
  C   C78       1.0  0.9780836000000003  0.5986733  0.1400396  1.0000
  C   C79       1.0  0.34726489  0.47013781999999993  0.3387665  1.0000
  C   C80       1.0  0.41365255  0.46834430999999993  0.45904881999999997  1.0000
  C   C81       1.0  0.39601750000000013  0.43298739  0.5228354899999998  1.0000
  C   C82       1.0  0.4700635799999999  0.51008185  0.6881958199999999  1.0000
  C   C83       1.0  0.42685784  0.39422288  0.6925238399999998  1.0000
  C   C84       1.0  0.52224088  0.40117493  0.68423509  1.0000
  C   C85       1.0  0.22000618000000002  0.59762832  0.97836734  1.0000
  C   C86       1.0  0.21866008  0.6637096800000001  0.92270988  1.0000
  C   C87       1.0  0.1831552600000001  0.64592799  0.80593156  1.0000
  C   C88       1.0  0.2605124999999999  0.72043346  0.7924061999999997  1.0000
  C   C89       1.0  0.26022818999999997  0.7794836800000001  0.72718865  1.0000
  C   C90       1.0  0.15121506999999992  0.77183744  0.7387563099999997  1.0000
  C   C91       1.0  0.14474443999999992  0.82309846  0.6602870999999998  1.0000
  C   C92       1.0  0.14489293000000003  0.67637671  0.62858981  1.0000
  C   C93       1.0  0.15095215000000006  0.72758427  0.56256746  1.0000
  C   C94       1.0  0.18262058999999997  0.85373713  0.5590431299999999  1.0000
  C   C95       1.0  0.21808216  0.83620407  0.51318914  1.0000
  C   C96       1.0  0.21967723  0.90254462  0.46089569  1.0000
  C   C97       1.0  0.65281226  0.9696603400000001  0.64449877  1.0000
  C   C98       1.0  0.58644256  0.96824953  0.6320015  1.0000
  C   C99       1.0  0.6040365700000001  0.93309586  0.7311521399999998  1.0000
  C   C100      1.0  0.52977019  0.010609500000000001  0.7476656999999999  1.0000
  C   C101      1.0  0.57317398  0.89475774  0.8392968199999998  1.0000
  C   C102      1.0  0.47808324  0.90132788  0.6400405399999999  1.0000
  C   C103      1.0  0.84726335  0.02986197  0.83876516  1.0000
  C   C104      1.0  0.9136523400000002  0.03165485  0.9590488799999998  1.0000
  C   C105      1.0  0.89601723  0.06701351  0.02283511  1.0000
  C   C106      1.0  0.9700630200000002  0.98991751  0.18819442999999997  1.0000
  C   C107      1.0  0.92685764  0.10577658000000001  0.19252387  1.0000
  C   C108      1.0  0.02224114000000001  0.09882426  0.18423558  1.0000
  C   C109      1.0  0.72000577  0.90237027  0.4783681499999999  1.0000
  C   C110      1.0  0.71866041  0.8362882600000002  0.42271197999999993  1.0000
  C   C111      1.0  0.6831551700000003  0.85407197  0.30593197  1.0000
  C   C112      1.0  0.76051231  0.77956523  0.29240743999999996  1.0000
  C   C113      1.0  0.7602273000000002  0.7205158  0.22718651999999995  1.0000
  C   C114      1.0  0.65121357  0.7281608  0.23875498  1.0000
  C   C115      1.0  0.64474451  0.67690126  0.16028739  1.0000
  C   C116      1.0  0.64489286  0.82362328  0.12858807  1.0000
  C   C117      1.0  0.65095103  0.7724171  0.06256653  1.0000
  C   C118      1.0  0.6826202  0.64626408  0.05904155  1.0000
  C   C119      1.0  0.7180810800000003  0.66379646  0.013187599999999999  1.0000
  C   C120      1.0  0.7196767  0.59745592  0.96089466  1.0000
  C   C121      1.0  0.15281329999999999  0.46966004  0.6444994299999999  1.0000
  C   C122      1.0  0.08644188  0.46824951  0.63200018  1.0000
  C   C123      1.0  0.10403624  0.43309601000000003  0.73115195  1.0000
  C   C124      1.0  0.029769820000000054  0.51060937  0.74766338  1.0000
  C   C125      1.0  0.07317487999999989  0.39475698  0.8392983699999997  1.0000
  C   C126      1.0  0.9780827600000003  0.40132724  0.6400388  1.0000
  C   C127      1.0  0.3472633800000001  0.52986106  0.8387657399999999  1.0000
  C   C128      1.0  0.41365276000000006  0.5316547  0.95904955  1.0000
  C   C129      1.0  0.39601722  0.56701335  0.02283484  1.0000
  C   C130      1.0  0.47006321  0.48991749000000007  0.18819468999999997  1.0000
  C   C131      1.0  0.42685823000000006  0.6057762100000001  0.19252509999999995  1.0000
  C   C132      1.0  0.52224077  0.5988242400000001  0.18423554999999997  1.0000
  C   C133      1.0  0.22000678000000007  0.40237032  0.4783698  1.0000
  C   C134      1.0  0.21866094  0.33628897  0.42271189  1.0000
  C   C135      1.0  0.18315570999999997  0.35407191  0.30593278999999995  1.0000
  C   C136      1.0  0.26051246  0.2795659  0.29240600999999994  1.0000
  C   C137      1.0  0.2602277499999999  0.22051617  0.22718735  1.0000
  C   C138      1.0  0.15121506  0.2281616  0.23875624  1.0000
  C   C139      1.0  0.14474508  0.17690141  0.16028765  1.0000
  C   C140      1.0  0.14489336  0.32362239  0.12858961  1.0000
  C   C141      1.0  0.15095194  0.27241683  0.06256804  1.0000
  C   C142      1.0  0.18261991  0.14626433  0.059042139999999986  1.0000
  C   C143      1.0  0.21808191000000005  0.16379621  0.01318896  1.0000
  C   C144      1.0  0.2196764399999999  0.09745607000000002  0.9608942999999999  1.0000
  C   C145      1.0  0.34718694999999994  0.9696606100000001  0.8554999899999998  1.0000
  C   C146      1.0  0.41355748  0.96824969  0.86799888  1.0000
  C   C147      1.0  0.3959636  0.9330959400000001  0.7688485799999998  1.0000
  C   C148      1.0  0.4702299800000001  0.01060947  0.7523351  1.0000
  C   C149      1.0  0.42682586  0.89475813  0.66070344  1.0000
  C   C150      1.0  0.52191666  0.9013283000000001  0.85996015  1.0000
  C   C151      1.0  0.15273676999999997  0.029863289999999997  0.66123425  1.0000
  C   C152      1.0  0.08634741  0.03165588  0.54095045  1.0000
  C   C153      1.0  0.10398175999999996  0.06701380000000001  0.4771636599999999  1.0000
  C   C154      1.0  0.02993693999999998  0.98991817  0.3118053599999999  1.0000
  C   C155      1.0  0.07314143  0.10577709000000002  0.30747484999999997  1.0000
  C   C156      1.0  0.9777585500000002  0.09882457  0.3157633799999999  1.0000
  C   C157      1.0  0.27999431  0.9023714  0.02163163  1.0000
  C   C158      1.0  0.28133967  0.8362893700000001  0.07728833  1.0000
  C   C159      1.0  0.31684425  0.8540717600000001  0.19406713999999994  1.0000
  C   C160      1.0  0.23948734000000005  0.77956597  0.20759353  1.0000
  C   C161      1.0  0.23977212000000006  0.72051606  0.27281254  1.0000
  C   C162      1.0  0.34878467  0.72816165  0.26124381  1.0000
  C   C163      1.0  0.3552548300000001  0.67690123  0.33971226  1.0000
  C   C164      1.0  0.35510634  0.82362234  0.37140975999999987  1.0000
  C   C165      1.0  0.34904794999999994  0.77241651  0.4374320199999999  1.0000
  C   C166      1.0  0.3173797  0.64626419  0.44095762  1.0000
  C   C167      1.0  0.2819180600000001  0.66379619  0.4868111099999999  1.0000
  C   C168      1.0  0.28032373000000005  0.59745564  0.53910602  1.0000
  C   C169      1.0  0.84718697  0.46966099  0.8555003899999998  1.0000
  C   C170      1.0  0.91355718  0.46824903000000007  0.8679986199999998  1.0000
  C   C171      1.0  0.89596331  0.43309645  0.76884893  1.0000
  C   C172      1.0  0.9702295200000002  0.51060846  0.75233482  1.0000
  C   C173      1.0  0.9268258099999999  0.39475703  0.6607036499999999  1.0000
  C   C174      1.0  0.021916999999999902  0.40132731  0.8599606099999998  1.0000
  C   C175      1.0  0.6527361500000002  0.52986232  0.66123349  1.0000
  C   C176      1.0  0.5863475799999999  0.5316554  0.5409509099999998  1.0000
  C   C177      1.0  0.6039826  0.5670136800000001  0.47716441999999987  1.0000
  C   C178      1.0  0.5299364700000002  0.48991744000000004  0.31180489  1.0000
  C   C179      1.0  0.5731416000000003  0.60577633  0.30747425  1.0000
  C   C180      1.0  0.4777585  0.59882434  0.31576325  1.0000
  C   C181      1.0  0.7799943300000001  0.40237155  0.02163266  1.0000
  C   C182      1.0  0.7813398900000003  0.33628959  0.07728916  1.0000
  C   C183      1.0  0.81684486  0.3540721  0.19406806999999998  1.0000
  C   C184      1.0  0.73948755  0.27956581  0.20759389999999994  1.0000
  C   C185      1.0  0.7397724200000002  0.22051597000000003  0.27281220999999994  1.0000
  C   C186      1.0  0.84878499  0.22816159000000003  0.26124373  1.0000
  C   C187      1.0  0.85525539  0.17690161  0.3397119  1.0000
  C   C188      1.0  0.85510677  0.32362267  0.3714102399999999  1.0000
  C   C189      1.0  0.8490484099999999  0.27241624  0.4374322699999999  1.0000
  C   C190      1.0  0.81737995  0.14626369000000003  0.44095746999999996  1.0000
  C   C191      1.0  0.78191827  0.16379621  0.48681075  1.0000
  C   C192      1.0  0.78032364  0.09745575  0.53910509  1.0000
  N   N1        1.0  0.45394238000000003  0.06437834  0.26228101  1.0000
  N   N2        1.0  0.045926999999999905  0.93518286  0.8545304199999998  1.0000
  N   N3        1.0  0.3143787700000001  0.20385184  0.75627833  1.0000
  N   N4        1.0  0.3148066899999999  0.29571794  0.8738354599999998  1.0000
  N   N5        1.0  0.95394274  0.56437912  0.26227998  1.0000
  N   N6        1.0  0.5459267800000002  0.43518361  0.85452984  1.0000
  N   N7        1.0  0.8143798900000002  0.7038519000000001  0.75627982  1.0000
  N   N8        1.0  0.8148075800000001  0.7957176  0.8738359999999998  1.0000
  N   N9        1.0  0.54605754  0.06437842  0.23771915  1.0000
  N   N10       1.0  0.95407325  0.93518276  0.64547032  1.0000
  N   N11       1.0  0.6856208900000003  0.20385223  0.7437216999999999  1.0000
  N   N12       1.0  0.6851934200000002  0.29571802  0.6261642899999998  1.0000
  N   N13       1.0  0.04605733  0.56437858  0.23771865  1.0000
  N   N14       1.0  0.4540734699999999  0.4351833500000001  0.6454707899999998  1.0000
  N   N15       1.0  0.18562062999999995  0.70385102  0.7437211799999998  1.0000
  N   N16       1.0  0.18519345  0.79571794  0.6261646  1.0000
  N   N17       1.0  0.54605752  0.93562096  0.73771888  1.0000
  N   N18       1.0  0.95407315  0.06481753  0.14547007999999997  1.0000
  N   N19       1.0  0.6856193300000002  0.79614793  0.24371977  1.0000
  N   N20       1.0  0.6851917000000001  0.70428191  0.12616188  1.0000
  N   N21       1.0  0.04605731999999994  0.43562015  0.7377191299999999  1.0000
  N   N22       1.0  0.45407296000000014  0.56481728  0.14546948999999998  1.0000
  N   N23       1.0  0.1856202  0.29614813  0.24372097999999995  1.0000
  N   N24       1.0  0.18519237  0.20428195  0.12616330999999997  1.0000
  N   N25       1.0  0.4539421799999999  0.9356209400000001  0.7622813199999999  1.0000
  N   N26       1.0  0.045926739999999994  0.06481791000000002  0.35452973  1.0000
  N   N27       1.0  0.31437958  0.79614821  0.25627875  1.0000
  N   N28       1.0  0.31480714  0.7042821000000002  0.3738362099999999  1.0000
  N   N29       1.0  0.9539423299999998  0.43562038  0.7622819599999999  1.0000
  N   N30       1.0  0.5459266200000001  0.5648176  0.35452969  1.0000
  N   N31       1.0  0.81438003  0.29614818  0.25627904999999995  1.0000
  N   N32       1.0  0.81480751  0.20428186000000007  0.37383627  1.0000
  O   O1        1.0  0.34998167  0.9920829  0.42407546  1.0000
  O   O2        1.0  0.29394592  0.06601845  0.28134936  1.0000
  O   O3        1.0  0.14984076  0.00863236  0.22393437  1.0000
  O   O4        1.0  0.20611491  0.93459157  0.19400378999999998  1.0000
  O   O5        1.0  0.24111371000000004  0.10037691000000001  0.41748253999999996  1.0000
  O   O6        1.0  0.31616301  0.0444668  0.57781987  1.0000
  O   O7        1.0  0.24174571999999997  0.39984632  0.06602444999999998  1.0000
  O   O8        1.0  0.31597791000000003  0.45588391  0.05417592999999998  1.0000
  O   O9        1.0  0.8499815400000001  0.49208572  0.42407477  1.0000
  O   O10       1.0  0.79394615  0.56601828  0.28134759  1.0000
  O   O11       1.0  0.6498418600000002  0.50863269  0.22393549  1.0000
  O   O12       1.0  0.70611378  0.43459067  0.19400494999999998  1.0000
  O   O13       1.0  0.74111485  0.60037649  0.4174842999999999  1.0000
  O   O14       1.0  0.8161639300000002  0.5444657400000001  0.57782298  1.0000
  O   O15       1.0  0.7417448500000001  0.8998457899999999  0.06602346  1.0000
  O   O16       1.0  0.8159780500000002  0.9558849000000001  0.05417426  1.0000
  O   O17       1.0  0.65001761  0.99208322  0.07592305  1.0000
  O   O18       1.0  0.70605363  0.0660171  0.21865071  1.0000
  O   O19       1.0  0.8501554100000002  0.008632530000000001  0.27606334  1.0000
  O   O20       1.0  0.79388677  0.9345882300000001  0.30599838  1.0000
  O   O21       1.0  0.75888666  0.10037658000000002  0.08251845999999999  1.0000
  O   O22       1.0  0.68383632  0.0444665  0.9221785099999998  1.0000
  O   O23       1.0  0.75825491  0.39984647  0.4339764399999999  1.0000
  O   O24       1.0  0.68402152  0.45588449  0.44582261  1.0000
  O   O25       1.0  0.15001675  0.49208266000000006  0.07592243999999998  1.0000
  O   O26       1.0  0.20605414000000002  0.5660172800000001  0.21865067999999993  1.0000
  O   O27       1.0  0.35015828000000004  0.50863238  0.27606436999999995  1.0000
  O   O28       1.0  0.29388641  0.43458986000000005  0.30599616  1.0000
  O   O29       1.0  0.2588862  0.60037494  0.08251652  1.0000
  O   O30       1.0  0.18383653  0.54446622  0.92217847  1.0000
  O   O31       1.0  0.25825629  0.89984575  0.4339799599999999  1.0000
  O   O32       1.0  0.18402027  0.95588312  0.44582102  1.0000
  O   O33       1.0  0.6500178800000003  0.00791741  0.57592379  1.0000
  O   O34       1.0  0.70605388  0.9339817400000001  0.7186503199999998  1.0000
  O   O35       1.0  0.85015802  0.9913670500000001  0.77606494  1.0000
  O   O36       1.0  0.7938850000000002  0.06540809  0.80599579  1.0000
  O   O37       1.0  0.7588862400000003  0.89962391  0.58251646  1.0000
  O   O38       1.0  0.6838378200000003  0.95553308  0.42218014  1.0000
  O   O39       1.0  0.7582547900000002  0.6001531  0.9339768199999999  1.0000
  O   O40       1.0  0.68402253  0.5441160400000001  0.9458242999999998  1.0000
  O   O41       1.0  0.15001909999999993  0.5079158  0.5759265299999999  1.0000
  O   O42       1.0  0.20605260999999997  0.43398215  0.7186493699999998  1.0000
  O   O43       1.0  0.3501577  0.49136657000000006  0.77606566  1.0000
  O   O44       1.0  0.29388535  0.56540739  0.8059963199999998  1.0000
  O   O45       1.0  0.25888732  0.3996236000000001  0.58251727  1.0000
  O   O46       1.0  0.18383740999999998  0.45553465000000004  0.4221788499999999  1.0000
  O   O47       1.0  0.25825502  0.10015342000000002  0.93397664  1.0000
  O   O48       1.0  0.1840212  0.04411502  0.94582306  1.0000
  O   O49       1.0  0.34998179999999995  0.00791716  0.9240756699999998  1.0000
  O   O50       1.0  0.2939463  0.93398191  0.7813494999999999  1.0000
  O   O51       1.0  0.14984282999999998  0.9913672600000001  0.7239359599999999  1.0000
  O   O52       1.0  0.20611352000000005  0.0654101  0.69400245  1.0000
  O   O53       1.0  0.24111316999999993  0.89962305  0.9174814799999997  1.0000
  O   O54       1.0  0.31616251  0.95553383  0.07782023  1.0000
  O   O55       1.0  0.24174551  0.60015284  0.56602236  1.0000
  O   O56       1.0  0.31597821  0.54411515  0.55417605  1.0000
  O   O57       1.0  0.84998257  0.50791693  0.9240767599999999  1.0000
  O   O58       1.0  0.79394611  0.43398293  0.78134989  1.0000
  O   O59       1.0  0.6498434700000002  0.49136788  0.7239360699999998  1.0000
  O   O60       1.0  0.7061142200000001  0.56541078  0.69400272  1.0000
  O   O61       1.0  0.7411140700000002  0.39962392  0.91748325  1.0000
  O   O62       1.0  0.8161628800000001  0.45553417000000007  0.07782186  1.0000
  O   O63       1.0  0.74174517  0.10015338  0.5660223299999999  1.0000
  O   O64       1.0  0.81597777  0.04411544  0.55417496  1.0000
