data_image0
_chemical_formula_structural       C3HCHC5HCHC5HCHC5HCHC5HCHC5HCHC5HCHC5HCHC5HCHC2O37S9Sm6H2C3HCHC5HCHC5HCHC5HCHC5HCHC5HCHC5HCHC5HCHC5HCHC2O37S9Sm6H2C3HCHC5HCHC5HCHC5HCHC5HCHC5HCHC5HCHC5HCHC5HCHC2O37S9Sm6H2C3HCHC5HCHC5HCHC5HCHC5HCHC5HCHC5HCHC5HCHC5HCHC2O37S9Sm6H2
_chemical_formula_sum              "C216 H80 O148 S36 Sm24"
_cell_length_a       50.641
_cell_length_b       11.353
_cell_length_c       17.5277
_cell_angle_alpha    90.0
_cell_angle_beta     90.0
_cell_angle_gamma    90.0

_symmetry_space_group_name_H-M    'P 1'
_symmetry_Int_Tables_number       1

loop_
  _symmetry_equiv_pos_as_xyz
  'x,y,z'

loop_
  _atom_site_type_symbol
  _atom_site_label
  _atom_site_symmetry_multiplicity
  _atom_site_fract_x
  _atom_site_fract_y
  _atom_site_fract_z
  _atom_site_occupancy
  C   C1        1.0  0.50982  0.5736  0.4218  1.0000
  C   C2        1.0  0.4984  0.5329  0.349  1.0000
  C   C3        1.0  0.47391  0.5584  0.32300000000000006  1.0000
  H   H1        1.0  0.46179999999999993  0.6037  0.3498  1.0000
  C   C4        1.0  0.46882  0.5084  0.2504  1.0000
  H   H2        1.0  0.4527999999999999  0.5152  0.2246  1.0000
  C   C5        1.0  0.48985999999999996  0.45000000000000007  0.22320000000000007  1.0000
  C   C6        1.0  0.49196999999999996  0.3873  0.1492  1.0000
  C   C7        1.0  0.54932  0.8217000000000001  0.4155  1.0000
  C   C8        1.0  0.54541  0.9051000000000001  0.3509000000000001  1.0000
  C   C9        1.0  0.52531  0.9812  0.3384  1.0000
  H   H3        1.0  0.5111  0.9909  0.3714  1.0000
  C   C10       1.0  0.52835  0.0444  0.2691  1.0000
  H   H4        1.0  0.5164  0.10100000000000002  0.2521  1.0000
  C   C11       1.0  0.55012  0.014100000000000001  0.2307  1.0000
  C   C12       1.0  0.55838  0.0592  0.1554  1.0000
  C   C13       1.0  0.54672  0.8567  0.6403  1.0000
  C   C14       1.0  0.55611  0.9125  0.7117  1.0000
  C   C15       1.0  0.57947  0.8987  0.7467000000000001  1.0000
  H   H5        1.0  0.5935  0.8573  0.7254000000000002  1.0000
  C   C16       1.0  0.58061  0.953  0.8187000000000001  1.0000
  H   H6        1.0  0.5953  0.9499  0.8505  1.0000
  C   C17       1.0  0.55825  0.0098  0.8365000000000001  1.0000
  C   C18       1.0  0.55167  0.0677  0.9108  1.0000
  C   C19       1.0  0.60977  0.5307  0.40550000000000014  1.0000
  C   C20       1.0  0.60469  0.4688  0.3321  1.0000
  C   C21       1.0  0.58258  0.40989999999999993  0.3118  1.0000
  H   H7        1.0  0.5675  0.4072  0.3420000000000001  1.0000
  C   C22       1.0  0.58458  0.353  0.2407  1.0000
  H   H8        1.0  0.5712  0.308  0.21890000000000007  1.0000
  C   C23       1.0  0.60868  0.3724  0.2079  1.0000
  C   C24       1.0  0.61928  0.3233  0.13590000000000002  1.0000
  C   C25       1.0  0.60666  0.5178  0.6484  1.0000
  C   C26       1.0  0.61444  0.4711000000000001  0.7241  1.0000
  C   C27       1.0  0.63749  0.49550000000000005  0.7598000000000003  1.0000
  H   H9        1.0  0.6499999999999999  0.5471  0.7403000000000002  1.0000
  C   C28       1.0  0.6406999999999999  0.4351  0.8297  1.0000
  H   H10       1.0  0.6555  0.4427  0.8608  1.0000
  C   C29       1.0  0.61988  0.365  0.8463000000000002  1.0000
  C   C30       1.0  0.61717  0.2864  0.9125000000000001  1.0000
  C   C31       1.0  0.67244  0.8663000000000001  0.41280000000000006  1.0000
  C   C32       1.0  0.66225  0.9184  0.34050000000000014  1.0000
  C   C33       1.0  0.63815  0.8956000000000001  0.3076  1.0000
  H   H11       1.0  0.6252  0.8478  0.3292  1.0000
  C   C34       1.0  0.6353999999999999  0.9543000000000001  0.23620000000000002  1.0000
  H   H12       1.0  0.6203  0.9503  0.20610000000000006  1.0000
  C   C35       1.0  0.65713  0.0164  0.2172  1.0000
  C   C36       1.0  0.66185  0.0848  0.147  1.0000
  C   C37       1.0  0.71263  0.579  0.6331  1.0000
  C   C38       1.0  0.72292  0.531  0.7051  1.0000
  C   C39       1.0  0.74762  0.5407  0.7345000000000003  1.0000
  H   H13       1.0  0.7614  0.5796  0.7102  1.0000
  C   C40       1.0  0.7499299999999999  0.48480000000000006  0.8060000000000002  1.0000
  H   H14       1.0  0.7657  0.4808  0.8333  1.0000
  C   C41       1.0  0.72697  0.4378  0.8308000000000001  1.0000
  C   C42       1.0  0.7216799999999999  0.3843  0.9059  1.0000
  C   C43       1.0  0.71438  0.6217  0.4109  1.0000
  C   C44       1.0  0.71136  0.5418  0.34510000000000013  1.0000
  C   C45       1.0  0.69006  0.4726  0.3286  1.0000
  H   H15       1.0  0.6752  0.467  0.3594  1.0000
  C   C46       1.0  0.69325  0.4107  0.2598  1.0000
  H   H16       1.0  0.6805  0.3607  0.23970000000000002  1.0000
  C   C47       1.0  0.71684  0.43150000000000005  0.2257  1.0000
  C   C48       1.0  0.72519  0.38460000000000005  0.14970000000000003  1.0000
  C   C49       1.0  0.65892  0.0417  0.9094000000000002  1.0000
  C   C50       1.0  0.66887  0.9938000000000001  0.8353000000000003  1.0000
  C   C51       1.0  0.6929099999999999  0.014  0.8034  1.0000
  H   H17       1.0  0.7059  0.060700000000000004  0.8256000000000001  1.0000
  C   C52       1.0  0.69598  0.9559000000000001  0.7327  1.0000
  H   H18       1.0  0.7112  0.9601000000000001  0.7031  1.0000
  C   C53       1.0  0.67407  0.8929  0.713  1.0000
  C   C54       1.0  0.6699  0.8208000000000001  0.6441  1.0000
  O   O1        1.0  0.53325  0.5443  0.4377  1.0000
  O   O2        1.0  0.49499  0.6327  0.4631  1.0000
  O   O3        1.0  0.51225  0.3313  0.1362  1.0000
  O   O4        1.0  0.47258  0.3972  0.10440000000000003  1.0000
  O   O5        1.0  0.53135  0.8087000000000001  0.46330000000000005  1.0000
  O   O6        1.0  0.57047  0.7667000000000002  0.419  1.0000
  O   O7        1.0  0.54191  0.11549999999999999  0.1188  1.0000
  O   O8        1.0  0.58134  0.0357  0.1335  1.0000
  O   O9        1.0  0.52302  0.8687  0.6236  1.0000
  O   O10       1.0  0.56412  0.8013  0.6034000000000002  1.0000
  O   O11       1.0  0.53168  0.1325  0.9138  1.0000
  O   O12       1.0  0.56664  0.0429  0.9651  1.0000
  O   O13       1.0  0.59183  0.5223  0.4547000000000001  1.0000
  O   O14       1.0  0.63149  0.5805  0.4141  1.0000
  O   O15       1.0  0.60283  0.2661  0.09500000000000001  1.0000
  O   O16       1.0  0.64318  0.3335  0.1217  1.0000
  O   O17       1.0  0.58293  0.528  0.6308  1.0000
  O   O18       1.0  0.62556  0.5457  0.6069000000000001  1.0000
  O   O19       1.0  0.60941  0.7449  0.527  1.0000
  O   O20       1.0  0.63634  0.2705  0.9567000000000001  1.0000
  O   O21       1.0  0.6561599999999999  0.812  0.4531  1.0000
  O   O22       1.0  0.69624  0.8849  0.42770000000000014  1.0000
  O   O23       1.0  0.64435  0.0847  0.09550000000000002  1.0000
  O   O24       1.0  0.6828899999999999  0.1412  0.13960000000000006  1.0000
  O   O25       1.0  0.68851  0.5638  0.6186  1.0000
  O   O26       1.0  0.72878  0.6352  0.5921  1.0000
  O   O27       1.0  0.70062  0.3311  0.9164000000000001  1.0000
  O   O28       1.0  0.73959  0.39749999999999996  0.9549  1.0000
  O   O29       1.0  0.6952799999999999  0.6341  0.456  1.0000
  O   O30       1.0  0.73588  0.6752  0.4188000000000001  1.0000
  O   O31       1.0  0.7486699999999998  0.3744  0.1352  1.0000
  O   O32       1.0  0.70631  0.36400000000000005  0.1054  1.0000
  O   O33       1.0  0.63543  0.0204  0.9264000000000001  1.0000
  O   O34       1.0  0.6754199999999999  0.09660000000000002  0.9487000000000001  1.0000
  O   O35       1.0  0.64815  0.7705  0.6357  1.0000
  O   O36       1.0  0.68805  0.8121  0.5962  1.0000
  O   O37       1.0  0.59536  0.2354  0.9226  1.0000
  S   S1        1.0  0.51568  0.4504500000000001  0.2851300000000001  1.0000
  S   S2        1.0  0.5682  0.91082  0.27918  1.0000
  S   S3        1.0  0.53567  0.9978  0.7659600000000002  1.0000
  S   S4        1.0  0.62841  0.45927  0.26319  1.0000
  S   S5        1.0  0.59585  0.37457  0.7775800000000003  1.0000
  S   S6        1.0  0.68129  0.00787  0.28514  1.0000
  S   S7        1.0  0.70246  0.45482  0.76513  1.0000
  S   S8        1.0  0.7356399999999998  0.52752  0.27782  1.0000
  S   S9        1.0  0.64963  0.9061200000000001  0.7796200000000002  1.0000
  Sm  Sm1       1.0  0.48877999999999994  0.80639  0.53242  1.0000
  Sm  Sm2       1.0  0.56289  0.63535  0.52552  1.0000
  Sm  Sm3       1.0  0.65578  0.63578  0.52706  1.0000
  Sm  Sm4       1.0  0.72684  0.8147000000000001  0.52368  1.0000
  Sm  Sm5       1.0  0.60602  0.08937  0.022280000000000008  1.0000
  Sm  Sm6       1.0  0.67665  0.26712  0.027540000000000005  1.0000
  H   H19       1.0  0.6118  0.776  0.5700000000000002  1.0000
  H   H20       1.0  0.6089  0.7949999999999999  0.492  1.0000
  C   C55       1.0  0.49018  0.4264  0.9218  1.0000
  C   C56       1.0  0.5016  0.4671  0.8490000000000002  1.0000
  C   C57       1.0  0.52609  0.4416  0.823  1.0000
  H   H21       1.0  0.5382  0.3963  0.8498  1.0000
  C   C58       1.0  0.53118  0.49160000000000004  0.7504  1.0000
  H   H22       1.0  0.5472  0.48480000000000006  0.7246  1.0000
  C   C59       1.0  0.51014  0.55  0.7232  1.0000
  C   C60       1.0  0.50803  0.6127  0.6492  1.0000
  C   C61       1.0  0.45068  0.17830000000000001  0.9155000000000001  1.0000
  C   C62       1.0  0.4545899999999999  0.0949  0.8509000000000001  1.0000
  C   C63       1.0  0.47468999999999995  0.0188  0.8384  1.0000
  H   H23       1.0  0.4889  0.0091  0.8714  1.0000
  C   C64       1.0  0.47164999999999996  0.9556  0.7691000000000002  1.0000
  H   H24       1.0  0.4836  0.899  0.7521  1.0000
  C   C65       1.0  0.44988  0.9859000000000001  0.7307  1.0000
  C   C66       1.0  0.44161999999999996  0.9408  0.6554  1.0000
  C   C67       1.0  0.45328  0.1433  0.1403  1.0000
  C   C68       1.0  0.44389  0.0875  0.21170000000000005  1.0000
  C   C69       1.0  0.42053  0.1013  0.2467  1.0000
  H   H25       1.0  0.4065  0.1427  0.22540000000000002  1.0000
  C   C70       1.0  0.41939  0.04700000000000001  0.31870000000000004  1.0000
  H   H26       1.0  0.40469999999999995  0.0501  0.3505  1.0000
  C   C71       1.0  0.4417499999999999  0.9902000000000001  0.33650000000000013  1.0000
  C   C72       1.0  0.44832999999999995  0.9323  0.4108  1.0000
  C   C73       1.0  0.39023  0.46930000000000005  0.9055000000000002  1.0000
  C   C74       1.0  0.39531  0.5312  0.8321  1.0000
  C   C75       1.0  0.41742  0.5901  0.8118000000000001  1.0000
  H   H27       1.0  0.4325  0.5928  0.842  1.0000
  C   C76       1.0  0.41542  0.647  0.7407  1.0000
  H   H28       1.0  0.4288  0.692  0.7189  1.0000
  C   C77       1.0  0.39131999999999995  0.6276  0.7079  1.0000
  C   C78       1.0  0.38072  0.6767  0.6359  1.0000
  C   C79       1.0  0.39333999999999997  0.4822000000000001  0.14840000000000006  1.0000
  C   C80       1.0  0.38556  0.5289  0.22410000000000002  1.0000
  C   C81       1.0  0.36251  0.5045  0.2598  1.0000
  H   H29       1.0  0.35  0.4529  0.2403  1.0000
  C   C82       1.0  0.3593  0.5649  0.3297  1.0000
  H   H30       1.0  0.3445  0.5573  0.3608  1.0000
  C   C83       1.0  0.38012  0.635  0.3463000000000001  1.0000
  C   C84       1.0  0.38283  0.7136  0.4125000000000001  1.0000
  C   C85       1.0  0.32756  0.1337  0.9128  1.0000
  C   C86       1.0  0.33774999999999994  0.0816  0.8405000000000002  1.0000
  C   C87       1.0  0.36185  0.1044  0.8076000000000002  1.0000
  H   H31       1.0  0.3748  0.1522  0.8292  1.0000
  C   C88       1.0  0.3645999999999999  0.04569999999999999  0.7362  1.0000
  H   H32       1.0  0.3797  0.0497  0.7061  1.0000
  C   C89       1.0  0.34287  0.9836  0.7172  1.0000
  C   C90       1.0  0.33815  0.9152  0.6470000000000002  1.0000
  C   C91       1.0  0.28737  0.421  0.1331  1.0000
  C   C92       1.0  0.27708  0.469  0.20510000000000003  1.0000
  C   C93       1.0  0.25238  0.4593  0.2345  1.0000
  H   H33       1.0  0.23859999999999998  0.4204  0.2102  1.0000
  C   C94       1.0  0.25007  0.5152  0.3060000000000001  1.0000
  H   H34       1.0  0.2343  0.5192  0.3333000000000001  1.0000
  C   C95       1.0  0.27303  0.5622  0.33080000000000004  1.0000
  C   C96       1.0  0.27832  0.6157  0.40590000000000004  1.0000
  C   C97       1.0  0.28562  0.3783  0.9109  1.0000
  C   C98       1.0  0.28864  0.4582  0.8451000000000002  1.0000
  C   C99       1.0  0.30994  0.5274  0.8286  1.0000
  H   H35       1.0  0.3248  0.533  0.8594000000000003  1.0000
  C   C100      1.0  0.30675  0.5893  0.7598000000000003  1.0000
  H   H36       1.0  0.3195  0.6393  0.7397000000000002  1.0000
  C   C101      1.0  0.28316  0.5685  0.7257  1.0000
  C   C102      1.0  0.27481  0.6154  0.6497  1.0000
  C   C103      1.0  0.34108  0.9583  0.4094  1.0000
  C   C104      1.0  0.33113000000000004  0.0062  0.3353  1.0000
  C   C105      1.0  0.30709  0.9860000000000001  0.3034000000000001  1.0000
  H   H37       1.0  0.2941  0.9393  0.32560000000000006  1.0000
  C   C106      1.0  0.30402  0.04410000000000001  0.2327  1.0000
  H   H38       1.0  0.2888  0.0399  0.2031  1.0000
  C   C107      1.0  0.32593  0.1071  0.21300000000000005  1.0000
  C   C108      1.0  0.33009999999999995  0.17920000000000003  0.1441  1.0000
  O   O38       1.0  0.46675  0.4557  0.9377000000000001  1.0000
  O   O39       1.0  0.50501  0.3673  0.9631  1.0000
  O   O40       1.0  0.48775  0.6687  0.6362000000000002  1.0000
  O   O41       1.0  0.52742  0.6028  0.6044  1.0000
  O   O42       1.0  0.46864999999999996  0.1913  0.9633  1.0000
  O   O43       1.0  0.42953  0.2333  0.9190000000000002  1.0000
  O   O44       1.0  0.45808999999999994  0.8845  0.6188  1.0000
  O   O45       1.0  0.4186599999999999  0.9643  0.6335  1.0000
  O   O46       1.0  0.47698  0.1313  0.12360000000000002  1.0000
  O   O47       1.0  0.43588  0.19869999999999996  0.10340000000000003  1.0000
  O   O48       1.0  0.46832  0.8675  0.4138  1.0000
  O   O49       1.0  0.43336  0.9571  0.46510000000000007  1.0000
  O   O50       1.0  0.40817  0.4777  0.9547  1.0000
  O   O51       1.0  0.36851  0.4195  0.9141000000000001  1.0000
  O   O52       1.0  0.39717  0.7339000000000001  0.595  1.0000
  O   O53       1.0  0.35681999999999997  0.6665  0.6217000000000003  1.0000
  O   O54       1.0  0.41707  0.472  0.1308  1.0000
  O   O55       1.0  0.37444  0.4543  0.1069  1.0000
  O   O56       1.0  0.39059  0.2551  0.027000000000000007  1.0000
  O   O57       1.0  0.3636599999999999  0.7295  0.45670000000000005  1.0000
  O   O58       1.0  0.34384  0.18800000000000003  0.9531000000000001  1.0000
  O   O59       1.0  0.30376  0.1151  0.9277  1.0000
  O   O60       1.0  0.35565  0.9153  0.5955  1.0000
  O   O61       1.0  0.31711  0.8588000000000001  0.6396000000000002  1.0000
  O   O62       1.0  0.31149  0.43620000000000003  0.11860000000000002  1.0000
  O   O63       1.0  0.27122  0.3648  0.09210000000000003  1.0000
  O   O64       1.0  0.29938  0.6689  0.4164  1.0000
  O   O65       1.0  0.26041  0.6025  0.4549  1.0000
  O   O66       1.0  0.30472  0.3659  0.9560000000000001  1.0000
  O   O67       1.0  0.26412  0.3248  0.9188000000000001  1.0000
  O   O68       1.0  0.25133  0.6256  0.6352  1.0000
  O   O69       1.0  0.29369  0.636  0.6054  1.0000
  O   O70       1.0  0.36457  0.9796  0.4264  1.0000
  O   O71       1.0  0.32458  0.9034000000000001  0.4487000000000001  1.0000
  O   O72       1.0  0.35184999999999994  0.22950000000000004  0.1357  1.0000
  O   O73       1.0  0.31195  0.1879  0.09620000000000002  1.0000
  O   O74       1.0  0.40464  0.7646  0.42260000000000003  1.0000
  S   S10       1.0  0.48432  0.54955  0.7851300000000002  1.0000
  S   S11       1.0  0.4318  0.08918  0.77918  1.0000
  S   S12       1.0  0.46433  0.0022  0.26596  1.0000
  S   S13       1.0  0.37159  0.54073  0.76319  1.0000
  S   S14       1.0  0.40415  0.62543  0.27758  1.0000
  S   S15       1.0  0.31871  0.99213  0.78514  1.0000
  S   S16       1.0  0.29754  0.54518  0.26513  1.0000
  S   S17       1.0  0.26436  0.47248  0.7778200000000002  1.0000
  S   S18       1.0  0.35036999999999996  0.09388  0.2796200000000001  1.0000
  Sm  Sm7       1.0  0.51122  0.19361000000000003  0.03242  1.0000
  Sm  Sm8       1.0  0.43711  0.36465  0.02552  1.0000
  Sm  Sm9       1.0  0.34422  0.36422  0.027060000000000008  1.0000
  Sm  Sm10      1.0  0.27316  0.1853  0.02368  1.0000
  Sm  Sm11      1.0  0.39398  0.91063  0.52228  1.0000
  Sm  Sm12      1.0  0.32334999999999997  0.73288  0.52754  1.0000
  H   H39       1.0  0.3882  0.224  0.07  1.0000
  H   H40       1.0  0.3911  0.205  0.992  1.0000
  C   C109      1.0  0.00982  0.9264  0.4218  1.0000
  C   C110      1.0  0.9984  0.9671  0.349  1.0000
  C   C111      1.0  0.97391  0.9416  0.32300000000000006  1.0000
  H   H41       1.0  0.9618  0.8963  0.3498  1.0000
  C   C112      1.0  0.96882  0.9916  0.2504  1.0000
  H   H42       1.0  0.9528  0.9848  0.2246  1.0000
  C   C113      1.0  0.98986  0.05  0.22320000000000007  1.0000
  C   C114      1.0  0.99197  0.11270000000000001  0.1492  1.0000
  C   C115      1.0  0.04932  0.6783  0.4155  1.0000
  C   C116      1.0  0.04541  0.5949  0.3509000000000001  1.0000
  C   C117      1.0  0.02531  0.5188  0.3384  1.0000
  H   H43       1.0  0.0111  0.5091  0.3714  1.0000
  C   C118      1.0  0.02835  0.45560000000000006  0.2691  1.0000
  H   H44       1.0  0.0164  0.399  0.2521  1.0000
  C   C119      1.0  0.05012  0.4859  0.2307  1.0000
  C   C120      1.0  0.058379999999999994  0.4408  0.1554  1.0000
  C   C121      1.0  0.04672  0.6433  0.6403  1.0000
  C   C122      1.0  0.05611  0.5875  0.7117  1.0000
  C   C123      1.0  0.07946999999999999  0.6013  0.7467000000000001  1.0000
  H   H45       1.0  0.09349999999999999  0.6427  0.7254000000000002  1.0000
  C   C124      1.0  0.08061  0.547  0.8187000000000001  1.0000
  H   H46       1.0  0.09529999999999998  0.5501  0.8505  1.0000
  C   C125      1.0  0.05825  0.4902  0.8365000000000001  1.0000
  C   C126      1.0  0.05167  0.4323  0.9108  1.0000
  C   C127      1.0  0.10977  0.9693  0.40550000000000014  1.0000
  C   C128      1.0  0.10469  0.0312  0.3321  1.0000
  C   C129      1.0  0.08257999999999999  0.0901  0.3118  1.0000
  H   H47       1.0  0.0675  0.09280000000000001  0.3420000000000001  1.0000
  C   C130      1.0  0.08458  0.147  0.2407  1.0000
  H   H48       1.0  0.0712  0.192  0.21890000000000007  1.0000
  C   C131      1.0  0.10868  0.1276  0.2079  1.0000
  C   C132      1.0  0.11928  0.1767  0.13590000000000002  1.0000
  C   C133      1.0  0.10666  0.9822  0.6484  1.0000
  C   C134      1.0  0.11444  0.028900000000000002  0.7241  1.0000
  C   C135      1.0  0.13749  0.0045  0.7598000000000003  1.0000
  H   H49       1.0  0.15  0.9529  0.7403000000000002  1.0000
  C   C136      1.0  0.1407  0.0649  0.8297  1.0000
  H   H50       1.0  0.1555  0.0573  0.8608  1.0000
  C   C137      1.0  0.11987999999999999  0.135  0.8463000000000002  1.0000
  C   C138      1.0  0.11717  0.21360000000000004  0.9125000000000001  1.0000
  C   C139      1.0  0.17244  0.6337  0.41280000000000006  1.0000
  C   C140      1.0  0.16225  0.5816  0.34050000000000014  1.0000
  C   C141      1.0  0.13815  0.6044  0.3076  1.0000
  H   H51       1.0  0.1252  0.6522  0.3292  1.0000
  C   C142      1.0  0.1354  0.5457  0.23620000000000002  1.0000
  H   H52       1.0  0.1203  0.5497  0.20610000000000006  1.0000
  C   C143      1.0  0.15713  0.4836  0.2172  1.0000
  C   C144      1.0  0.16184999999999997  0.41520000000000007  0.147  1.0000
  C   C145      1.0  0.21263  0.921  0.6331  1.0000
  C   C146      1.0  0.22292  0.969  0.7051  1.0000
  C   C147      1.0  0.24762  0.9593000000000002  0.7345000000000003  1.0000
  H   H53       1.0  0.2614  0.9204  0.7102  1.0000
  C   C148      1.0  0.24993  0.0152  0.8060000000000002  1.0000
  H   H54       1.0  0.2657  0.0192  0.8333  1.0000
  C   C149      1.0  0.22697  0.0622  0.8308000000000001  1.0000
  C   C150      1.0  0.22167999999999996  0.11570000000000001  0.9059  1.0000
  C   C151      1.0  0.21438  0.8783000000000001  0.4109  1.0000
  C   C152      1.0  0.21136  0.9582  0.34510000000000013  1.0000
  C   C153      1.0  0.19006  0.027400000000000004  0.3286  1.0000
  H   H55       1.0  0.1752  0.033  0.3594  1.0000
  C   C154      1.0  0.19325  0.0893  0.2598  1.0000
  H   H56       1.0  0.1805  0.1393  0.23970000000000002  1.0000
  C   C155      1.0  0.21684  0.0685  0.2257  1.0000
  C   C156      1.0  0.22519  0.11540000000000002  0.14970000000000003  1.0000
  C   C157      1.0  0.15891999999999998  0.4583  0.9094000000000002  1.0000
  C   C158      1.0  0.16887  0.5062  0.8353000000000003  1.0000
  C   C159      1.0  0.19291  0.48600000000000004  0.8034  1.0000
  H   H57       1.0  0.2059  0.4393000000000001  0.8256000000000001  1.0000
  C   C160      1.0  0.19598  0.5441  0.7327  1.0000
  H   H58       1.0  0.2112  0.5399  0.7031  1.0000
  C   C161      1.0  0.17407  0.6071  0.713  1.0000
  C   C162      1.0  0.1699  0.6792  0.6441  1.0000
  O   O75       1.0  0.03325  0.9557  0.4377  1.0000
  O   O76       1.0  0.9949899999999999  0.8673  0.4631  1.0000
  O   O77       1.0  0.01225  0.1687  0.1362  1.0000
  O   O78       1.0  0.97258  0.1028  0.10440000000000003  1.0000
  O   O79       1.0  0.03135  0.6913  0.46330000000000005  1.0000
  O   O80       1.0  0.07047  0.7333  0.419  1.0000
  O   O81       1.0  0.04191  0.3845  0.1188  1.0000
  O   O82       1.0  0.08134  0.4643  0.1335  1.0000
  O   O83       1.0  0.02302  0.6313  0.6236  1.0000
  O   O84       1.0  0.06412  0.6987  0.6034000000000002  1.0000
  O   O85       1.0  0.03168  0.3675  0.9138  1.0000
  O   O86       1.0  0.06664  0.4571  0.9651  1.0000
  O   O87       1.0  0.09183  0.9777  0.4547000000000001  1.0000
  O   O88       1.0  0.13149  0.9195  0.4141  1.0000
  O   O89       1.0  0.10283  0.2339  0.09500000000000001  1.0000
  O   O90       1.0  0.14318  0.1665  0.1217  1.0000
  O   O91       1.0  0.08293  0.9720000000000001  0.6308  1.0000
  O   O92       1.0  0.12556  0.9543000000000001  0.6069000000000001  1.0000
  O   O93       1.0  0.10941  0.7551  0.527  1.0000
  O   O94       1.0  0.13634  0.22950000000000004  0.9567000000000001  1.0000
  O   O95       1.0  0.15616  0.688  0.4531  1.0000
  O   O96       1.0  0.19623999999999997  0.6151  0.42770000000000014  1.0000
  O   O97       1.0  0.14435  0.4153  0.09550000000000002  1.0000
  O   O98       1.0  0.18289  0.35880000000000006  0.13960000000000006  1.0000
  O   O99       1.0  0.18851  0.9362000000000001  0.6186  1.0000
  O   O100      1.0  0.22878  0.8648000000000001  0.5921  1.0000
  O   O101      1.0  0.20062  0.1689  0.9164000000000001  1.0000
  O   O102      1.0  0.23959  0.1025  0.9549  1.0000
  O   O103      1.0  0.19527999999999998  0.8659  0.456  1.0000
  O   O104      1.0  0.23588  0.8248  0.4188000000000001  1.0000
  O   O105      1.0  0.24867  0.1256  0.1352  1.0000
  O   O106      1.0  0.20630999999999997  0.136  0.1054  1.0000
  O   O107      1.0  0.13543  0.4796  0.9264000000000001  1.0000
  O   O108      1.0  0.17542  0.4034  0.9487000000000001  1.0000
  O   O109      1.0  0.14815  0.7295  0.6357  1.0000
  O   O110      1.0  0.18804999999999997  0.6879  0.5962  1.0000
  O   O111      1.0  0.09536  0.2646  0.9226  1.0000
  S   S19       1.0  0.01568  0.04955  0.2851300000000001  1.0000
  S   S20       1.0  0.0682  0.58918  0.27918  1.0000
  S   S21       1.0  0.03567  0.5022  0.7659600000000002  1.0000
  S   S22       1.0  0.12841  0.04073  0.26319  1.0000
  S   S23       1.0  0.09584999999999999  0.12543  0.7775800000000003  1.0000
  S   S24       1.0  0.18129  0.49213000000000007  0.28514  1.0000
  S   S25       1.0  0.20245999999999997  0.04518  0.76513  1.0000
  S   S26       1.0  0.23563999999999996  0.97248  0.27782  1.0000
  S   S27       1.0  0.14963  0.59388  0.7796200000000002  1.0000
  Sm  Sm13      1.0  0.98878  0.69361  0.53242  1.0000
  Sm  Sm14      1.0  0.06289  0.86465  0.52552  1.0000
  Sm  Sm15      1.0  0.15578  0.86422  0.52706  1.0000
  Sm  Sm16      1.0  0.22684  0.6853  0.52368  1.0000
  Sm  Sm17      1.0  0.10601999999999999  0.41063  0.022280000000000008  1.0000
  Sm  Sm18      1.0  0.17665  0.23288  0.027540000000000005  1.0000
  H   H59       1.0  0.1118  0.724  0.5700000000000002  1.0000
  H   H60       1.0  0.1089  0.705  0.492  1.0000
  C   C163      1.0  0.9901799999999998  0.0736  0.9218  1.0000
  C   C164      1.0  0.0016  0.0329  0.8490000000000002  1.0000
  C   C165      1.0  0.02609  0.05840000000000001  0.823  1.0000
  H   H61       1.0  0.0382  0.1037  0.8498  1.0000
  C   C166      1.0  0.03118  0.0084  0.7504  1.0000
  H   H62       1.0  0.0472  0.0152  0.7246  1.0000
  C   C167      1.0  0.01014  0.95  0.7232  1.0000
  C   C168      1.0  0.00803  0.8873  0.6492  1.0000
  C   C169      1.0  0.95068  0.3217  0.9155000000000001  1.0000
  C   C170      1.0  0.95459  0.4051  0.8509000000000001  1.0000
  C   C171      1.0  0.97469  0.4812  0.8384  1.0000
  H   H63       1.0  0.9889  0.4909  0.8714  1.0000
  C   C172      1.0  0.97165  0.5444  0.7691000000000002  1.0000
  H   H64       1.0  0.9836  0.601  0.7521  1.0000
  C   C173      1.0  0.94988  0.5141  0.7307  1.0000
  C   C174      1.0  0.94162  0.5592  0.6554  1.0000
  C   C175      1.0  0.95328  0.3567000000000001  0.1403  1.0000
  C   C176      1.0  0.94389  0.41250000000000003  0.21170000000000005  1.0000
  C   C177      1.0  0.92053  0.3987  0.2467  1.0000
  H   H65       1.0  0.9064999999999999  0.3573  0.22540000000000002  1.0000
  C   C178      1.0  0.91939  0.45300000000000007  0.31870000000000004  1.0000
  H   H66       1.0  0.9046999999999998  0.4499  0.3505  1.0000
  C   C179      1.0  0.94175  0.5098  0.33650000000000013  1.0000
  C   C180      1.0  0.94833  0.5677  0.4108  1.0000
  C   C181      1.0  0.89023  0.0307  0.9055000000000002  1.0000
  C   C182      1.0  0.89531  0.9688000000000001  0.8321  1.0000
  C   C183      1.0  0.9174199999999999  0.9099  0.8118000000000001  1.0000
  H   H67       1.0  0.9325  0.9072  0.842  1.0000
  C   C184      1.0  0.91542  0.853  0.7407  1.0000
  H   H68       1.0  0.9288  0.8080000000000002  0.7189  1.0000
  C   C185      1.0  0.89132  0.8724000000000001  0.7079  1.0000
  C   C186      1.0  0.8807199999999998  0.8233  0.6359  1.0000
  C   C187      1.0  0.89334  0.0178  0.14840000000000006  1.0000
  C   C188      1.0  0.8855599999999999  0.9711  0.22410000000000002  1.0000
  C   C189      1.0  0.8625099999999999  0.9955000000000002  0.2598  1.0000
  H   H69       1.0  0.85  0.0471  0.2403  1.0000
  C   C190      1.0  0.8593  0.9351  0.3297  1.0000
  H   H70       1.0  0.8445  0.9427  0.3608  1.0000
  C   C191      1.0  0.88012  0.865  0.3463000000000001  1.0000
  C   C192      1.0  0.8828299999999999  0.7864000000000001  0.4125000000000001  1.0000
  C   C193      1.0  0.8275599999999999  0.3663  0.9128  1.0000
  C   C194      1.0  0.83775  0.4184  0.8405000000000002  1.0000
  C   C195      1.0  0.86185  0.3956  0.8076000000000002  1.0000
  H   H71       1.0  0.8748  0.3478  0.8292  1.0000
  C   C196      1.0  0.8646  0.4543  0.7362  1.0000
  H   H72       1.0  0.8797  0.45030000000000003  0.7061  1.0000
  C   C197      1.0  0.84287  0.5164  0.7172  1.0000
  C   C198      1.0  0.83815  0.5848  0.6470000000000002  1.0000
  C   C199      1.0  0.78737  0.079  0.1331  1.0000
  C   C200      1.0  0.7770799999999999  0.031000000000000003  0.20510000000000003  1.0000
  C   C201      1.0  0.75238  0.0407  0.2345  1.0000
  H   H73       1.0  0.7385999999999999  0.0796  0.2102  1.0000
  C   C202      1.0  0.75007  0.9848  0.3060000000000001  1.0000
  H   H74       1.0  0.7342999999999998  0.9808000000000001  0.3333000000000001  1.0000
  C   C203      1.0  0.77303  0.9378000000000001  0.33080000000000004  1.0000
  C   C204      1.0  0.77832  0.8843000000000001  0.40590000000000004  1.0000
  C   C205      1.0  0.78562  0.1217  0.9109  1.0000
  C   C206      1.0  0.7886399999999999  0.0418  0.8451000000000002  1.0000
  C   C207      1.0  0.8099399999999999  0.9726  0.8286  1.0000
  H   H75       1.0  0.8248  0.9670000000000001  0.8594000000000003  1.0000
  C   C208      1.0  0.8067499999999999  0.9107  0.7598000000000003  1.0000
  H   H76       1.0  0.8195  0.8607  0.7397000000000002  1.0000
  C   C209      1.0  0.7831599999999999  0.9315  0.7257  1.0000
  C   C210      1.0  0.7748099999999999  0.8846000000000002  0.6497  1.0000
  C   C211      1.0  0.8410799999999999  0.5417  0.4094  1.0000
  C   C212      1.0  0.83113  0.4938  0.3353  1.0000
  C   C213      1.0  0.80709  0.514  0.3034000000000001  1.0000
  H   H77       1.0  0.7940999999999999  0.5607  0.32560000000000006  1.0000
  C   C214      1.0  0.8040199999999998  0.4559  0.2327  1.0000
  H   H78       1.0  0.7887999999999998  0.4601  0.2031  1.0000
  C   C215      1.0  0.82593  0.3929000000000001  0.21300000000000005  1.0000
  C   C216      1.0  0.8301  0.3208  0.1441  1.0000
  O   O112      1.0  0.96675  0.0443  0.9377000000000001  1.0000
  O   O113      1.0  0.00501  0.1327  0.9631  1.0000
  O   O114      1.0  0.98775  0.8313000000000001  0.6362000000000002  1.0000
  O   O115      1.0  0.02742  0.8972  0.6044  1.0000
  O   O116      1.0  0.96865  0.3087  0.9633  1.0000
  O   O117      1.0  0.92953  0.2667  0.9190000000000002  1.0000
  O   O118      1.0  0.95809  0.6155  0.6188  1.0000
  O   O119      1.0  0.91866  0.5357  0.6335  1.0000
  O   O120      1.0  0.97698  0.3687  0.12360000000000002  1.0000
  O   O121      1.0  0.93588  0.3013  0.10340000000000003  1.0000
  O   O122      1.0  0.96832  0.6325  0.4138  1.0000
  O   O123      1.0  0.9333599999999999  0.5429  0.46510000000000007  1.0000
  O   O124      1.0  0.9081699999999999  0.0223  0.9547  1.0000
  O   O125      1.0  0.8685099999999999  0.0805  0.9141000000000001  1.0000
  O   O126      1.0  0.89717  0.7661  0.595  1.0000
  O   O127      1.0  0.85682  0.8335  0.6217000000000003  1.0000
  O   O128      1.0  0.91707  0.028  0.1308  1.0000
  O   O129      1.0  0.87444  0.04569999999999999  0.1069  1.0000
  O   O130      1.0  0.89059  0.2449  0.027000000000000007  1.0000
  O   O131      1.0  0.86366  0.7705  0.45670000000000005  1.0000
  O   O132      1.0  0.84384  0.312  0.9531000000000001  1.0000
  O   O133      1.0  0.8037599999999999  0.3849  0.9277  1.0000
  O   O134      1.0  0.85565  0.5847  0.5955  1.0000
  O   O135      1.0  0.81711  0.6412  0.6396000000000002  1.0000
  O   O136      1.0  0.81149  0.0638  0.11860000000000002  1.0000
  O   O137      1.0  0.77122  0.1352  0.09210000000000003  1.0000
  O   O138      1.0  0.79938  0.8311000000000001  0.4164  1.0000
  O   O139      1.0  0.7604100000000001  0.8975  0.4549  1.0000
  O   O140      1.0  0.80472  0.1341  0.9560000000000001  1.0000
  O   O141      1.0  0.7641199999999999  0.1752  0.9188000000000001  1.0000
  O   O142      1.0  0.75133  0.8744  0.6352  1.0000
  O   O143      1.0  0.7936899999999999  0.864  0.6054  1.0000
  O   O144      1.0  0.8645699999999998  0.5204  0.4264  1.0000
  O   O145      1.0  0.82458  0.5966  0.4487000000000001  1.0000
  O   O146      1.0  0.85185  0.2705  0.1357  1.0000
  O   O147      1.0  0.81195  0.3121  0.09620000000000002  1.0000
  O   O148      1.0  0.90464  0.7354  0.42260000000000003  1.0000
  S   S28       1.0  0.98432  0.95045  0.7851300000000002  1.0000
  S   S29       1.0  0.9318  0.41082  0.77918  1.0000
  S   S30       1.0  0.96433  0.4978000000000001  0.26596  1.0000
  S   S31       1.0  0.87159  0.95927  0.76319  1.0000
  S   S32       1.0  0.90415  0.8745700000000001  0.27758  1.0000
  S   S33       1.0  0.81871  0.50787  0.78514  1.0000
  S   S34       1.0  0.79754  0.95482  0.26513  1.0000
  S   S35       1.0  0.76436  0.02752  0.7778200000000002  1.0000
  S   S36       1.0  0.85037  0.40612000000000004  0.2796200000000001  1.0000
  Sm  Sm19      1.0  0.01122  0.30639  0.03242  1.0000
  Sm  Sm20      1.0  0.93711  0.13535  0.02552  1.0000
  Sm  Sm21      1.0  0.84422  0.13578  0.027060000000000008  1.0000
  Sm  Sm22      1.0  0.77316  0.3147  0.02368  1.0000
  Sm  Sm23      1.0  0.8939799999999999  0.58937  0.52228  1.0000
  Sm  Sm24      1.0  0.82335  0.76712  0.52754  1.0000
  H   H79       1.0  0.8882  0.276  0.07  1.0000
  H   H80       1.0  0.8911  0.295  0.992  1.0000
