data_image0
_chemical_formula_structural       C3HCHC5HCHC5HCHC5HCHC5HCHC5HCHC5HCHC5HCHC5HCHC2O37S9Nd6H2C3HCHC5HCHC5HCHC5HCHC5HCHC5HCHC5HCHC5HCHC5HCHC2O37S9Nd6H2C3HCHC5HCHC5HCHC5HCHC5HCHC5HCHC5HCHC5HCHC5HCHC2O37S9Nd6H2C3HCHC5HCHC5HCHC5HCHC5HCHC5HCHC5HCHC5HCHC5HCHC2O37S9Nd6H2
_chemical_formula_sum              "C216 H80 O148 S36 Nd24"
_cell_length_a       50.824
_cell_length_b       11.369
_cell_length_c       17.604
_cell_angle_alpha    90.0
_cell_angle_beta     90.0
_cell_angle_gamma    90.0

_space_group_name_H-M_alt    "P 1"
_space_group_IT_number       1

loop_
  _space_group_symop_operation_xyz
  'x, y, z'

loop_
  _atom_site_type_symbol
  _atom_site_label
  _atom_site_symmetry_multiplicity
  _atom_site_fract_x
  _atom_site_fract_y
  _atom_site_fract_z
  _atom_site_occupancy
  C   C1        1.0  0.5094  0.5708  0.4228  1.0000
  C   C2        1.0  0.4981999999999999  0.5309  0.3496  1.0000
  C   C3        1.0  0.474  0.5547  0.3226  1.0000
  H   H1        1.0  0.4618  0.5997999999999999  0.3489  1.0000
  C   C4        1.0  0.469  0.5046  0.2506  1.0000
  H   H2        1.0  0.45319999999999994  0.5111  0.2247  1.0000
  C   C5        1.0  0.4902  0.44659999999999994  0.2246  1.0000
  C   C6        1.0  0.4922  0.3844999999999999  0.1513  1.0000
  C   C7        1.0  0.5494  0.8204999999999999  0.4145  1.0000
  C   C8        1.0  0.5454  0.9031999999999999  0.3498  1.0000
  C   C9        1.0  0.5252  0.9767999999999998  0.3364  1.0000
  H   H3        1.0  0.5109  0.9854  0.3689  1.0000
  C   C10       1.0  0.5281  0.039599999999999996  0.268  1.0000
  H   H4        1.0  0.5161  0.09529999999999998  0.2507  1.0000
  C   C11       1.0  0.5503  0.009499999999999998  0.23029999999999998  1.0000
  C   C12       1.0  0.5587  0.05649999999999999  0.1554  1.0000
  C   C13       1.0  0.5471  0.8600999999999998  0.6404  1.0000
  C   C14       1.0  0.556  0.9131  0.7117  1.0000
  C   C15       1.0  0.5794  0.8995  0.7459  1.0000
  H   H5        1.0  0.5935  0.8592999999999998  0.7242  1.0000
  C   C16       1.0  0.5805  0.9520999999999998  0.8174  1.0000
  H   H6        1.0  0.595  0.9471  0.8494  1.0000
  C   C17       1.0  0.5582  0.011099999999999997  0.8356  1.0000
  C   C18       1.0  0.5517  0.0674  0.9097000000000001  1.0000
  C   C19       1.0  0.6099  0.5309  0.4057  1.0000
  C   C20       1.0  0.6045  0.4701999999999999  0.3317  1.0000
  C   C21       1.0  0.5828  0.4108  0.3119  1.0000
  H   H7        1.0  0.5679  0.4075  0.3422  1.0000
  C   C22       1.0  0.5847  0.3535999999999999  0.2411  1.0000
  H   H8        1.0  0.5714  0.30789999999999995  0.2197  1.0000
  C   C23       1.0  0.60819  0.3739999999999999  0.2085  1.0000
  C   C24       1.0  0.6193  0.3239  0.1366  1.0000
  C   C25       1.0  0.6067  0.5198  0.6502  1.0000
  C   C26       1.0  0.6144  0.4711  0.7248  1.0000
  C   C27       1.0  0.6374  0.49349999999999994  0.7599  1.0000
  H   H9        1.0  0.65  0.5441  0.7401  1.0000
  C   C28       1.0  0.6406  0.4336999999999999  0.8289  1.0000
  H   H10       1.0  0.6555  0.4406  0.8595  1.0000
  C   C29       1.0  0.61977  0.3649  0.8459  1.0000
  C   C30       1.0  0.6168  0.2884  0.9114  1.0000
  C   C31       1.0  0.6722  0.8697999999999999  0.4117  1.0000
  C   C32       1.0  0.6622  0.9215999999999998  0.3394  1.0000
  C   C33       1.0  0.6382999999999999  0.9  0.3071  1.0000
  H   H11       1.0  0.6253  0.8533  0.3288  1.0000
  C   C34       1.0  0.6358  0.9579999999999997  0.2358  1.0000
  H   H12       1.0  0.6207  0.9546  0.2058  1.0000
  C   C35       1.0  0.6575  0.0184  0.2166  1.0000
  C   C36       1.0  0.6625  0.0875  0.1473  1.0000
  C   C37       1.0  0.7128  0.5818  0.6333  1.0000
  C   C38       1.0  0.7229  0.5347  0.7061  1.0000
  C   C39       1.0  0.7476  0.5461999999999999  0.7353  1.0000
  H   H13       1.0  0.7612  0.5857  0.7112  1.0000
  C   C40       1.0  0.7497999999999999  0.491  0.8067  1.0000
  H   H14       1.0  0.7653  0.4878999999999999  0.8345  1.0000
  C   C41       1.0  0.7271  0.44329999999999997  0.8303  1.0000
  C   C42       1.0  0.7215  0.38799999999999996  0.9059  1.0000
  C   C43       1.0  0.7148  0.6253  0.4092  1.0000
  C   C44       1.0  0.7114199999999999  0.5454  0.3444  1.0000
  C   C45       1.0  0.6903  0.4784999999999999  0.3281  1.0000
  H   H15       1.0  0.6754  0.4739  0.3586  1.0000
  C   C46       1.0  0.6933  0.4168  0.2596  1.0000
  H   H16       1.0  0.6805  0.36749999999999994  0.23950000000000002  1.0000
  C   C47       1.0  0.7168  0.43599999999999994  0.2261  1.0000
  C   C48       1.0  0.7254  0.3894999999999999  0.1507  1.0000
  C   C49       1.0  0.6590999999999999  0.04279999999999999  0.9085  1.0000
  C   C50       1.0  0.6690999999999999  0.9957999999999998  0.8337  1.0000
  C   C51       1.0  0.6931  0.0156  0.8022  1.0000
  H   H17       1.0  0.706  0.0626  0.8238  1.0000
  C   C52       1.0  0.6957  0.9564999999999998  0.7331  1.0000
  H   H18       1.0  0.711  0.9588  0.7039  1.0000
  C   C53       1.0  0.6736999999999999  0.8946999999999998  0.7127  1.0000
  C   C54       1.0  0.6694  0.8243999999999998  0.6437  1.0000
  O   O1        1.0  0.53284  0.5414  0.4381  1.0000
  O   O2        1.0  0.49457  0.6301999999999999  0.46309999999999996  1.0000
  O   O3        1.0  0.51274  0.3286  0.1388  1.0000
  O   O4        1.0  0.47329  0.3915  0.1055  1.0000
  O   O5        1.0  0.53138  0.8067999999999999  0.4616  1.0000
  O   O6        1.0  0.57068  0.7659  0.4179  1.0000
  O   O7        1.0  0.54218  0.11149999999999999  0.1183  1.0000
  O   O8        1.0  0.58155  0.0342  0.134  1.0000
  O   O9        1.0  0.52354  0.8726999999999999  0.6223  1.0000
  O   O10       1.0  0.56435  0.8043  0.6032  1.0000
  O   O11       1.0  0.5317  0.1322  0.9124000000000001  1.0000
  O   O12       1.0  0.56638  0.04259999999999999  0.9647  1.0000
  O   O13       1.0  0.59222  0.5218999999999999  0.4544  1.0000
  O   O14       1.0  0.63132  0.5818  0.4128  1.0000
  O   O15       1.0  0.60246  0.2675  0.0958  1.0000
  O   O16       1.0  0.64288  0.3366  0.12240000000000001  1.0000
  O   O17       1.0  0.58269  0.5268  0.6325  1.0000
  O   O18       1.0  0.62501  0.5494  0.6079  1.0000
  O   O19       1.0  0.60934  0.7481  0.5259  1.0000
  O   O20       1.0  0.6358  0.2712  0.9558999999999999  1.0000
  O   O21       1.0  0.6562  0.8155999999999999  0.4517  1.0000
  O   O22       1.0  0.696  0.8897999999999999  0.4271  1.0000
  O   O23       1.0  0.64502  0.0882  0.0957  1.0000
  O   O24       1.0  0.6834999999999999  0.1423  0.1401  1.0000
  O   O25       1.0  0.68878  0.5649  0.6185  1.0000
  O   O26       1.0  0.72883  0.6368  0.5929  1.0000
  O   O27       1.0  0.70066  0.3354  0.9156000000000001  1.0000
  O   O28       1.0  0.73933  0.4032  0.9547  1.0000
  O   O29       1.0  0.69594  0.6381  0.45550000000000007  1.0000
  O   O30       1.0  0.73614  0.6782999999999999  0.4178  1.0000
  O   O31       1.0  0.74865  0.3788  0.1356  1.0000
  O   O32       1.0  0.70641  0.3686  0.1061  1.0000
  O   O33       1.0  0.63584  0.0203  0.9257  1.0000
  O   O34       1.0  0.67583  0.0983  0.9475000000000001  1.0000
  O   O35       1.0  0.6475099999999999  0.7752  0.6361  1.0000
  O   O36       1.0  0.68751  0.8136999999999998  0.5967  1.0000
  O   O37       1.0  0.59496  0.2373  0.9214999999999999  1.0000
  S   S1        1.0  0.51559  0.4478  0.28661  1.0000
  S   S2        1.0  0.56831  0.9090999999999999  0.27872  1.0000
  S   S3        1.0  0.53591  0.9991999999999999  0.76496  1.0000
  S   S4        1.0  0.62824  0.4606  0.2631  1.0000
  S   S5        1.0  0.59562  0.37629999999999997  0.77784  1.0000
  S   S6        1.0  0.68146  0.009699999999999999  0.28439  1.0000
  S   S7        1.0  0.70256  0.4583  0.76526  1.0000
  S   S8        1.0  0.73567  0.5305  0.27784  1.0000
  S   S9        1.0  0.6496899999999999  0.9085  0.77923  1.0000
  Nd  Nd1       1.0  0.4888  0.8069699999999999  0.53209  1.0000
  Nd  Nd2       1.0  0.56276  0.6346999999999999  0.52607  1.0000
  Nd  Nd3       1.0  0.65574  0.6383399999999999  0.52713  1.0000
  Nd  Nd4       1.0  0.7269  0.81775  0.52384  1.0000
  Nd  Nd5       1.0  0.6061  0.09000999999999999  0.02216  1.0000
  Nd  Nd6       1.0  0.6766  0.26959  0.02743  1.0000
  H   H19       1.0  0.6135  0.7779999999999999  0.568  1.0000
  H   H20       1.0  0.6063  0.802  0.49399999999999994  1.0000
  C   C55       1.0  0.4905999999999999  0.4292  0.9228  1.0000
  C   C56       1.0  0.5018  0.4690999999999999  0.8496  1.0000
  C   C57       1.0  0.526  0.4452999999999999  0.8226  1.0000
  H   H21       1.0  0.5382  0.4002  0.8489  1.0000
  C   C58       1.0  0.531  0.4954  0.7506  1.0000
  H   H22       1.0  0.5468  0.4889  0.7247  1.0000
  C   C59       1.0  0.5098  0.5534  0.7246  1.0000
  C   C60       1.0  0.5078  0.6155  0.6513  1.0000
  C   C61       1.0  0.45059999999999995  0.17949999999999994  0.9145  1.0000
  C   C62       1.0  0.4546  0.09679999999999997  0.8498  1.0000
  C   C63       1.0  0.4748  0.023199999999999995  0.8364  1.0000
  H   H23       1.0  0.4891  0.0146  0.8689  1.0000
  C   C64       1.0  0.4719  0.9603999999999998  0.768  1.0000
  H   H24       1.0  0.4839  0.9046999999999998  0.7507  1.0000
  C   C65       1.0  0.4497  0.9905  0.7303  1.0000
  C   C66       1.0  0.4413  0.9434999999999999  0.6554  1.0000
  C   C67       1.0  0.4528999999999999  0.1399  0.1404  1.0000
  C   C68       1.0  0.444  0.0869  0.2117  1.0000
  C   C69       1.0  0.4206  0.1005  0.2459  1.0000
  H   H25       1.0  0.4065  0.1407  0.2242  1.0000
  C   C70       1.0  0.4195  0.0479  0.3174  1.0000
  H   H26       1.0  0.4049999999999999  0.0529  0.3494  1.0000
  C   C71       1.0  0.4418  0.9888999999999999  0.3356  1.0000
  C   C72       1.0  0.4483  0.9325999999999998  0.4097  1.0000
  C   C73       1.0  0.39009999999999995  0.4690999999999999  0.9057  1.0000
  C   C74       1.0  0.3955  0.5298  0.8317  1.0000
  C   C75       1.0  0.4172  0.5892  0.8119  1.0000
  H   H27       1.0  0.4321  0.5925  0.8422  1.0000
  C   C76       1.0  0.41529999999999995  0.6464  0.7411  1.0000
  H   H28       1.0  0.4286  0.6921  0.7197  1.0000
  C   C77       1.0  0.39181  0.626  0.7085  1.0000
  C   C78       1.0  0.3807  0.6761  0.6366  1.0000
  C   C79       1.0  0.3933  0.4801999999999999  0.1502  1.0000
  C   C80       1.0  0.3856  0.5289  0.2248  1.0000
  C   C81       1.0  0.3626  0.5065  0.2599  1.0000
  H   H29       1.0  0.35  0.4558999999999999  0.24009999999999998  1.0000
  C   C82       1.0  0.35939999999999994  0.5663  0.3289  1.0000
  H   H30       1.0  0.3445  0.5593999999999999  0.3595  1.0000
  C   C83       1.0  0.38022999999999996  0.6350999999999999  0.3459  1.0000
  C   C84       1.0  0.3832  0.7115999999999999  0.4114  1.0000
  C   C85       1.0  0.3278  0.13019999999999998  0.9116999999999998  1.0000
  C   C86       1.0  0.3378  0.0784  0.8394  1.0000
  C   C87       1.0  0.3617  0.09999999999999998  0.8071  1.0000
  H   H31       1.0  0.3746999999999999  0.1467  0.8288  1.0000
  C   C88       1.0  0.3642  0.042  0.7358  1.0000
  H   H32       1.0  0.3793  0.0454  0.7058  1.0000
  C   C89       1.0  0.3425  0.9815999999999999  0.7166  1.0000
  C   C90       1.0  0.3375  0.9124999999999999  0.6473  1.0000
  C   C91       1.0  0.2872  0.4182  0.1333  1.0000
  C   C92       1.0  0.2771  0.46529999999999994  0.2061  1.0000
  C   C93       1.0  0.2524  0.4538  0.2353  1.0000
  H   H33       1.0  0.2388  0.4143  0.2112  1.0000
  C   C94       1.0  0.2502  0.509  0.3067  1.0000
  H   H34       1.0  0.2347  0.5121  0.3345  1.0000
  C   C95       1.0  0.2729  0.5567  0.3303  1.0000
  C   C96       1.0  0.2785  0.612  0.4059  1.0000
  C   C97       1.0  0.2852  0.3747  0.9092000000000001  1.0000
  C   C98       1.0  0.28858  0.4546  0.8444  1.0000
  C   C99       1.0  0.3097  0.5215  0.8281  1.0000
  H   H35       1.0  0.3246  0.5261  0.8586  1.0000
  C   C100      1.0  0.3067  0.5832  0.7596  1.0000
  H   H36       1.0  0.31949999999999995  0.6325  0.7395  1.0000
  C   C101      1.0  0.2832  0.564  0.7261  1.0000
  C   C102      1.0  0.2746  0.6105  0.6507  1.0000
  C   C103      1.0  0.3409  0.9571999999999998  0.4085  1.0000
  C   C104      1.0  0.3309  0.0042  0.3337  1.0000
  C   C105      1.0  0.3069  0.9844  0.3022  1.0000
  H   H37       1.0  0.294  0.9373999999999999  0.3238  1.0000
  C   C106      1.0  0.3043  0.0435  0.23309999999999997  1.0000
  H   H38       1.0  0.289  0.0412  0.2039  1.0000
  C   C107      1.0  0.32629999999999987  0.10529999999999999  0.2127  1.0000
  C   C108      1.0  0.3306  0.1756  0.1437  1.0000
  O   O38       1.0  0.46716  0.4585999999999999  0.9381000000000002  1.0000
  O   O39       1.0  0.50543  0.3698  0.9631  1.0000
  O   O40       1.0  0.48725999999999997  0.6714  0.6388  1.0000
  O   O41       1.0  0.52671  0.6085  0.6055  1.0000
  O   O42       1.0  0.46862  0.1932  0.9616000000000001  1.0000
  O   O43       1.0  0.42931999999999987  0.23409999999999997  0.9179  1.0000
  O   O44       1.0  0.45781999999999995  0.8885  0.6183  1.0000
  O   O45       1.0  0.41845  0.9657999999999998  0.634  1.0000
  O   O46       1.0  0.47645999999999994  0.1273  0.12229999999999999  1.0000
  O   O47       1.0  0.43565  0.1957  0.1032  1.0000
  O   O48       1.0  0.46829999999999994  0.8677999999999999  0.4124  1.0000
  O   O49       1.0  0.43362  0.9573999999999999  0.4647  1.0000
  O   O50       1.0  0.4077799999999999  0.47809999999999997  0.9544  1.0000
  O   O51       1.0  0.36868  0.4182  0.9128  1.0000
  O   O52       1.0  0.39754  0.7325  0.5958  1.0000
  O   O53       1.0  0.35712  0.6633999999999999  0.6224  1.0000
  O   O54       1.0  0.41731  0.47319999999999995  0.1325  1.0000
  O   O55       1.0  0.37499  0.4506  0.1079  1.0000
  O   O56       1.0  0.3906599999999999  0.2519  0.0259  1.0000
  O   O57       1.0  0.3642  0.7288  0.4559  1.0000
  O   O58       1.0  0.3438  0.1844  0.9517  1.0000
  O   O59       1.0  0.304  0.1102  0.9270999999999999  1.0000
  O   O60       1.0  0.35497999999999996  0.9117999999999998  0.5957  1.0000
  O   O61       1.0  0.31649999999999995  0.8577  0.6401  1.0000
  O   O62       1.0  0.31122  0.4351  0.11850000000000001  1.0000
  O   O63       1.0  0.27117  0.3632  0.0929  1.0000
  O   O64       1.0  0.29934  0.6646  0.4156  1.0000
  O   O65       1.0  0.26067  0.5968  0.45469999999999994  1.0000
  O   O66       1.0  0.30406  0.36189999999999994  0.9555  1.0000
  O   O67       1.0  0.26386  0.32169999999999993  0.9178  1.0000
  O   O68       1.0  0.25135  0.6212  0.6356  1.0000
  O   O69       1.0  0.29359  0.6314  0.6061  1.0000
  O   O70       1.0  0.36416  0.9796999999999998  0.4257  1.0000
  O   O71       1.0  0.32417  0.9017  0.4475  1.0000
  O   O72       1.0  0.35249  0.2248  0.1361  1.0000
  O   O73       1.0  0.31249  0.1863  0.0967  1.0000
  O   O74       1.0  0.40504  0.7627  0.4215  1.0000
  S   S10       1.0  0.48440999999999995  0.5522  0.78661  1.0000
  S   S11       1.0  0.4316899999999999  0.09089999999999998  0.77872  1.0000
  S   S12       1.0  0.46409  0.0007999999999999999  0.26496  1.0000
  S   S13       1.0  0.37176  0.5394  0.7631  1.0000
  S   S14       1.0  0.40438  0.6236999999999999  0.27784  1.0000
  S   S15       1.0  0.31854  0.9903  0.78439  1.0000
  S   S16       1.0  0.29744  0.5417  0.26526  1.0000
  S   S17       1.0  0.26433  0.4695  0.77784  1.0000
  S   S18       1.0  0.3503099999999999  0.0915  0.27923  1.0000
  Nd  Nd7       1.0  0.5112  0.19303  0.03209  1.0000
  Nd  Nd8       1.0  0.43723999999999996  0.36529999999999996  0.02607  1.0000
  Nd  Nd9       1.0  0.34426  0.36166  0.02713  1.0000
  Nd  Nd10      1.0  0.2731  0.18225  0.02384  1.0000
  Nd  Nd11      1.0  0.3939  0.90999  0.52216  1.0000
  Nd  Nd12      1.0  0.3234  0.7304099999999999  0.52743  1.0000
  H   H39       1.0  0.3865  0.222  0.068  1.0000
  H   H40       1.0  0.3937  0.198  0.9940000000000001  1.0000
  C   C109      1.0  0.0094  0.9292  0.4228  1.0000
  C   C110      1.0  0.9982  0.9691  0.3496  1.0000
  C   C111      1.0  0.974  0.9453  0.3226  1.0000
  H   H41       1.0  0.9617999999999999  0.9002  0.3489  1.0000
  C   C112      1.0  0.969  0.9954  0.2506  1.0000
  H   H42       1.0  0.9532  0.9888999999999999  0.2247  1.0000
  C   C113      1.0  0.9902  0.053399999999999996  0.2246  1.0000
  C   C114      1.0  0.9922  0.11549999999999998  0.1513  1.0000
  C   C115      1.0  0.0494  0.6795  0.4145  1.0000
  C   C116      1.0  0.0454  0.5968  0.3498  1.0000
  C   C117      1.0  0.0252  0.5232  0.3364  1.0000
  H   H43       1.0  0.0109  0.5146  0.3689  1.0000
  C   C118      1.0  0.0281  0.4604  0.268  1.0000
  H   H44       1.0  0.0161  0.4047  0.2507  1.0000
  C   C119      1.0  0.05029999999999999  0.4905  0.23029999999999998  1.0000
  C   C120      1.0  0.0587  0.4435  0.1554  1.0000
  C   C121      1.0  0.0471  0.6399  0.6404  1.0000
  C   C122      1.0  0.055999999999999994  0.5869  0.7117  1.0000
  C   C123      1.0  0.0794  0.6005  0.7459  1.0000
  H   H45       1.0  0.0935  0.6407  0.7242  1.0000
  C   C124      1.0  0.08049999999999999  0.5478999999999999  0.8174  1.0000
  H   H46       1.0  0.09499999999999999  0.5529  0.8494  1.0000
  C   C125      1.0  0.058199999999999995  0.4889  0.8356  1.0000
  C   C126      1.0  0.0517  0.43259999999999993  0.9097000000000001  1.0000
  C   C127      1.0  0.1099  0.9691  0.4057  1.0000
  C   C128      1.0  0.1045  0.029799999999999993  0.3317  1.0000
  C   C129      1.0  0.0828  0.0892  0.3119  1.0000
  H   H47       1.0  0.0679  0.0925  0.3422  1.0000
  C   C130      1.0  0.0847  0.1464  0.2411  1.0000
  H   H48       1.0  0.0714  0.1921  0.2197  1.0000
  C   C131      1.0  0.10819  0.126  0.2085  1.0000
  C   C132      1.0  0.1193  0.1761  0.1366  1.0000
  C   C133      1.0  0.1067  0.9801999999999997  0.6502  1.0000
  C   C134      1.0  0.1144  0.02889999999999999  0.7248  1.0000
  C   C135      1.0  0.1374  0.006499999999999999  0.7599  1.0000
  H   H49       1.0  0.15  0.9559  0.7401  1.0000
  C   C136      1.0  0.1406  0.0663  0.8289  1.0000
  H   H50       1.0  0.1555  0.05939999999999999  0.8595  1.0000
  C   C137      1.0  0.11976999999999999  0.1351  0.8459  1.0000
  C   C138      1.0  0.1168  0.2116  0.9114  1.0000
  C   C139      1.0  0.17219999999999996  0.6301999999999999  0.4117  1.0000
  C   C140      1.0  0.16219999999999998  0.5784  0.3394  1.0000
  C   C141      1.0  0.1383  0.6  0.3071  1.0000
  H   H51       1.0  0.1253  0.6467  0.3288  1.0000
  C   C142      1.0  0.1358  0.542  0.2358  1.0000
  H   H52       1.0  0.1207  0.5454  0.2058  1.0000
  C   C143      1.0  0.1575  0.4816  0.2166  1.0000
  C   C144      1.0  0.1625  0.4125  0.1473  1.0000
  C   C145      1.0  0.2128  0.9182  0.6333  1.0000
  C   C146      1.0  0.2229  0.9653  0.7061  1.0000
  C   C147      1.0  0.2476  0.9537999999999999  0.7353  1.0000
  H   H53       1.0  0.2612  0.9143  0.7112  1.0000
  C   C148      1.0  0.2498  0.009  0.8067  1.0000
  H   H54       1.0  0.2653  0.012099999999999996  0.8345  1.0000
  C   C149      1.0  0.2271  0.056699999999999987  0.8303  1.0000
  C   C150      1.0  0.22149999999999997  0.112  0.9059  1.0000
  C   C151      1.0  0.2148  0.8746999999999998  0.4092  1.0000
  C   C152      1.0  0.21142  0.9546  0.3444  1.0000
  C   C153      1.0  0.1903  0.0215  0.3281  1.0000
  H   H55       1.0  0.1754  0.0261  0.3586  1.0000
  C   C154      1.0  0.1933  0.0832  0.2596  1.0000
  H   H56       1.0  0.1805  0.1325  0.23950000000000002  1.0000
  C   C155      1.0  0.2168  0.064  0.2261  1.0000
  C   C156      1.0  0.2254  0.11049999999999997  0.1507  1.0000
  C   C157      1.0  0.1591  0.4572  0.9085  1.0000
  C   C158      1.0  0.1691  0.5042  0.8337  1.0000
  C   C159      1.0  0.1931  0.4844  0.8022  1.0000
  H   H57       1.0  0.20599999999999993  0.4374  0.8238  1.0000
  C   C160      1.0  0.1957  0.5435  0.7331  1.0000
  H   H58       1.0  0.211  0.5411999999999999  0.7039  1.0000
  C   C161      1.0  0.1737  0.6053  0.7127  1.0000
  C   C162      1.0  0.1694  0.6756  0.6437  1.0000
  O   O75       1.0  0.03284  0.9586  0.4381  1.0000
  O   O76       1.0  0.99457  0.8697999999999999  0.46309999999999996  1.0000
  O   O77       1.0  0.012739999999999996  0.1714  0.1388  1.0000
  O   O78       1.0  0.9732899999999999  0.1085  0.1055  1.0000
  O   O79       1.0  0.03138  0.6932  0.4616  1.0000
  O   O80       1.0  0.07068  0.7340999999999998  0.4179  1.0000
  O   O81       1.0  0.04218  0.38849999999999996  0.1183  1.0000
  O   O82       1.0  0.08155  0.4657999999999999  0.134  1.0000
  O   O83       1.0  0.02354  0.6272999999999999  0.6223  1.0000
  O   O84       1.0  0.06435  0.6957  0.6032  1.0000
  O   O85       1.0  0.0317  0.3678  0.9124000000000001  1.0000
  O   O86       1.0  0.06638  0.45739999999999986  0.9647  1.0000
  O   O87       1.0  0.09222  0.9781  0.4544  1.0000
  O   O88       1.0  0.13132  0.9182  0.4128  1.0000
  O   O89       1.0  0.10246  0.2325  0.0958  1.0000
  O   O90       1.0  0.14288  0.1634  0.12240000000000001  1.0000
  O   O91       1.0  0.08269  0.9732  0.6325  1.0000
  O   O92       1.0  0.12501  0.9505999999999999  0.6079  1.0000
  O   O93       1.0  0.10934  0.7518999999999998  0.5259  1.0000
  O   O94       1.0  0.1358  0.22879999999999998  0.9558999999999999  1.0000
  O   O95       1.0  0.1562  0.6843999999999999  0.4517  1.0000
  O   O96       1.0  0.196  0.6101999999999999  0.4271  1.0000
  O   O97       1.0  0.14502  0.4118  0.0957  1.0000
  O   O98       1.0  0.18349999999999997  0.3577  0.1401  1.0000
  O   O99       1.0  0.18878  0.9351  0.6185  1.0000
  O   O100      1.0  0.22883  0.8631999999999999  0.5929  1.0000
  O   O101      1.0  0.20066  0.16459999999999997  0.9156000000000001  1.0000
  O   O102      1.0  0.23932999999999993  0.09679999999999997  0.9547  1.0000
  O   O103      1.0  0.19594  0.8619  0.45550000000000007  1.0000
  O   O104      1.0  0.23614  0.8216999999999999  0.4178  1.0000
  O   O105      1.0  0.24865  0.12119999999999999  0.1356  1.0000
  O   O106      1.0  0.20641  0.1314  0.1061  1.0000
  O   O107      1.0  0.13584  0.47969999999999996  0.9257  1.0000
  O   O108      1.0  0.17583  0.40169999999999995  0.9475000000000001  1.0000
  O   O109      1.0  0.14751  0.7247999999999999  0.6361  1.0000
  O   O110      1.0  0.18751  0.6863  0.5967  1.0000
  O   O111      1.0  0.09496  0.2627  0.9214999999999999  1.0000
  S   S19       1.0  0.015589999999999998  0.0522  0.28661  1.0000
  S   S20       1.0  0.06831  0.5908999999999999  0.27872  1.0000
  S   S21       1.0  0.03591  0.5008  0.76496  1.0000
  S   S22       1.0  0.12824  0.0394  0.2631  1.0000
  S   S23       1.0  0.09561999999999998  0.1237  0.77784  1.0000
  S   S24       1.0  0.18146  0.49029999999999996  0.28439  1.0000
  S   S25       1.0  0.20256  0.0417  0.76526  1.0000
  S   S26       1.0  0.23567  0.9695  0.27784  1.0000
  S   S27       1.0  0.14969  0.5914999999999999  0.77923  1.0000
  Nd  Nd13      1.0  0.9888  0.69303  0.53209  1.0000
  Nd  Nd14      1.0  0.06276  0.8653  0.52607  1.0000
  Nd  Nd15      1.0  0.15574  0.8616599999999999  0.52713  1.0000
  Nd  Nd16      1.0  0.2269  0.68225  0.52384  1.0000
  Nd  Nd17      1.0  0.1061  0.40999  0.02216  1.0000
  Nd  Nd18      1.0  0.1766  0.23040999999999998  0.02743  1.0000
  H   H59       1.0  0.1135  0.722  0.568  1.0000
  H   H60       1.0  0.10629999999999999  0.6979999999999998  0.49399999999999994  1.0000
  C   C163      1.0  0.9906  0.0708  0.9228  1.0000
  C   C164      1.0  0.0018  0.0309  0.8496  1.0000
  C   C165      1.0  0.026  0.05469999999999999  0.8226  1.0000
  H   H61       1.0  0.0382  0.0998  0.8489  1.0000
  C   C166      1.0  0.030999999999999996  0.0046  0.7506  1.0000
  H   H62       1.0  0.0468  0.011099999999999997  0.7247  1.0000
  C   C167      1.0  0.0098  0.9466  0.7246  1.0000
  C   C168      1.0  0.0078  0.8844999999999998  0.6513  1.0000
  C   C169      1.0  0.9505999999999998  0.3205  0.9145  1.0000
  C   C170      1.0  0.9546  0.4032  0.8498  1.0000
  C   C171      1.0  0.9748  0.4767999999999999  0.8364  1.0000
  H   H63       1.0  0.9891  0.4854  0.8689  1.0000
  C   C172      1.0  0.9718999999999999  0.5396  0.768  1.0000
  H   H64       1.0  0.9839  0.5953  0.7507  1.0000
  C   C173      1.0  0.9497  0.5094999999999998  0.7303  1.0000
  C   C174      1.0  0.9412999999999999  0.5565  0.6554  1.0000
  C   C175      1.0  0.9529  0.36009999999999986  0.1404  1.0000
  C   C176      1.0  0.944  0.4131  0.2117  1.0000
  C   C177      1.0  0.9205999999999999  0.3994999999999999  0.2459  1.0000
  H   H65       1.0  0.9065  0.3593  0.2242  1.0000
  C   C178      1.0  0.9195  0.45209999999999995  0.3174  1.0000
  H   H66       1.0  0.905  0.44709999999999994  0.3494  1.0000
  C   C179      1.0  0.9418  0.5111  0.3356  1.0000
  C   C180      1.0  0.9483  0.5674  0.4097  1.0000
  C   C181      1.0  0.8900999999999998  0.0309  0.9057  1.0000
  C   C182      1.0  0.8954999999999999  0.9701999999999997  0.8317  1.0000
  C   C183      1.0  0.9172  0.9107999999999999  0.8119  1.0000
  H   H67       1.0  0.9320999999999999  0.9075  0.8422  1.0000
  C   C184      1.0  0.9152999999999998  0.8536  0.7411  1.0000
  H   H68       1.0  0.9286  0.8079  0.7197  1.0000
  C   C185      1.0  0.89181  0.8739999999999998  0.7085  1.0000
  C   C186      1.0  0.8806999999999999  0.8238999999999999  0.6366  1.0000
  C   C187      1.0  0.8933  0.019799999999999998  0.1502  1.0000
  C   C188      1.0  0.8855999999999998  0.9710999999999999  0.2248  1.0000
  C   C189      1.0  0.8626  0.9934999999999999  0.2599  1.0000
  H   H69       1.0  0.8499999999999999  0.0441  0.24009999999999998  1.0000
  C   C190      1.0  0.8594  0.9337  0.3289  1.0000
  H   H70       1.0  0.8445  0.9405999999999999  0.3595  1.0000
  C   C191      1.0  0.8802299999999997  0.8648999999999999  0.3459  1.0000
  C   C192      1.0  0.8832  0.7884  0.4114  1.0000
  C   C193      1.0  0.8278  0.3698  0.9116999999999998  1.0000
  C   C194      1.0  0.8378  0.4215999999999999  0.8394  1.0000
  C   C195      1.0  0.8617  0.3999999999999999  0.8071  1.0000
  H   H71       1.0  0.8747  0.3533  0.8288  1.0000
  C   C196      1.0  0.8642  0.458  0.7358  1.0000
  H   H72       1.0  0.8793  0.4546  0.7058  1.0000
  C   C197      1.0  0.8425  0.5183999999999999  0.7166  1.0000
  C   C198      1.0  0.8375  0.5875  0.6473  1.0000
  C   C199      1.0  0.7872  0.08179999999999998  0.1333  1.0000
  C   C200      1.0  0.7771  0.0347  0.2061  1.0000
  C   C201      1.0  0.7524  0.04619999999999999  0.2353  1.0000
  H   H73       1.0  0.7387999999999998  0.0857  0.2112  1.0000
  C   C202      1.0  0.7502  0.991  0.3067  1.0000
  H   H74       1.0  0.7346999999999999  0.9879  0.3345  1.0000
  C   C203      1.0  0.7729  0.9432999999999998  0.3303  1.0000
  C   C204      1.0  0.7785  0.888  0.4059  1.0000
  C   C205      1.0  0.7851999999999999  0.1253  0.9092000000000001  1.0000
  C   C206      1.0  0.78858  0.0454  0.8444  1.0000
  C   C207      1.0  0.8096999999999999  0.9785  0.8281  1.0000
  H   H75       1.0  0.8245999999999998  0.9739  0.8586  1.0000
  C   C208      1.0  0.8067  0.9168  0.7596  1.0000
  H   H76       1.0  0.8194999999999998  0.8675  0.7395  1.0000
  C   C209      1.0  0.7832  0.936  0.7261  1.0000
  C   C210      1.0  0.7745999999999998  0.8895  0.6507  1.0000
  C   C211      1.0  0.8409  0.5428  0.4085  1.0000
  C   C212      1.0  0.8309  0.49579999999999996  0.3337  1.0000
  C   C213      1.0  0.8069  0.5155999999999998  0.3022  1.0000
  H   H77       1.0  0.794  0.5626  0.3238  1.0000
  C   C214      1.0  0.8043  0.45649999999999996  0.23309999999999997  1.0000
  H   H78       1.0  0.789  0.4588  0.2039  1.0000
  C   C215      1.0  0.8263  0.3947  0.2127  1.0000
  C   C216      1.0  0.8305999999999999  0.3244  0.1437  1.0000
  O   O112      1.0  0.9671599999999998  0.0414  0.9381000000000002  1.0000
  O   O113      1.0  0.00543  0.13019999999999998  0.9631  1.0000
  O   O114      1.0  0.9872599999999998  0.8286  0.6388  1.0000
  O   O115      1.0  0.02671  0.8915  0.6055  1.0000
  O   O116      1.0  0.9686199999999999  0.3068  0.9616000000000001  1.0000
  O   O117      1.0  0.92932  0.2659  0.9179  1.0000
  O   O118      1.0  0.9578199999999998  0.6114999999999999  0.6183  1.0000
  O   O119      1.0  0.9184499999999999  0.5342  0.634  1.0000
  O   O120      1.0  0.97646  0.3727  0.12229999999999999  1.0000
  O   O121      1.0  0.93565  0.3043  0.1032  1.0000
  O   O122      1.0  0.9683  0.6322  0.4124  1.0000
  O   O123      1.0  0.9336199999999999  0.5426  0.4647  1.0000
  O   O124      1.0  0.90778  0.0219  0.9544  1.0000
  O   O125      1.0  0.8686799999999999  0.08179999999999998  0.9128  1.0000
  O   O126      1.0  0.89754  0.7674999999999998  0.5958  1.0000
  O   O127      1.0  0.8571199999999999  0.8365999999999999  0.6224  1.0000
  O   O128      1.0  0.91731  0.026799999999999994  0.1325  1.0000
  O   O129      1.0  0.87499  0.0494  0.1079  1.0000
  O   O130      1.0  0.89066  0.24809999999999996  0.0259  1.0000
  O   O131      1.0  0.8642  0.7711999999999998  0.4559  1.0000
  O   O132      1.0  0.8438  0.31559999999999994  0.9517  1.0000
  O   O133      1.0  0.804  0.3898  0.9270999999999999  1.0000
  O   O134      1.0  0.85498  0.5882  0.5957  1.0000
  O   O135      1.0  0.8165  0.6422999999999999  0.6401  1.0000
  O   O136      1.0  0.81122  0.0649  0.11850000000000001  1.0000
  O   O137      1.0  0.77117  0.1368  0.0929  1.0000
  O   O138      1.0  0.7993399999999999  0.8353999999999998  0.4156  1.0000
  O   O139      1.0  0.76067  0.9031999999999999  0.45469999999999994  1.0000
  O   O140      1.0  0.80406  0.1381  0.9555  1.0000
  O   O141      1.0  0.76386  0.1783  0.9178  1.0000
  O   O142      1.0  0.7513499999999999  0.8787999999999999  0.6356  1.0000
  O   O143      1.0  0.79359  0.8685999999999998  0.6061  1.0000
  O   O144      1.0  0.86416  0.5203  0.4257  1.0000
  O   O145      1.0  0.8241699999999998  0.5982999999999999  0.4475  1.0000
  O   O146      1.0  0.85249  0.2752  0.1361  1.0000
  O   O147      1.0  0.8124899999999999  0.3137  0.0967  1.0000
  O   O148      1.0  0.9050399999999998  0.7372999999999997  0.4215  1.0000
  S   S28       1.0  0.98441  0.9478  0.78661  1.0000
  S   S29       1.0  0.93169  0.4091  0.77872  1.0000
  S   S30       1.0  0.96409  0.4992  0.26496  1.0000
  S   S31       1.0  0.8717599999999999  0.9605999999999999  0.7631  1.0000
  S   S32       1.0  0.90438  0.8763  0.27784  1.0000
  S   S33       1.0  0.81854  0.5097  0.78439  1.0000
  S   S34       1.0  0.79744  0.9583  0.26526  1.0000
  S   S35       1.0  0.7643299999999998  0.030499999999999996  0.77784  1.0000
  S   S36       1.0  0.85031  0.4085  0.27923  1.0000
  Nd  Nd19      1.0  0.0112  0.30697  0.03209  1.0000
  Nd  Nd20      1.0  0.93724  0.13469999999999996  0.02607  1.0000
  Nd  Nd21      1.0  0.84426  0.13834  0.02713  1.0000
  Nd  Nd22      1.0  0.7731  0.31775  0.02384  1.0000
  Nd  Nd23      1.0  0.8939  0.59001  0.52216  1.0000
  Nd  Nd24      1.0  0.8234  0.76959  0.52743  1.0000
  H   H79       1.0  0.8865  0.278  0.068  1.0000
  H   H80       1.0  0.8937  0.302  0.9940000000000001  1.0000
