data_image0
_chemical_formula_structural       Sm2CHC2HC2HC3HC2HC2HC3HCHC2HC3N3O12Sm2CHC2HC2HC3HC2HC2HC3HCHC2HC3N3O12
_chemical_formula_sum              "Sm4 C42 H18 N6 O24"
_cell_length_a       8.8475
_cell_length_b       10.716
_cell_length_c       18.895
_cell_angle_alpha    75.521
_cell_angle_beta     83.777
_cell_angle_gamma    69.306

_symmetry_space_group_name_H-M    'P 1'
_symmetry_Int_Tables_number       1

loop_
  _symmetry_equiv_pos_as_xyz
  'x,y,z'

loop_
  _atom_site_type_symbol
  _atom_site_label
  _atom_site_symmetry_multiplicity
  _atom_site_fract_x
  _atom_site_fract_y
  _atom_site_fract_z
  _atom_site_occupancy
  Sm  Sm1       1.0  0.0022000000000000244  0.412  0.28695  1.0000
  Sm  Sm2       1.0  0.3965499999999999  0.53203  0.22374999999999998  1.0000
  C   C1        1.0  0.5259999999999999  0.31419999999999987  0.4395  1.0000
  H   H1        1.0  0.5574  0.2924  0.3943  1.0000
  C   C2        1.0  0.36140000000000005  0.3714  0.4544  1.0000
  C   C3        1.0  0.312  0.40339999999999987  0.5214  1.0000
  H   H2        1.0  0.20289999999999994  0.44140000000000007  0.5329  1.0000
  C   C4        1.0  0.4316  0.37700000000000006  0.5721  1.0000
  C   C5        1.0  0.5915  0.3192  0.5528  1.0000
  H   H3        1.0  0.6694000000000001  0.2999  0.587  1.0000
  C   C6        1.0  0.24429999999999996  0.4001  0.3961  1.0000
  C   C7        1.0  0.3856999999999999  0.4163000000000001  0.6439  1.0000
  C   C8        1.0  0.9004999999999999  0.6914  0.9162  1.0000
  H   H4        1.0  0.9368000000000001  0.7134999999999998  0.8682  1.0000
  C   C9        1.0  0.7695000000000001  0.6430999999999998  0.9297  1.0000
  C   C10       1.0  0.7105  0.6154  0.001  1.0000
  H   H5        1.0  0.6204999999999998  0.5877  0.0112  1.0000
  C   C11       1.0  0.7892999999999997  0.6301  0.056900000000000006  1.0000
  C   C12       1.0  0.9220999999999999  0.6763  0.0371  1.0000
  H   H6        1.0  0.9755999999999998  0.6856  0.0741  1.0000
  C   C13       1.0  0.7447999999999997  0.5922000000000001  0.136  1.0000
  C   C14       1.0  0.7007999999999999  0.6120000000000001  0.8702  1.0000
  C   C15       1.0  0.6320999999999999  0.07229999999999999  0.24390000000000003  1.0000
  H   H7        1.0  0.5342  0.14400000000000002  0.24199999999999997  1.0000
  C   C16       1.0  0.7728  0.8476  0.2457  1.0000
  H   H8        1.0  0.7733000000000001  0.761  0.2449  1.0000
  C   C17       1.0  0.9181999999999999  0.8644  0.24979999999999997  1.0000
  C   C18       1.0  0.9181  0.9941999999999999  0.24889999999999998  1.0000
  H   H9        1.0  0.015199999999999991  0.009500000000000008  0.2492  1.0000
  C   C19       1.0  0.7724999999999997  0.1011  0.24750000000000003  1.0000
  C   C20       1.0  0.7629  0.2441  0.2479  1.0000
  C   C21       1.0  0.07240000000000006  0.7422999999999998  0.254  1.0000
  N   N1        1.0  0.6418  0.28869999999999996  0.48699999999999993  1.0000
  N   N2        1.0  0.9751  0.7070999999999998  0.9693  1.0000
  N   N3        1.0  0.6277  0.9511  0.2429  1.0000
  O   O1        1.0  0.0946  0.42929999999999996  0.4113  1.0000
  O   O2        1.0  0.29679999999999984  0.3937  0.3315  1.0000
  O   O3        1.0  0.23409999999999997  0.4605  0.6601  1.0000
  O   O4        1.0  0.4946999999999999  0.41039999999999993  0.6826  1.0000
  O   O5        1.0  0.8514999999999999  0.5557  0.1805  1.0000
  O   O6        1.0  0.5978999999999998  0.602  0.1504  1.0000
  O   O7        1.0  0.5676  0.5893  0.8812  1.0000
  O   O8        1.0  0.7802000000000001  0.6015999999999998  0.8105  1.0000
  O   O9        1.0  0.6242  0.3268999999999999  0.2565  1.0000
  O   O10       1.0  0.8925  0.2677999999999999  0.24129999999999996  1.0000
  O   O11       1.0  0.2043  0.7592  0.2535  1.0000
  O   O12       1.0  0.06270000000000002  0.6292  0.2556  1.0000
  Sm  Sm3       1.0  0.9977999999999998  0.588  0.71305  1.0000
  Sm  Sm4       1.0  0.6034499999999996  0.46797000000000005  0.77625  1.0000
  C   C22       1.0  0.474  0.6858  0.5605  1.0000
  H   H10       1.0  0.44260000000000005  0.7076  0.6057  1.0000
  C   C23       1.0  0.6386  0.6286  0.5456  1.0000
  C   C24       1.0  0.6879999999999996  0.5966000000000001  0.4786  1.0000
  H   H11       1.0  0.7971  0.5586  0.46710000000000007  1.0000
  C   C25       1.0  0.5684000000000001  0.623  0.42789999999999995  1.0000
  C   C26       1.0  0.40849999999999986  0.6807999999999997  0.44719999999999993  1.0000
  H   H12       1.0  0.33060000000000006  0.7000999999999998  0.413  1.0000
  C   C27       1.0  0.7556999999999999  0.5998999999999999  0.6039  1.0000
  C   C28       1.0  0.6143  0.5837  0.3561  1.0000
  C   C29       1.0  0.09950000000000002  0.3086  0.0838  1.0000
  H   H13       1.0  0.06320000000000002  0.2864999999999999  0.1318  1.0000
  C   C30       1.0  0.2305  0.3569  0.0703  1.0000
  C   C31       1.0  0.28950000000000004  0.38459999999999994  0.999  1.0000
  H   H14       1.0  0.3795  0.4123  0.9888  1.0000
  C   C32       1.0  0.21070000000000008  0.3698999999999999  0.9431000000000002  1.0000
  C   C33       1.0  0.07790000000000001  0.32370000000000004  0.9628999999999999  1.0000
  H   H15       1.0  0.02439999999999999  0.31439999999999996  0.9259  1.0000
  C   C34       1.0  0.25520000000000004  0.40779999999999994  0.864  1.0000
  C   C35       1.0  0.2992  0.388  0.1298  1.0000
  C   C36       1.0  0.3679  0.9276999999999999  0.7561  1.0000
  H   H16       1.0  0.46580000000000005  0.8559999999999999  0.758  1.0000
  C   C37       1.0  0.22720000000000004  0.1524  0.7543  1.0000
  H   H17       1.0  0.22669999999999996  0.23900000000000002  0.7551  1.0000
  C   C38       1.0  0.08180000000000001  0.13559999999999997  0.7502  1.0000
  C   C39       1.0  0.0819  0.005800000000000015  0.7511  1.0000
  H   H18       1.0  0.9848000000000001  0.9904999999999998  0.7508  1.0000
  C   C40       1.0  0.2275  0.8989  0.7525  1.0000
  C   C41       1.0  0.23710000000000014  0.7559  0.7521  1.0000
  C   C42       1.0  0.9276  0.25770000000000004  0.746  1.0000
  N   N4        1.0  0.35819999999999985  0.7112999999999999  0.513  1.0000
  N   N5        1.0  0.024899999999999985  0.2929  0.0307  1.0000
  N   N6        1.0  0.3723  0.04890000000000001  0.7571  1.0000
  O   O13       1.0  0.9053999999999999  0.5707  0.5887  1.0000
  O   O14       1.0  0.7032  0.6063  0.6685  1.0000
  O   O15       1.0  0.7659  0.5395  0.3399  1.0000
  O   O16       1.0  0.5052999999999999  0.5896  0.3174  1.0000
  O   O17       1.0  0.14849999999999997  0.4443  0.8195  1.0000
  O   O18       1.0  0.4021  0.39799999999999996  0.8496  1.0000
  O   O19       1.0  0.43239999999999995  0.41069999999999995  0.11879999999999999  1.0000
  O   O20       1.0  0.21980000000000002  0.3984  0.1895  1.0000
  O   O21       1.0  0.3758  0.6731  0.7435  1.0000
  O   O22       1.0  0.10750000000000004  0.7321999999999997  0.7587  1.0000
  O   O23       1.0  0.7957  0.2408  0.7465  1.0000
  O   O24       1.0  0.9373  0.37079999999999996  0.7444  1.0000
