data_image0
_chemical_formula_structural       Mn5CN8C2N8CN16Cl2C4Mn5CN8C2N8CN16Cl2C4Mn5CN8C2N8CN16Cl2C4Mn5CN8C2N8CN16Cl2C19OC4H24C15OC4H24C15OC4H24C15OC4H24C15OC4H24C15OC4H24C15OC4H24C15OC4H24C15OC4H24C15OC4H24C15OC4H24C15OC4H24C15OC4H24C15OC4H24C15OC4H24C15OC4H24
_chemical_formula_sum              "Mn20 C336 N128 Cl8 O16 H384"
_cell_length_a       15.6379
_cell_length_b       34.5526
_cell_length_c       36.858
_cell_angle_alpha    118.8272
_cell_angle_beta     92.4199
_cell_angle_gamma    88.3039

_space_group_name_H-M_alt    "P 1"
_space_group_IT_number       1

loop_
  _space_group_symop_operation_xyz
  'x, y, z'

loop_
  _atom_site_type_symbol
  _atom_site_label
  _atom_site_symmetry_multiplicity
  _atom_site_fract_x
  _atom_site_fract_y
  _atom_site_fract_z
  _atom_site_occupancy
  Mn  Mn1       1.0  0.56247  0.15042  0.36107  1.0000
  Mn  Mn2       1.0  0.75201  0.17342  0.41887  1.0000
  Mn  Mn3       1.0  0.90249  0.42162999999999995  0.66118  1.0000
  Mn  Mn4       1.0  0.70925  0.37262999999999996  0.61852  1.0000
  Mn  Mn5       1.0  0.72809  0.27025  0.52099  1.0000
  C   C1        1.0  0.68063  0.17784  0.3129  1.0000
  N   N1        1.0  0.66623  0.1686  0.34368  1.0000
  N   N2        1.0  0.74052  0.17169  0.36296  1.0000
  N   N3        1.0  0.80134  0.17854  0.34311  1.0000
  N   N4        1.0  0.7656499999999999  0.18314000000000005  0.3121200000000001  1.0000
  N   N5        1.0  0.88036  0.2371800000000001  0.4210000000000001  1.0000
  N   N6        1.0  0.8232300000000002  0.22851000000000005  0.44157000000000013  1.0000
  N   N7        1.0  0.8041900000000002  0.26494  0.47571  1.0000
  N   N8        1.0  0.84827  0.29846  0.47877  1.0000
  C   C2        1.0  0.8946000000000002  0.28102  0.44438  1.0000
  C   C3        1.0  0.80426  0.15687  0.52105  1.0000
  N   N9        1.0  0.76462  0.17334999999999998  0.47448  1.0000
  N   N10       1.0  0.79371  0.13967000000000002  0.4794000000000001  1.0000
  N   N11       1.0  0.62902  0.24137999999999998  0.47773  1.0000
  N   N12       1.0  0.64679  0.21229  0.43902  1.0000
  N   N13       1.0  0.57979  0.20653000000000005  0.4143000000000001  1.0000
  N   N14       1.0  0.5170700000000003  0.23278  0.43512  1.0000
  N   N15       1.0  0.76084  0.2094  0.51105  1.0000
  N   N16       1.0  0.7837800000000003  0.20019999999999996  0.54081  1.0000
  C   C4        1.0  0.54551  0.25343999999999994  0.47497  1.0000
  N   N17       1.0  0.82802  0.3997399999999999  0.69083  1.0000
  N   N18       1.0  0.7538900000000003  0.38078000000000006  0.6746300000000002  1.0000
  N   N19       1.0  0.71695  0.37032  0.70034  1.0000
  N   N20       1.0  0.76741  0.38237  0.73396  1.0000
  N   N21       1.0  0.60413  0.31169  0.63038  1.0000
  N   N22       1.0  0.65382  0.3154  0.60455  1.0000
  N   N23       1.0  0.6562100000000001  0.278  0.56919  1.0000
  N   N24       1.0  0.60887  0.24786  0.5715  1.0000
  N   N25       1.0  0.64767  0.33162  0.49659  1.0000
  N   N26       1.0  0.68694  0.32921  0.52776  1.0000
  N   N27       1.0  0.66975  0.36487  0.56286  1.0000
  N   N28       1.0  0.6169  0.39143  0.55582  1.0000
  N   N29       1.0  0.83097  0.30081  0.5632  1.0000
  N   N30       1.0  0.81907  0.34126  0.59453  1.0000
  N   N31       1.0  0.89227  0.36075  0.61125  1.0000
  N   N32       1.0  0.9559  0.33398  0.59269  1.0000
  Cl  Cl1       1.0  0.65497  0.11813999999999998  0.39072  1.0000
  Cl  Cl2       1.0  0.77844  0.4361299999999999  0.63494  1.0000
  C   C5        1.0  0.83703  0.4003699999999999  0.72764  1.0000
  C   C6        1.0  0.5768899999999999  0.26979  0.61005  1.0000
  C   C7        1.0  0.6048  0.37017999999999995  0.51414  1.0000
  C   C8        1.0  0.9195  0.29634  0.56296  1.0000
  Mn  Mn6       1.0  0.01000000000000001  0.6062699999999999  0.36976  1.0000
  Mn  Mn7       1.0  0.2109  0.64918  0.40841  1.0000
  Mn  Mn8       1.0  0.36182  0.84337  0.67737  1.0000
  Mn  Mn9       1.0  0.17413  0.8255299999999999  0.62001  1.0000
  Mn  Mn10      1.0  0.19955999999999996  0.7429800000000001  0.5122  1.0000
  C   C9        1.0  0.06251999999999998  0.64098  0.3125700000000001  1.0000
  N   N33       1.0  0.08309000000000001  0.63157  0.34284  1.0000
  N   N34       1.0  0.15958000000000003  0.6481899999999998  0.35706  1.0000
  N   N35       1.0  0.1876  0.6666899999999998  0.33567  1.0000
  N   N36       1.0  0.12795000000000004  0.6624599999999998  0.30732  1.0000
  N   N37       1.0  0.31313  0.71841  0.40335  1.0000
  N   N38       1.0  0.2693600000000001  0.70824  0.42758  1.0000
  N   N39       1.0  0.26538  0.74276  0.46523  1.0000
  N   N40       1.0  0.30237  0.77695  0.46595  1.0000
  C   C10       1.0  0.33263000000000004  0.7614  0.4275200000000001  1.0000
  C   C11       1.0  0.29624  0.62689  0.50159  1.0000
  N   N41       1.0  0.25514  0.64864  0.4594700000000001  1.0000
  N   N42       1.0  0.28513  0.61321  0.4608  1.0000
  N   N43       1.0  0.09743000000000002  0.7173  0.47149  1.0000
  N   N44       1.0  0.10328000000000001  0.67949  0.43718  1.0000
  N   N45       1.0  0.026450000000000005  0.66449  0.42162  1.0000
  N   N46       1.0  0.9669  0.6929600000000002  0.4440500000000001  1.0000
  N   N47       1.0  0.24665000000000004  0.68182  0.49713999999999997  1.0000
  N   N48       1.0  0.27203  0.66944  0.52473  1.0000
  C   C12       1.0  0.011500000000000002  0.7258  0.47562  1.0000
  N   N49       1.0  0.25929  0.81517  0.68645  1.0000
  N   N50       1.0  0.1848  0.8167999999999997  0.66965  1.0000
  N   N51       1.0  0.12255000000000002  0.8093999999999998  0.68846  1.0000
  N   N52       1.0  0.15705  0.8001  0.71675  1.0000
  N   N53       1.0  0.05995  0.75385  0.60923  1.0000
  N   N54       1.0  0.10694000000000005  0.7699799999999999  0.5906400000000003  1.0000
  N   N55       1.0  0.12762  0.73823  0.55391  1.0000
  N   N56       1.0  0.09229999999999998  0.70079  0.54657  1.0000
  N   N57       1.0  0.14744000000000002  0.8239399999999999  0.50687  1.0000
  N   N58       1.0  0.15926  0.80557  0.53099  1.0000
  N   N59       1.0  0.15998  0.8363099999999999  0.57041  1.0000
  N   N60       1.0  0.14815  0.87565  0.57331  1.0000
  N   N61       1.0  0.29852  0.76953  0.55567  1.0000
  N   N62       1.0  0.28219  0.78921  0.59564  1.0000
  N   N63       1.0  0.35452  0.79722  0.61755  1.0000
  N   N64       1.0  0.42001  0.7849699999999998  0.59292  1.0000
  Cl  Cl3       1.0  0.13773  0.58568  0.38807  1.0000
  Cl  Cl4       1.0  0.26616  0.8821799999999999  0.65611  1.0000
  C   C13       1.0  0.24278000000000002  0.8027299999999999  0.71487  1.0000
  C   C14       1.0  0.05176000000000001  0.71063  0.58145  1.0000
  C   C15       1.0  0.13878  0.86747  0.53367  1.0000
  C   C16       1.0  0.38578  0.7682299999999999  0.55404  1.0000
  Mn  Mn11      1.0  0.18979  0.39804  0.19044000000000005  1.0000
  Mn  Mn12      1.0  0.34287  0.33604  0.12172  1.0000
  Mn  Mn13      1.0  0.34658  0.11022000000000011  0.8591900000000002  1.0000
  Mn  Mn14      1.0  0.17767000000000002  0.1717799999999999  0.91807  1.0000
  Mn  Mn15      1.0  0.2535000000000001  0.26038  0.018790000000000008  1.0000
  C   C17       1.0  0.24379  0.3314  0.21843  1.0000
  N   N65       1.0  0.26238  0.35341999999999996  0.19823  1.0000
  N   N66       1.0  0.3250500000000001  0.33117  0.17365  1.0000
  N   N67       1.0  0.34794000000000014  0.29747000000000007  0.17970000000000005  1.0000
  N   N68       1.0  0.29798000000000013  0.29666999999999993  0.20759  1.0000
  N   N69       1.0  0.42839  0.25134  0.10242  1.0000
  N   N70       1.0  0.37061000000000005  0.2721  0.09058  1.0000
  N   N71       1.0  0.33287  0.24444  0.05529  1.0000
  N   N72       1.0  0.36461  0.20419999999999994  0.04297  1.0000
  C   C18       1.0  0.42286  0.20868000000000003  0.07292  1.0000
  C   C19       1.0  0.36782  0.37153  0.03241  1.0000
  N   N73       1.0  0.356  0.34146  0.06991  1.0000
  N   N74       1.0  0.38304  0.37782  0.0711  1.0000
  N   N75       1.0  0.18036  0.30061  0.06942  1.0000
  N   N76       1.0  0.21712  0.32424000000000003  0.10670000000000002  1.0000
  N   N77       1.0  0.15956  0.34834  0.13379  1.0000
  N   N78       1.0  0.08304  0.3412  0.11603  1.0000
  N   N79       1.0  0.32362  0.31448  0.03247  1.0000
  N   N80       1.0  0.32932  0.33247999999999994  0.00812  1.0000
  C   C20       1.0  0.0952  0.31136  0.07599  1.0000
  N   N81       1.0  0.27005  0.14699  0.84221  1.0000
  N   N82       1.0  0.19850000000000007  0.16445000000000004  0.8614600000000002  1.0000
  N   N83       1.0  0.14131  0.16753000000000004  0.83557  1.0000
  N   N84       1.0  0.1778  0.15474000000000002  0.79962  1.0000
  N   N85       1.0  0.10755999999999995  0.25159  0.91743  1.0000
  N   N86       1.0  0.14499000000000004  0.23657000000000006  0.9410700000000002  1.0000
  N   N87       1.0  0.17417000000000005  0.26985000000000003  0.9766000000000002  1.0000
  N   N88       1.0  0.15682  0.30763  0.9763  1.0000
  N   N89       1.0  0.16632  0.19852  0.03855  1.0000
  N   N90       1.0  0.18303  0.20803  0.0089  1.0000
  N   N91       1.0  0.15635000000000002  0.17599000000000015  0.9728300000000002  1.0000
  N   N92       1.0  0.12001000000000006  0.14482000000000014  0.9776300000000002  1.0000
  N   N93       1.0  0.33077  0.22186  0.97043  1.0000
  N   N94       1.0  0.30069  0.18895999999999996  0.93551  1.0000
  N   N95       1.0  0.36432  0.16609999999999991  0.91211  1.0000
  N   N96       1.0  0.43817  0.18382999999999994  0.92966  1.0000
  Cl  Cl5       1.0  0.30401  0.40808  0.15937  1.0000
  Cl  Cl6       1.0  0.22917  0.10147000000000002  0.89074  1.0000
  C   C21       1.0  0.25943  0.14339999999999994  0.80444  1.0000
  C   C22       1.0  0.11430999999999998  0.29577  0.93951  1.0000
  C   C23       1.0  0.12720999999999996  0.15910999999999995  0.01872  1.0000
  C   C24       1.0  0.41778  0.21881999999999993  0.96618  1.0000
  Mn  Mn16      1.0  0.58512  0.8779499999999998  0.15557  1.0000
  Mn  Mn17      1.0  0.79154  0.84736  0.12474000000000002  1.0000
  Mn  Mn18      1.0  0.03634000000000004  0.63415  0.8873  1.0000
  Mn  Mn19      1.0  0.83008  0.6555699999999998  0.91984  1.0000
  Mn  Mn20      1.0  0.80321  0.7501599999999998  0.02239  1.0000
  C   C25       1.0  0.65844  0.85674  0.22238  1.0000
  N   N97       1.0  0.6685600000000004  0.8612799999999998  0.18861000000000003  1.0000
  N   N98       1.0  0.74712  0.8478199999999999  0.1765  1.0000
  N   N99       1.0  0.78577  0.8352799999999998  0.20184  1.0000
  N   N100      1.0  0.73183  0.84057  0.231  1.0000
  N   N101      1.0  0.92131  0.7915499999999998  0.13766  1.0000
  N   N102      1.0  0.86565  0.79447  0.11123  1.0000
  N   N103      1.0  0.86546  0.75774  0.07523000000000003  1.0000
  N   N104      1.0  0.9204799999999999  0.72892  0.07725000000000003  1.0000
  C   C26       1.0  0.95445  0.75064  0.11625  1.0000
  C   C27       1.0  0.89101  0.864  0.03196  1.0000
  N   N105      1.0  0.83168  0.84767  0.07339  1.0000
  N   N106      1.0  0.87033  0.88072  0.07220000000000003  1.0000
  N   N107      1.0  0.69113  0.7733300000000002  0.05460000000000002  1.0000
  N   N108      1.0  0.69283  0.80799  0.09246  1.0000
  N   N109      1.0  0.61505  0.81909  0.10661  1.0000
  N   N110      1.0  0.55925  0.79243  0.0791  1.0000
  N   N111      1.0  0.83093  0.81254  0.03639  1.0000
  N   N112      1.0  0.8669600000000001  0.82157  0.00973  1.0000
  C   C28       1.0  0.60526  0.7643  0.04612  1.0000
  N   N113      1.0  0.9445300000000001  0.65052  0.85689  1.0000
  N   N114      1.0  0.86568  0.65929  0.86979  1.0000
  N   N115      1.0  0.81788  0.67029  0.8456800000000002  1.0000
  N   N116      1.0  0.8657799999999999  0.6692400000000001  0.8164100000000002  1.0000
  N   N117      1.0  0.69853  0.7093900000000001  0.9063000000000002  1.0000
  N   N118      1.0  0.7495  0.70647  0.93403  1.0000
  N   N119      1.0  0.74236  0.7422599999999999  0.97014  1.0000
  N   N120      1.0  0.6851900000000002  0.7697  0.9670800000000003  1.0000
  N   N121      1.0  0.72064  0.67121  0.02346  1.0000
  N   N122      1.0  0.77496  0.6855  0.00568  1.0000
  N   N123      1.0  0.79799  0.65192  0.96996  1.0000
  N   N124      1.0  0.7632799999999998  0.6153300000000002  0.9642300000000003  1.0000
  N   N125      1.0  0.9177600000000001  0.7298000000000001  0.9908300000000002  1.0000
  N   N126      1.0  0.92211  0.6958700000000001  0.9530300000000003  1.0000
  N   N127      1.0  0.0007399999999999682  0.6884700000000001  0.93992  1.0000
  N   N128      1.0  0.05143999999999999  0.71822  0.96801  1.0000
  Cl  Cl7       1.0  0.70035  0.90481  0.13915  1.0000
  Cl  Cl8       1.0  0.9298  0.6006799999999998  0.9025  1.0000
  C   C29       1.0  0.94464  0.65704  0.82378  1.0000
  C   C30       1.0  0.658  0.74826  0.92694  1.0000
  C   C31       1.0  0.7144600000000002  0.62697  0.9969700000000001  1.0000
  C   C32       1.0  0.0005299999999999325  0.74444  0.9996500000000001  1.0000
  C   C33       1.0  0.4800400000000002  0.2703  0.50881  1.0000
  C   C34       1.0  0.39661  0.24104  0.4955  1.0000
  C   C35       1.0  0.3377  0.25331  0.46717  1.0000
  C   C36       1.0  0.25732  0.22484000000000007  0.4526900000000001  1.0000
  C   C37       1.0  0.2828  0.17554  0.42916  1.0000
  C   C38       1.0  0.33674  0.16297  0.45806  1.0000
  C   C39       1.0  0.41854  0.19031  0.4729800000000001  1.0000
  C   C40       1.0  0.28555  0.17182  0.49571  1.0000
  C   C41       1.0  0.25961  0.22141999999999998  0.52017  1.0000
  C   C42       1.0  0.20808  0.22921000000000005  0.5588600000000002  1.0000
  C   C43       1.0  0.11257999999999999  0.22214999999999996  0.54944  1.0000
  C   C44       1.0  0.05837  0.25895  0.56235  1.0000
  C   C45       1.0  0.97553  0.25585999999999987  0.54443  1.0000
  C   C46       1.0  0.9536700000000001  0.21567  0.5101  1.0000
  C   C47       1.0  0.0033400000000000014  0.17733  0.49889  1.0000
  O   O1        1.0  0.97483  0.13792000000000001  0.4643  1.0000
  C   C48       1.0  0.03129000000000001  0.10051  0.44803  1.0000
  C   C49       1.0  0.08006  0.18047  0.52155  1.0000
  C   C50       1.0  0.20591999999999996  0.23404999999999998  0.49056  1.0000
  C   C51       1.0  0.34349  0.24968000000000004  0.53385  1.0000
  H   H1        1.0  0.50786  0.27189999999999986  0.53716  1.0000
  H   H2        1.0  0.46275999999999995  0.3048500000000001  0.5167300000000002  1.0000
  H   H3        1.0  0.31858  0.2888100000000001  0.4844400000000001  1.0000
  H   H4        1.0  0.36934000000000006  0.24902  0.43923  1.0000
  H   H5        1.0  0.21743  0.23342999999999997  0.43179  1.0000
  H   H6        1.0  0.31991  0.16882  0.4016  1.0000
  H   H7        1.0  0.22428000000000003  0.15499  0.41777  1.0000
  H   H8        1.0  0.35412  0.12728  0.44095  1.0000
  H   H9        1.0  0.45698  0.17875  0.44529  1.0000
  H   H10       1.0  0.45667  0.18188000000000007  0.4944500000000001  1.0000
  H   H11       1.0  0.32435  0.16189999999999996  0.51597  1.0000
  H   H12       1.0  0.22933  0.15015999999999993  0.48396  1.0000
  H   H13       1.0  0.23242000000000002  0.20749999999999996  0.57161  1.0000
  H   H14       1.0  0.21905000000000002  0.26352  0.58407  1.0000
  H   H15       1.0  0.08321  0.29055  0.58545  1.0000
  H   H16       1.0  0.9001499999999999  0.21387  0.49103  1.0000
  H   H17       1.0  0.09105000000000003  0.1082  0.43759  1.0000
  H   H18       1.0  0.99905  0.07297  0.42085  1.0000
  H   H19       1.0  0.045959999999999994  0.08935  0.47128  1.0000
  H   H20       1.0  0.11781  0.15152000000000004  0.5153  1.0000
  H   H21       1.0  0.14651  0.21448000000000006  0.4785700000000001  1.0000
  H   H22       1.0  0.18662000000000004  0.2695100000000001  0.5073500000000002  1.0000
  H   H23       1.0  0.38299  0.24075999999999997  0.55451  1.0000
  H   H24       1.0  0.32695  0.28543  0.55187  1.0000
  C   C52       1.0  0.97201  0.7693099999999997  0.50587  1.0000
  C   C53       1.0  0.88076  0.76925  0.52146  1.0000
  C   C54       1.0  0.8752900000000001  0.7359499999999999  0.5380100000000002  1.0000
  C   C55       1.0  0.78742  0.73919  0.55678  1.0000
  C   C56       1.0  0.77449  0.7862000000000001  0.59297  1.0000
  C   C57       1.0  0.7778700000000001  0.8197699999999998  0.5768  1.0000
  C   C58       1.0  0.86502  0.8166200000000001  0.55795  1.0000
  C   C59       1.0  0.70733  0.8098699999999996  0.5433  1.0000
  C   C60       1.0  0.71804  0.76212  0.50636  1.0000
  C   C61       1.0  0.64585  0.75031  0.47184  1.0000
  C   C62       1.0  0.5604700000000001  0.7724199999999999  0.4884000000000001  1.0000
  C   C63       1.0  0.50243  0.7544499999999998  0.50439  1.0000
  C   C64       1.0  0.4320000000000001  0.77971  0.52662  1.0000
  C   C65       1.0  0.42143  0.82325  0.5333  1.0000
  C   C66       1.0  0.4767  0.8410800000000002  0.51657  1.0000
  O   O2        1.0  0.46026000000000006  0.88471  0.52422  1.0000
  C   C67       1.0  0.52294  0.9057399999999997  0.51275  1.0000
  C   C68       1.0  0.54537  0.81488  0.49328  1.0000
  C   C69       1.0  0.7158  0.72899  0.52352  1.0000
  C   C70       1.0  0.80804  0.7586399999999998  0.48777  1.0000
  H   H25       1.0  0.9719999999999999  0.7914699999999998  0.49185  1.0000
  H   H26       1.0  0.015290000000000003  0.78388  0.53346  1.0000
  H   H27       1.0  0.88673  0.70157  0.51307  1.0000
  H   H28       1.0  0.92475  0.74417  0.56261  1.0000
  H   H29       1.0  0.78501  0.7149299999999998  0.56837  1.0000
  H   H30       1.0  0.8252999999999999  0.79363  0.61742  1.0000
  H   H31       1.0  0.71194  0.78875  0.60729  1.0000
  H   H32       1.0  0.7685100000000002  0.8537  0.60293  1.0000
  H   H33       1.0  0.91581  0.82553  0.58272  1.0000
  H   H34       1.0  0.86736  0.8413599999999998  0.54685  1.0000
  H   H35       1.0  0.71008  0.8344900000000001  0.53209  1.0000
  H   H36       1.0  0.64476  0.81403  0.55805  1.0000
  H   H37       1.0  0.66601  0.76028  0.44896  1.0000
  H   H38       1.0  0.63723  0.7139599999999999  0.45368  1.0000
  H   H39       1.0  0.51486  0.7222  0.50177  1.0000
  H   H40       1.0  0.37111  0.84419  0.55296  1.0000
  H   H41       1.0  0.58437  0.90861  0.53014  1.0000
  H   H42       1.0  0.5000000000000002  0.9394899999999999  0.52079  1.0000
  H   H43       1.0  0.5322  0.88763  0.47879  1.0000
  H   H44       1.0  0.5907  0.8278999999999997  0.4807  1.0000
  H   H45       1.0  0.65295  0.7310000000000001  0.5373800000000002  1.0000
  H   H46       1.0  0.7238800000000002  0.6945399999999998  0.49808  1.0000
  H   H47       1.0  0.81152  0.7819399999999999  0.47506  1.0000
  H   H48       1.0  0.81661  0.7247899999999998  0.46153  1.0000
  C   C71       1.0  0.48481000000000013  0.24889  0.9972  1.0000
  C   C72       1.0  0.5802  0.24013  0.98339  1.0000
  C   C73       1.0  0.6127500000000001  0.1927000000000001  0.9725600000000002  1.0000
  C   C74       1.0  0.7072899999999999  0.18664  0.96021  1.0000
  C   C75       1.0  0.71595  0.19416000000000003  0.92251  1.0000
  C   C76       1.0  0.6869600000000002  0.24163  0.9339  1.0000
  C   C77       1.0  0.59236  0.24847  0.94602  1.0000
  C   C78       1.0  0.74288  0.27492  0.97057  1.0000
  C   C79       1.0  0.7340700000000002  0.26777999999999996  0.008839999999999959  1.0000
  C   C80       1.0  0.78727  0.30125  0.04742  1.0000
  C   C81       1.0  0.87401  0.3125  0.03846  1.0000
  C   C82       1.0  0.94965  0.29378  0.04568  1.0000
  C   C83       1.0  0.029900000000000038  0.31158  0.0465  1.0000
  C   C84       1.0  0.032819999999999995  0.34812  0.039680000000000014  1.0000
  C   C85       1.0  0.95868  0.3674  0.03279999999999994  1.0000
  O   O3        1.0  0.9678200000000001  0.40786  0.032850000000000046  1.0000
  C   C86       1.0  0.89267  0.43275  0.03414999999999991  1.0000
  C   C87       1.0  0.8792400000000002  0.34853999999999996  0.03106  1.0000
  C   C88       1.0  0.76314  0.21993999999999997  0.9968900000000002  1.0000
  C   C89       1.0  0.63784  0.27339  0.02013  1.0000
  H   H49       1.0  0.48107  0.24684999999999999  0.02607  1.0000
  H   H50       1.0  0.46844  0.28317000000000003  0.0043999999999999595  1.0000
  H   H51       1.0  0.6061  0.18698000000000006  0.99948  1.0000
  H   H52       1.0  0.57612  0.16647999999999988  0.94644  1.0000
  H   H53       1.0  0.7289900000000002  0.1525200000000001  0.95194  1.0000
  H   H54       1.0  0.67635  0.1699400000000001  0.8958200000000002  1.0000
  H   H55       1.0  0.78356  0.1888  0.9128  1.0000
  H   H56       1.0  0.69419  0.247  0.90677  1.0000
  H   H57       1.0  0.55248  0.22599999999999992  0.91868  1.0000
  H   H58       1.0  0.57211  0.2828099999999999  0.95419  1.0000
  H   H59       1.0  0.7232300000000003  0.30911  0.97816  1.0000
  H   H60       1.0  0.81055  0.2700899999999999  0.96088  1.0000
  H   H61       1.0  0.75013  0.33265000000000006  0.06382000000000003  1.0000
  H   H62       1.0  0.79492  0.28908  0.07038  1.0000
  H   H63       1.0  0.94532  0.26929  0.05592000000000001  1.0000
  H   H64       1.0  0.09241  0.36573000000000006  0.045500000000000096  1.0000
  H   H65       1.0  0.8538100000000002  0.4148700000000001  0.005000000000000116  1.0000
  H   H66       1.0  0.9123600000000001  0.46465999999999996  0.03713000000000011  1.0000
  H   H67       1.0  0.8551400000000001  0.4401900000000002  0.06174000000000013  1.0000
  H   H68       1.0  0.82042  0.36344999999999994  0.026980000000000004  1.0000
  H   H69       1.0  0.8315400000000001  0.2149299999999999  0.98835  1.0000
  H   H70       1.0  0.75762  0.21367  0.02362  1.0000
  H   H71       1.0  0.61624  0.3077499999999999  0.029010000000000008  1.0000
  H   H72       1.0  0.63051  0.26866  0.04766  1.0000
  C   C90       1.0  0.035940000000000076  0.7839  0.03839  1.0000
  C   C91       1.0  0.1338  0.78036  0.047140000000000015  1.0000
  C   C92       1.0  0.16115000000000002  0.8200299999999999  0.08952  1.0000
  C   C93       1.0  0.25782  0.8163  0.09891  1.0000
  C   C94       1.0  0.27542  0.77296  0.10034000000000003  1.0000
  C   C95       1.0  0.24839000000000003  0.7335099999999999  0.0585  1.0000
  C   C96       1.0  0.1529  0.7371299999999997  0.04949  1.0000
  C   C97       1.0  0.29965  0.73312  0.02364  1.0000
  C   C98       1.0  0.28626  0.77725  0.0218  1.0000
  C   C99       1.0  0.3370899999999998  0.77778  0.98602  1.0000
  C   C100      1.0  0.4194  0.75147  0.97695  1.0000
  C   C101      1.0  0.49139000000000005  0.77038  0.00212  1.0000
  C   C102      1.0  0.55806  0.7440199999999999  0.00547  1.0000
  C   C103      1.0  0.5586  0.6986199999999999  0.97704  1.0000
  C   C104      1.0  0.49001  0.67925  0.94826  1.0000
  O   O4        1.0  0.49334999999999996  0.63321  0.9212300000000002  1.0000
  C   C105      1.0  0.41967  0.61254  0.89527  1.0000
  C   C106      1.0  0.41929000000000005  0.70611  0.94928  1.0000
  C   C107      1.0  0.31215  0.81639  0.0648  1.0000
  C   C108      1.0  0.18977  0.78261  0.013980000000000003  1.0000
  H   H73       1.0  0.0005100000000002327  0.7885099999999999  0.0653999999999999  1.0000
  H   H74       1.0  0.025109999999999962  0.81409  0.03568  1.0000
  H   H75       1.0  0.14855  0.8517  0.08914000000000002  1.0000
  H   H76       1.0  0.12265000000000002  0.8210899999999998  0.11465  1.0000
  H   H77       1.0  0.27628  0.84471  0.12943  1.0000
  H   H78       1.0  0.23954999999999999  0.7729  0.12553000000000006  1.0000
  H   H79       1.0  0.34449  0.7699299999999999  0.10717  1.0000
  H   H80       1.0  0.26063  0.70228  0.059740000000000015  1.0000
  H   H81       1.0  0.11514000000000002  0.73678  0.07407  1.0000
  H   H82       1.0  0.13456  0.70711  0.0204  1.0000
  H   H83       1.0  0.27936  0.7045399999999999  0.9935800000000001  1.0000
  H   H84       1.0  0.36812  0.72804  0.02968  1.0000
  H   H85       1.0  0.29765999999999987  0.7643800000000002  0.9567800000000002  1.0000
  H   H86       1.0  0.35083  0.8122799999999999  0.9935300000000001  1.0000
  H   H87       1.0  0.49008000000000007  0.8055999999999998  0.02327  1.0000
  H   H88       1.0  0.60927  0.67772  0.97807  1.0000
  H   H89       1.0  0.3636  0.61645  0.91435  1.0000
  H   H90       1.0  0.43241  0.5767  0.87587  1.0000
  H   H91       1.0  0.40523  0.62617  0.87388  1.0000
  H   H92       1.0  0.36174  0.6920799999999998  0.93067  1.0000
  H   H93       1.0  0.38099  0.81376  0.07213000000000003  1.0000
  H   H94       1.0  0.30272  0.84844  0.06483000000000003  1.0000
  H   H95       1.0  0.17416000000000004  0.75703  0.9821900000000002  1.0000
  H   H96       1.0  0.1782  0.81472  0.01438  1.0000
  C   C109      1.0  0.13631  0.90279  0.52088  1.0000
  C   C110      1.0  0.05691999999999999  0.9343  0.53487  1.0000
  C   C111      1.0  0.97362  0.90914  0.51279  1.0000
  C   C112      1.0  0.89654  0.9416900000000001  0.5257300000000001  1.0000
  C   C113      1.0  0.88682  0.96317  0.5730000000000002  1.0000
  C   C114      1.0  0.96914  0.9883399999999999  0.59527  1.0000
  C   C115      1.0  0.04617000000000001  0.9563599999999999  0.58251  1.0000
  C   C116      1.0  0.98406  0.024560000000000012  0.58359  1.0000
  C   C117      1.0  0.99295  0.004529999999999689  0.53591  1.0000
  C   C118      1.0  0.009659999999999997  0.04044000000000003  0.52246  1.0000
  C   C119      1.0  0.95769  0.08309  0.54399  1.0000
  C   C120      1.0  0.89616  0.09546999999999996  0.52213  1.0000
  C   C121      1.0  0.85273  0.13635  0.54285  1.0000
  C   C122      1.0  0.86574  0.16241  0.5858  1.0000
  C   C123      1.0  0.92843  0.15181999999999995  0.60741  1.0000
  O   O5        1.0  0.94033  0.18188000000000004  0.64989  1.0000
  C   C124      1.0  0.999  0.1702299999999999  0.67374  1.0000
  C   C125      1.0  0.97778  0.11328999999999995  0.58567  1.0000
  C   C126      1.0  0.91086  0.97806  0.51356  1.0000
  C   C127      1.0  0.06972000000000003  0.9712599999999999  0.52286  1.0000
  H   H97       1.0  0.19568  0.92246  0.53383  1.0000
  H   H98       1.0  0.13973  0.88658  0.48653  1.0000
  H   H99       1.0  0.9795399999999999  0.8927699999999997  0.47856  1.0000
  H   H100      1.0  0.96227  0.88286  0.52124  1.0000
  H   H101      1.0  0.83726  0.92329  0.50978  1.0000
  H   H102      1.0  0.87441  0.93745  0.58199  1.0000
  H   H103      1.0  0.8310100000000001  0.9863  0.58257  1.0000
  H   H104      1.0  0.9622  0.003679999999999653  0.62932  1.0000
  H   H105      1.0  0.03389000000000002  0.93133  0.5922800000000003  1.0000
  H   H106      1.0  0.10536000000000004  0.9743299999999999  0.59924  1.0000
  H   H107      1.0  0.04323  0.04240000000000003  0.60021  1.0000
  H   H108      1.0  0.92877  0.04779000000000002  0.5945  1.0000
  H   H109      1.0  0.0784  0.04963  0.52828  1.0000
  H   H110      1.0  0.99927  0.025409999999999995  0.48829  1.0000
  H   H111      1.0  0.8855300000000003  0.07466  0.48908  1.0000
  H   H112      1.0  0.83066  0.19315000000000004  0.6027400000000003  1.0000
  H   H113      1.0  0.97933  0.13917000000000004  0.67294  1.0000
  H   H114      1.0  0.99881  0.19705999999999993  0.70634  1.0000
  H   H115      1.0  0.06465  0.16698999999999994  0.66232  1.0000
  H   H116      1.0  0.03172000000000002  0.10635000000000014  0.6009000000000002  1.0000
  H   H117      1.0  0.85409  0.0004899999999999806  0.52171  1.0000
  H   H118      1.0  0.9167  0.96227  0.47932  1.0000
  H   H119      1.0  0.12984000000000007  0.98928  0.5381200000000003  1.0000
  H   H120      1.0  0.07784000000000006  0.95604  0.48878  1.0000
  C   C128      1.0  0.10878  0.13256  0.03998  1.0000
  C   C129      1.0  0.08634000000000001  0.08289000000000013  0.012070000000000247  1.0000
  C   C130      1.0  0.99571  0.07782999999999991  0.99131  1.0000
  C   C131      1.0  0.9722200000000001  0.02850999999999999  0.96633  1.0000
  C   C132      1.0  0.03795000000000001  0.004550000000000069  0.9321800000000002  1.0000
  C   C133      1.0  0.12832000000000002  0.008719999999999856  0.95225  1.0000
  C   C134      1.0  0.15331000000000006  0.05753000000000008  0.9780800000000002  1.0000
  C   C135      1.0  0.12901  0.98758  0.98043  1.0000
  C   C136      1.0  0.06363999999999999  0.011160000000000059  0.01549  1.0000
  C   C137      1.0  0.06698  0.9915799999999999  0.04599  1.0000
  C   C138      1.0  0.04833  0.9426  0.02636  1.0000
  C   C139      1.0  0.9742499999999998  0.92768  0.03614  1.0000
  C   C140      1.0  0.9574000000000001  0.8822799999999998  0.0172  1.0000
  C   C141      1.0  0.011649999999999936  0.85245  0.98624  1.0000
  C   C142      1.0  0.08844  0.8661399999999998  0.97847  1.0000
  O   O6        1.0  0.14229  0.8332399999999999  0.94939  1.0000
  C   C143      1.0  0.22256  0.8458799999999999  0.9414300000000001  1.0000
  C   C144      1.0  0.10855000000000004  0.9112499999999998  0.00063  1.0000
  C   C145      1.0  0.9728700000000001  0.0078100000000000695  0.99547  1.0000
  C   C146      1.0  0.08638  0.061  0.04047  1.0000
  H   H121      1.0  0.16696  0.1346  0.05923  1.0000
  H   H122      1.0  0.05648999999999999  0.1496  0.06187000000000009  1.0000
  H   H123      1.0  0.94704  0.09569  0.015130000000000088  1.0000
  H   H124      1.0  0.9934999999999999  0.09233  0.97013  1.0000
  H   H125      1.0  0.90732  0.025259999999999998  0.95167  1.0000
  H   H126      1.0  0.036739999999999995  0.019030000000000085  0.91096  1.0000
  H   H127      1.0  0.020880000000000017  0.9691000000000002  0.9131700000000003  1.0000
  H   H128      1.0  0.17530999999999997  0.9911600000000003  0.9274900000000003  1.0000
  H   H129      1.0  0.15786000000000003  0.07055000000000017  0.9561500000000003  1.0000
  H   H130      1.0  0.21820000000000006  0.060089999999999893  0.99264  1.0000
  H   H131      1.0  0.19468  0.9888999999999999  0.9938400000000001  1.0000
  H   H132      1.0  0.11163000000000001  0.95256  0.96013  1.0000
  H   H133      1.0  0.1314900000000001  0.9971599999999999  0.06149  1.0000
  H   H134      1.0  0.021309999999999996  0.010510000000000023  0.07108  1.0000
  H   H135      1.0  0.93103  0.9511  0.05885  1.0000
  H   H136      1.0  0.9979800000000001  0.8174499999999999  0.9700900000000001  1.0000
  H   H137      1.0  0.21300000000000002  0.86951  0.92921  1.0000
  H   H138      1.0  0.25517  0.8160099999999997  0.91751  1.0000
  H   H139      1.0  0.26443  0.86017  0.96987  1.0000
  H   H140      1.0  0.17019  0.9223200000000001  0.9974600000000001  1.0000
  H   H141      1.0  0.95291  0.97275  0.97764  1.0000
  H   H142      1.0  0.92532  0.02544  0.01999  1.0000
  H   H143      1.0  0.1505  0.06471  0.05611  1.0000
  H   H144      1.0  0.03961  0.07857  0.06542  1.0000
  C   C147      1.0  0.53859  0.38174  0.49019  1.0000
  C   C148      1.0  0.5655400000000002  0.4181300000000001  0.4796800000000001  1.0000
  C   C149      1.0  0.6641999999999999  0.41956999999999994  0.47611  1.0000
  C   C150      1.0  0.6863700000000003  0.45635999999999993  0.46597  1.0000
  C   C151      1.0  0.64331  0.44661  0.4241  1.0000
  C   C152      1.0  0.5454299999999999  0.44568  0.42701  1.0000
  C   C153      1.0  0.52194  0.4093100000000001  0.43763000000000013  1.0000
  C   C154      1.0  0.5136499999999999  0.49077000000000004  0.4610300000000001  1.0000
  C   C155      1.0  0.5553500000000001  0.50109  0.50386  1.0000
  C   C156      1.0  0.5247200000000002  0.54681  0.53916  1.0000
  C   C157      1.0  0.4307600000000001  0.55724  0.53576  1.0000
  C   C158      1.0  0.40708  0.58829  0.52282  1.0000
  C   C159      1.0  0.32073  0.59727  0.51831  1.0000
  C   C160      1.0  0.25725  0.5754299999999999  0.52688  1.0000
  C   C161      1.0  0.27897  0.54452  0.54002  1.0000
  O   O7        1.0  0.21109000000000006  0.5241999999999999  0.54827  1.0000
  C   C162      1.0  0.23104999999999998  0.48952  0.55789  1.0000
  C   C163      1.0  0.36647  0.5359000000000002  0.5448100000000002  1.0000
  C   C164      1.0  0.65424  0.50134  0.5006  1.0000
  C   C165      1.0  0.53371  0.46358999999999995  0.51366  1.0000
  H   H145      1.0  0.47791999999999996  0.39084  0.50732  1.0000
  H   H146      1.0  0.52415  0.35077  0.46096  1.0000
  H   H147      1.0  0.69824  0.42627  0.50564  1.0000
  H   H148      1.0  0.6877600000000001  0.3870800000000001  0.4514900000000001  1.0000
  H   H149      1.0  0.75696  0.45725  0.46389000000000014  1.0000
  H   H150      1.0  0.66666  0.41426  0.39928  1.0000
  H   H151      1.0  0.6607100000000001  0.4722299999999999  0.41575  1.0000
  H   H152      1.0  0.51408  0.43877  0.3969  1.0000
  H   H153      1.0  0.54264  0.37663  0.41232  1.0000
  H   H154      1.0  0.4511  0.4083  0.43911  1.0000
  H   H155      1.0  0.44275  0.48966999999999994  0.46151  1.0000
  H   H156      1.0  0.52945  0.51707  0.45329  1.0000
  H   H157      1.0  0.53817  0.54908  0.57  1.0000
  H   H158      1.0  0.56343  0.57323  0.53906  1.0000
  H   H159      1.0  0.45575  0.60504  0.51569  1.0000
  H   H160      1.0  0.19028000000000003  0.58215  0.52303  1.0000
  H   H161      1.0  0.26517  0.46204  0.53201  1.0000
  H   H162      1.0  0.17043  0.47648  0.56208  1.0000
  H   H163      1.0  0.26966  0.50216  0.5873  1.0000
  H   H164      1.0  0.3849000000000001  0.5142900000000001  0.5573100000000002  1.0000
  H   H165      1.0  0.67291  0.52787  0.4937  1.0000
  H   H166      1.0  0.68631  0.5083  0.53063  1.0000
  H   H167      1.0  0.46358999999999995  0.4614999999999999  0.51492  1.0000
  H   H168      1.0  0.5623800000000001  0.4704999999999999  0.54433  1.0000
  C   C166      1.0  0.3690000000000001  0.4084399999999999  0.022110000000000074  1.0000
  C   C167      1.0  0.4581299999999999  0.42924  0.025619999999999976  1.0000
  C   C168      1.0  0.51376  0.4342799999999999  0.0637  1.0000
  C   C169      1.0  0.59967  0.45617  0.06577  1.0000
  C   C170      1.0  0.64885  0.42789000000000005  0.025879999999999903  1.0000
  C   C171      1.0  0.59444  0.4233500000000001  0.9882900000000002  1.0000
  C   C172      1.0  0.50906  0.40080000000000005  0.9858900000000003  1.0000
  C   C173      1.0  0.5764500000000001  0.46963  0.99262  1.0000
  C   C174      1.0  0.52747  0.49966999999999995  0.03322000000000003  1.0000
  C   C175      1.0  0.50664  0.5483400000000002  0.04154000000000013  1.0000
  C   C176      1.0  0.53957  0.56037  0.010440000000000005  1.0000
  C   C177      1.0  0.6055300000000002  0.5915699999999999  0.02119  1.0000
  C   C178      1.0  0.63824  0.59965  0.99066  1.0000
  C   C179      1.0  0.60329  0.57687  0.94994  1.0000
  C   C180      1.0  0.53749  0.54676  0.93911  1.0000
  O   O8        1.0  0.512  0.52362  0.89689  1.0000
  C   C181      1.0  0.45305  0.4883199999999999  0.88385  1.0000
  C   C182      1.0  0.50303  0.54009  0.97014  1.0000
  C   C183      1.0  0.58254  0.50243  0.07053  1.0000
  C   C184      1.0  0.44239  0.47612999999999994  0.03032999999999997  1.0000
  H   H169      1.0  0.32442  0.43411999999999995  0.04369000000000001  1.0000
  H   H170      1.0  0.34022  0.39689  0.99051  1.0000
  H   H171      1.0  0.47902  0.45454  0.09282  1.0000
  H   H172      1.0  0.5284600000000002  0.40155  0.061440000000000015  1.0000
  H   H173      1.0  0.63891  0.4592  0.09289  1.0000
  H   H174      1.0  0.6641099999999999  0.3947499999999999  0.02266999999999997  1.0000
  H   H175      1.0  0.71037  0.44395  0.027449999999999978  1.0000
  H   H176      1.0  0.62958  0.4026899999999999  0.9594  1.0000
  H   H177      1.0  0.52217  0.3673600000000001  0.98243  1.0000
  H   H178      1.0  0.47144  0.39624  0.95783  1.0000
  H   H179      1.0  0.53808  0.46439  0.96463  1.0000
  H   H180      1.0  0.63783  0.48503999999999997  0.99258  1.0000
  H   H181      1.0  0.43631  0.55455  0.04278000000000004  1.0000
  H   H182      1.0  0.53061  0.57288  0.07298000000000003  1.0000
  H   H183      1.0  0.63265  0.60822  0.05247  1.0000
  H   H184      1.0  0.62804  0.58192  0.92554  1.0000
  H   H185      1.0  0.47836999999999996  0.46316  0.89226  1.0000
  H   H186      1.0  0.4448  0.4722299999999999  0.84962  1.0000
  H   H187      1.0  0.38966000000000023  0.50122  0.89754  1.0000
  H   H188      1.0  0.45013  0.51784  0.96312  1.0000
  H   H189      1.0  0.64454  0.51858  0.07278  1.0000
  H   H190      1.0  0.5492900000000001  0.5229799999999999  0.10001  1.0000
  H   H191      1.0  0.4023600000000001  0.4735599999999999  0.003530000000000033  1.0000
  H   H192      1.0  0.40566  0.49660999999999994  0.05876  1.0000
  C   C185      1.0  0.9504200000000003  0.30883  0.43366  1.0000
  C   C186      1.0  0.95918  0.29338000000000003  0.3866700000000001  1.0000
  C   C187      1.0  0.022029999999999998  0.25328  0.36733  1.0000
  C   C188      1.0  0.033560000000000034  0.23871  0.32119  1.0000
  C   C189      1.0  0.94593  0.22502  0.29823  1.0000
  C   C190      1.0  0.8830500000000002  0.26481  0.31642  1.0000
  C   C191      1.0  0.87118  0.28146  0.36288  1.0000
  C   C192      1.0  0.9192900000000003  0.3023600000000001  0.31102000000000013  1.0000
  C   C193      1.0  0.007570000000000073  0.31724  0.33456  1.0000
  C   C194      1.0  0.04318000000000022  0.35718999999999995  0.3315  1.0000
  C   C195      1.0  0.05957000000000012  0.34762  0.28781  1.0000
  C   C196      1.0  0.14368000000000003  0.34195  0.2738  1.0000
  C   C197      1.0  0.1575899999999999  0.33278  0.2332  1.0000
  C   C198      1.0  0.08757999999999999  0.32562  0.20577  1.0000
  C   C199      1.0  0.003859999999999974  0.33168  0.2191  1.0000
  O   O9        1.0  0.93743  0.3233500000000001  0.18925000000000006  1.0000
  C   C200      1.0  0.8528  0.31828999999999996  0.19932  1.0000
  C   C201      1.0  0.9905600000000002  0.34531  0.26106  1.0000
  C   C202      1.0  0.07016  0.27708  0.31649  1.0000
  C   C203      1.0  0.99648  0.33148  0.38123  1.0000
  H   H193      1.0  0.92304  0.3428600000000001  0.4489100000000001  1.0000
  H   H194      1.0  0.01483000000000012  0.31126  0.44854  1.0000
  H   H195      1.0  0.08557999999999999  0.2620799999999999  0.38385  1.0000
  H   H196      1.0  0.99808  0.22491999999999998  0.37013  1.0000
  H   H197      1.0  0.0786  0.21003999999999995  0.30783  1.0000
  H   H198      1.0  0.92117  0.19701  0.30125  1.0000
  H   H199      1.0  0.95312  0.2131200000000001  0.26456000000000013  1.0000
  H   H200      1.0  0.82001  0.25477000000000005  0.2995400000000001  1.0000
  H   H201      1.0  0.83832  0.25604  0.36655  1.0000
  H   H202      1.0  0.82786  0.31089999999999995  0.3756  1.0000
  H   H203      1.0  0.8729  0.3305  0.32219  1.0000
  H   H204      1.0  0.92587  0.28907  0.2772  1.0000
  H   H205      1.0  0.9975600000000002  0.3855699999999999  0.34539  1.0000
  H   H206      1.0  0.10346000000000011  0.36827999999999994  0.35062  1.0000
  H   H207      1.0  0.19779000000000002  0.34547999999999995  0.2944900000000001  1.0000
  H   H208      1.0  0.09785000000000021  0.31476  0.17351  1.0000
  H   H209      1.0  0.85159  0.29241  0.20897  1.0000
  H   H210      1.0  0.81058  0.30762  0.17126  1.0000
  H   H211      1.0  0.82765  0.3502  0.22387  1.0000
  H   H212      1.0  0.92674  0.35306  0.27292  1.0000
  H   H213      1.0  0.08010999999999992  0.26573999999999987  0.28315  1.0000
  H   H214      1.0  0.13373999999999997  0.28662  0.33283  1.0000
  H   H215      1.0  0.95327  0.36090999999999995  0.39524  1.0000
  H   H216      1.0  0.05937999999999998  0.34154  0.39822  1.0000
  C   C204      1.0  0.97466  0.63252  0.29208  1.0000
  C   C205      1.0  0.94984  0.65832  0.26859  1.0000
  C   C206      1.0  0.8538700000000001  0.6501199999999998  0.25449  1.0000
  C   C207      1.0  0.8277100000000001  0.6746999999999996  0.23  1.0000
  C   C208      1.0  0.84175  0.7247  0.25766  1.0000
  C   C209      1.0  0.93664  0.73301  0.2716300000000001  1.0000
  C   C210      1.0  0.96155  0.70904  0.2965  1.0000
  C   C211      1.0  0.9931399999999999  0.7156199999999999  0.23342  1.0000
  C   C212      1.0  0.97933  0.66483  0.20406  1.0000
  C   C213      1.0  0.035400000000000105  0.64395  0.16438  1.0000
  C   C214      1.0  0.06427000000000005  0.67743  0.15292  1.0000
  C   C215      1.0  0.007339999999999908  0.6920399999999998  0.13174  1.0000
  C   C216      1.0  0.02010000000000001  0.73277  0.13370000000000007  1.0000
  C   C217      1.0  0.09068000000000008  0.75863  0.1565  1.0000
  C   C218      1.0  0.15249000000000024  0.7421  0.17467  1.0000
  O   O10       1.0  0.22601000000000004  0.76533  0.19704  1.0000
  C   C219      1.0  0.22214000000000003  0.81242  0.21728  1.0000
  C   C220      1.0  0.1396599999999999  0.70083  0.17158  1.0000
  C   C221      1.0  0.8825900000000001  0.65747  0.19128  1.0000
  C   C222      1.0  0.0037199999999999456  0.6409699999999999  0.22936  1.0000
  H   H217      1.0  0.92764  0.64076  0.31664  1.0000
  H   H218      1.0  0.96948  0.5964  0.27065  1.0000
  H   H219      1.0  0.84212  0.6141400000000001  0.23474000000000006  1.0000
  H   H220      1.0  0.81283  0.6618499999999998  0.28187  1.0000
  H   H221      1.0  0.75895  0.6687  0.22022  1.0000
  H   H222      1.0  0.8008800000000003  0.73753  0.28516  1.0000
  H   H223      1.0  0.82304  0.7428900000000002  0.24051  1.0000
  H   H224      1.0  0.94665  0.76906  0.29148  1.0000
  H   H225      1.0  0.92106  0.7213699999999998  0.3241  1.0000
  H   H226      1.0  0.028310000000000064  0.7178999999999996  0.30824  1.0000
  H   H227      1.0  0.06137999999999999  0.72221  0.2441  1.0000
  H   H228      1.0  0.97626  0.73495  0.21719  1.0000
  H   H229      1.0  0.09346  0.6271299999999997  0.16893  1.0000
  H   H230      1.0  0.0002000000000000012  0.61727  0.13749  1.0000
  H   H231      1.0  0.94914  0.67388  0.11725  1.0000
  H   H232      1.0  0.0974600000000001  0.7909999999999999  0.15931  1.0000
  H   H233      1.0  0.22072000000000006  0.82492  0.19466  1.0000
  H   H234      1.0  0.28102000000000005  0.82518  0.23698  1.0000
  H   H235      1.0  0.16582999999999992  0.8249099999999999  0.23743  1.0000
  H   H236      1.0  0.1841299999999999  0.68931  0.18778000000000006  1.0000
  H   H237      1.0  0.86331  0.67502  0.1736  1.0000
  H   H238      1.0  0.8693600000000001  0.6217599999999999  0.17085  1.0000
  H   H239      1.0  0.07284  0.6460700000000001  0.23809000000000005  1.0000
  H   H240      1.0  0.9943600000000001  0.6047500000000001  0.20966  1.0000
  C   C223      1.0  0.90664  0.4244899999999999  0.76005  1.0000
  C   C224      1.0  0.9786000000000001  0.39508  0.76556  1.0000
  C   C225      1.0  0.008679999999999983  0.35814  0.72288  1.0000
  C   C226      1.0  0.08217  0.33101  0.72906  1.0000
  C   C227      1.0  0.15853  0.36133  0.75185  1.0000
  C   C228      1.0  0.13066  0.39751  0.79469  1.0000
  C   C229      1.0  0.05648  0.42500999999999983  0.78926  1.0000
  C   C230      1.0  0.10109  0.37614  0.82032  1.0000
  C   C231      1.0  0.022739999999999986  0.34571  0.79843  1.0000
  C   C232      1.0  0.9904  0.32168  0.82267  1.0000
  C   C233      1.0  0.018209999999999834  0.33939  0.86824  1.0000
  C   C234      1.0  0.05618000000000002  0.31087  0.8821  1.0000
  C   C235      1.0  0.07992  0.32648000000000005  0.92431  1.0000
  C   C236      1.0  0.06708  0.3712700000000001  0.95217  1.0000
  C   C237      1.0  0.023020000000000047  0.39929000000000003  0.9399900000000002  1.0000
  O   O11       1.0  0.005910000000000304  0.44279  0.97117  1.0000
  C   C238      1.0  0.94293  0.4682300000000001  0.9624600000000002  1.0000
  C   C239      1.0  0.99776  0.3828600000000001  0.8979100000000002  1.0000
  C   C240      1.0  0.05088000000000001  0.30998  0.75472  1.0000
  C   C241      1.0  0.94884  0.37347000000000014  0.7916100000000003  1.0000
  H   H241      1.0  0.8760800000000002  0.44533  0.79023  1.0000
  H   H242      1.0  0.93617  0.44785999999999987  0.75163  1.0000
  H   H243      1.0  0.9550900000000001  0.3355599999999999  0.7053  1.0000
  H   H244      1.0  0.030540000000000025  0.3728900000000001  0.7039400000000002  1.0000
  H   H245      1.0  0.10273  0.30453  0.69836  1.0000
  H   H246      1.0  0.18095  0.3768  0.73361  1.0000
  H   H247      1.0  0.21298000000000006  0.3417099999999999  0.75521  1.0000
  H   H248      1.0  0.18581  0.4194999999999999  0.81114  1.0000
  H   H249      1.0  0.07964  0.44158  0.7721  1.0000
  H   H250      1.0  0.0372300000000001  0.4516199999999999  0.82026  1.0000
  H   H251      1.0  0.08492999999999995  0.4032200000000002  0.8513600000000002  1.0000
  H   H252      1.0  0.15495  0.35669  0.82451  1.0000
  H   H253      1.0  0.9193500000000002  0.32116  0.82112  1.0000
  H   H254      1.0  0.00951999999999997  0.28617999999999993  0.80576  1.0000
  H   H255      1.0  0.06578000000000002  0.27628  0.8600900000000002  1.0000
  H   H256      1.0  0.08803000000000002  0.3842200000000001  0.9841600000000001  1.0000
  H   H257      1.0  0.96681  0.4775499999999999  0.93985  1.0000
  H   H258      1.0  0.9300700000000002  0.49913  0.99154  1.0000
  H   H259      1.0  0.8817700000000002  0.44992000000000004  0.95111  1.0000
  H   H260      1.0  0.96351  0.4036900000000001  0.8877200000000002  1.0000
  H   H261      1.0  0.10334  0.29  0.7583  1.0000
  H   H262      1.0  0.99737  0.2871200000000001  0.7376100000000002  1.0000
  H   H263      1.0  0.92653  0.39952  0.82211  1.0000
  H   H264      1.0  0.89348  0.3517  0.77517  1.0000
  C   C242      1.0  0.4947200000000001  0.17597000000000002  0.06481  1.0000
  C   C243      1.0  0.51677  0.15803  0.09622  1.0000
  C   C244      1.0  0.48711  0.10925  0.07692  1.0000
  C   C245      1.0  0.51746  0.08871  0.10434  1.0000
  C   C246      1.0  0.6159  0.09011  0.1091  1.0000
  C   C247      1.0  0.64519  0.13843999999999995  0.12963  1.0000
  C   C248      1.0  0.61603  0.15893  0.10228  1.0000
  C   C249      1.0  0.60609  0.16486  0.17254000000000005  1.0000
  C   C250      1.0  0.5062800000000002  0.16389  0.1687  1.0000
  C   C251      1.0  0.46236  0.18871000000000002  0.21193000000000006  1.0000
  C   C252      1.0  0.52183  0.20923000000000003  0.25002  1.0000
  C   C253      1.0  0.56412  0.18334  0.26567  1.0000
  C   C254      1.0  0.61994  0.20333  0.30053  1.0000
  C   C255      1.0  0.62835  0.24945  0.32123  1.0000
  C   C256      1.0  0.5864800000000002  0.2756799999999999  0.30657  1.0000
  O   O12       1.0  0.60174  0.32152  0.32854  1.0000
  C   C257      1.0  0.56003  0.34887  0.31387  1.0000
  C   C258      1.0  0.53379  0.25509000000000004  0.2704300000000001  1.0000
  C   C259      1.0  0.4782  0.11483  0.14723  1.0000
  C   C260      1.0  0.47717  0.18439  0.14001  1.0000
  H   H265      1.0  0.55153  0.19256  0.06162  1.0000
  H   H266      1.0  0.48360000000000003  0.14782  0.03314  1.0000
  H   H267      1.0  0.41607  0.10783  0.07331  1.0000
  H   H268      1.0  0.5133  0.08903  0.04556  1.0000
  H   H269      1.0  0.49635  0.05378  0.08971  1.0000
  H   H270      1.0  0.64462  0.07089  0.07816  1.0000
  H   H271      1.0  0.63841  0.07459  0.12819  1.0000
  H   H272      1.0  0.71625  0.13951  0.13319  1.0000
  H   H273      1.0  0.64673  0.14047  0.07172  1.0000
  H   H274      1.0  0.63896  0.19361000000000003  0.11693  1.0000
  H   H275      1.0  0.62895  0.19949  0.18736  1.0000
  H   H276      1.0  0.6303400000000002  0.15  0.19186  1.0000
  H   H277      1.0  0.4180000000000001  0.2146  0.21215  1.0000
  H   H278      1.0  0.41910000000000003  0.16646000000000002  0.21638000000000004  1.0000
  H   H279      1.0  0.55631  0.14784  0.24974000000000002  1.0000
  H   H280      1.0  0.67075  0.26517999999999997  0.34833  1.0000
  H   H281      1.0  0.58045  0.33953  0.28217  1.0000
  H   H282      1.0  0.57879  0.38358  0.3344300000000001  1.0000
  H   H283      1.0  0.48938999999999994  0.34688  0.31463  1.0000
  H   H284      1.0  0.50212  0.27418  0.25757  1.0000
  H   H285      1.0  0.49865  0.09946  0.16673  1.0000
  H   H286      1.0  0.40718  0.11278999999999999  0.14376  1.0000
  H   H287      1.0  0.49708  0.2195  0.15486  1.0000
  H   H288      1.0  0.40615  0.1839  0.13649  1.0000
  C   C261      1.0  0.58215  0.7621700000000001  0.9095800000000003  1.0000
  C   C262      1.0  0.55603  0.7302999999999997  0.86337  1.0000
  C   C263      1.0  0.62295  0.73116  0.83388  1.0000
  C   C264      1.0  0.5929900000000001  0.7020399999999999  0.78841  1.0000
  C   C265      1.0  0.5815400000000001  0.65407  0.77964  1.0000
  C   C266      1.0  0.5133200000000002  0.65287  0.80819  1.0000
  C   C267      1.0  0.54211  0.68146  0.85361  1.0000
  C   C268      1.0  0.42736  0.67081  0.80068  1.0000
  C   C269      1.0  0.43712  0.71921  0.80893  1.0000
  C   C270      1.0  0.34832  0.7388  0.80383  1.0000
  C   C271      1.0  0.32965000000000005  0.73529  0.76191  1.0000
  C   C272      1.0  0.31155  0.77315  0.75804  1.0000
  C   C273      1.0  0.29492  0.7692499999999998  0.71888  1.0000
  C   C274      1.0  0.30215000000000003  0.7277599999999997  0.68332  1.0000
  C   C275      1.0  0.31763  0.6896999999999999  0.68676  1.0000
  O   O13       1.0  0.32078  0.6488399999999998  0.65002  1.0000
  C   C276      1.0  0.3428600000000001  0.6106100000000001  0.6539800000000002  1.0000
  C   C277      1.0  0.32578  0.6938  0.72657  1.0000
  C   C278      1.0  0.50689  0.7199299999999998  0.78018  1.0000
  C   C279      1.0  0.46948000000000006  0.74773  0.85449  1.0000
  H   H289      1.0  0.59415  0.7957499999999998  0.91396  1.0000
  H   H290      1.0  0.52737  0.76536  0.92883  1.0000
  H   H291      1.0  0.6317600000000001  0.76554  0.8397300000000002  1.0000
  H   H292      1.0  0.68628  0.7192599999999998  0.83934  1.0000
  H   H293      1.0  0.6418300000000002  0.7026499999999999  0.76763  1.0000
  H   H294      1.0  0.6435  0.64054  0.78489  1.0000
  H   H295      1.0  0.5617599999999999  0.63271  0.74662  1.0000
  H   H296      1.0  0.50536  0.61812  0.8015300000000002  1.0000
  H   H297      1.0  0.5997700000000002  0.66475  0.85779  1.0000
  H   H298      1.0  0.49327  0.68067  0.87406  1.0000
  H   H299      1.0  0.37902  0.6694200000000001  0.8213500000000002  1.0000
  H   H300      1.0  0.40598  0.64816  0.76855  1.0000
  H   H301      1.0  0.29555  0.7224600000000002  0.8104400000000003  1.0000
  H   H302      1.0  0.3438800000000001  0.7742699999999999  0.82751  1.0000
  H   H303      1.0  0.30477  0.8050899999999999  0.78538  1.0000
  H   H304      1.0  0.28797  0.72427  0.65283  1.0000
  H   H305      1.0  0.40665  0.61439  0.66973  1.0000
  H   H306      1.0  0.34585000000000005  0.5816699999999999  0.62304  1.0000
  H   H307      1.0  0.29311  0.60401  0.67074  1.0000
  H   H308      1.0  0.3294800000000001  0.6649999999999999  0.73035  1.0000
  H   H309      1.0  0.48839000000000005  0.6989099999999998  0.74701  1.0000
  H   H310      1.0  0.51498  0.7541  0.78536  1.0000
  H   H311      1.0  0.42032  0.74801  0.87565  1.0000
  H   H312      1.0  0.4769999999999999  0.78257  0.86126  1.0000
  C   C280      1.0  0.39427000000000006  0.78661  0.4165100000000001  1.0000
  C   C281      1.0  0.36852  0.79489  0.37966  1.0000
  C   C282      1.0  0.36553  0.7511  0.3379200000000001  1.0000
  C   C283      1.0  0.34456  0.7609899999999999  0.30189  1.0000
  C   C284      1.0  0.25636  0.78439  0.30884  1.0000
  C   C285      1.0  0.25952  0.82838  0.3498500000000001  1.0000
  C   C286      1.0  0.2808500000000001  0.81913  0.38627  1.0000
  C   C287      1.0  0.32853  0.8581400000000001  0.3474700000000001  1.0000
  C   C288      1.0  0.41827  0.83535  0.34087  1.0000
  C   C289      1.0  0.49139000000000005  0.86594  0.34154  1.0000
  C   C290      1.0  0.49693000000000004  0.8735799999999998  0.30431000000000014  1.0000
  C   C291      1.0  0.56959  0.85895  0.27932  1.0000
  C   C292      1.0  0.57927  0.86904  0.24697  1.0000
  C   C293      1.0  0.51278  0.8919399999999997  0.2385  1.0000
  C   C294      1.0  0.44001999999999997  0.90654  0.26255  1.0000
  O   O14       1.0  0.37523000000000006  0.9276399999999999  0.25047  1.0000
  C   C295      1.0  0.29638  0.9387900000000001  0.2716  1.0000
  C   C296      1.0  0.43511000000000005  0.89957  0.29707  1.0000
  C   C297      1.0  0.41453000000000007  0.7907799999999998  0.29995  1.0000
  C   C298      1.0  0.4376  0.82502  0.37716  1.0000
  H   H313      1.0  0.4570600000000002  0.7690300000000001  0.4105400000000001  1.0000
  H   H314      1.0  0.40352  0.8193599999999999  0.4442  1.0000
  H   H315      1.0  0.42792  0.73321  0.33281  1.0000
  H   H316      1.0  0.31567  0.72896  0.33813  1.0000
  H   H317      1.0  0.34212  0.72942  0.27223  1.0000
  H   H318      1.0  0.20598000000000002  0.76291  0.30991000000000013  1.0000
  H   H319      1.0  0.23884  0.79063  0.28262  1.0000
  H   H320      1.0  0.19604  0.84523  0.35458  1.0000
  H   H321      1.0  0.22955999999999996  0.7987  0.38833  1.0000
  H   H322      1.0  0.28238  0.85084  0.41592  1.0000
  H   H323      1.0  0.32921  0.89059  0.37631  1.0000
  H   H324      1.0  0.30982  0.86397  0.32113  1.0000
  H   H325      1.0  0.4861599999999999  0.89866  0.3697700000000001  1.0000
  H   H326      1.0  0.55377  0.85202  0.34566  1.0000
  H   H327      1.0  0.61967  0.8407799999999999  0.28582  1.0000
  H   H328      1.0  0.51724  0.89932  0.21332  1.0000
  H   H329      1.0  0.26992  0.90992  0.27266  1.0000
  H   H330      1.0  0.24903000000000003  0.9478199999999999  0.25366  1.0000
  H   H331      1.0  0.30489  0.9673999999999999  0.30329  1.0000
  H   H332      1.0  0.38466000000000006  0.9151699999999999  0.31877  1.0000
  H   H333      1.0  0.3998900000000001  0.7966000000000001  0.2731900000000001  1.0000
  H   H334      1.0  0.47770000000000007  0.7735599999999998  0.29474  1.0000
  H   H335      1.0  0.44132  0.85661  0.4069  1.0000
  H   H336      1.0  0.50142  0.8085200000000001  0.3732600000000001  1.0000
  C   C299      1.0  0.3346200000000001  0.14457000000000003  0.78001  1.0000
  C   C300      1.0  0.32072  0.17354000000000006  0.75797  1.0000
  C   C301      1.0  0.26579  0.14718999999999993  0.71756  1.0000
  C   C302      1.0  0.25067  0.17450000000000004  0.69505  1.0000
  C   C303      1.0  0.20317  0.2174099999999999  0.72413  1.0000
  C   C304      1.0  0.25884  0.24472000000000005  0.7636900000000002  1.0000
  C   C305      1.0  0.27722  0.21893  0.78695  1.0000
  C   C306      1.0  0.34260000000000007  0.25559999999999994  0.75164  1.0000
  C   C307      1.0  0.39326  0.21288  0.72264  1.0000
  C   C308      1.0  0.48141  0.22487999999999994  0.7115  1.0000
  C   C309      1.0  0.4751  0.25002000000000013  0.6867700000000002  1.0000
  C   C310      1.0  0.51679  0.23505  0.64885  1.0000
  C   C311      1.0  0.50323  0.25761  0.62572  1.0000
  C   C312      1.0  0.4361200000000002  0.28875000000000006  0.6368100000000002  1.0000
  C   C313      1.0  0.4065599999999999  0.30831999999999987  0.677  1.0000
  O   O15       1.0  0.35705000000000003  0.34703  0.69259  1.0000
  C   C314      1.0  0.40542  0.3849199999999999  0.70088  1.0000
  C   C315      1.0  0.43385000000000007  0.2914200000000001  0.7030000000000002  1.0000
  C   C316      1.0  0.33695  0.18535999999999994  0.6831  1.0000
  C   C317      1.0  0.40796  0.18448  0.74538  1.0000
  H   H337      1.0  0.35228  0.11010999999999996  0.75721  1.0000
  H   H338      1.0  0.39036  0.1578499999999999  0.80212  1.0000
  H   H339      1.0  0.2985  0.11556000000000001  0.69655  1.0000
  H   H340      1.0  0.20303  0.13845999999999997  0.72451  1.0000
  H   H341      1.0  0.21109  0.15519999999999995  0.66641  1.0000
  H   H342      1.0  0.14156  0.20962999999999996  0.73291  1.0000
  H   H343      1.0  0.18847000000000003  0.2367500000000001  0.7076900000000003  1.0000
  H   H344      1.0  0.22542  0.27608  0.78447  1.0000
  H   H345      1.0  0.21497  0.21699000000000004  0.79858  1.0000
  H   H346      1.0  0.31902  0.23843999999999999  0.81483  1.0000
  H   H347      1.0  0.38181  0.27744  0.77975  1.0000
  H   H348      1.0  0.32071  0.27407  0.73557  1.0000
  H   H349      1.0  0.5192  0.24507  0.74062  1.0000
  H   H350      1.0  0.51827  0.19370999999999997  0.69365  1.0000
  H   H351      1.0  0.56588  0.20966  0.64005  1.0000
  H   H352      1.0  0.42135  0.30509  0.6185  1.0000
  H   H353      1.0  0.45633  0.39077  0.72489  1.0000
  H   H354      1.0  0.36224  0.41415  0.71257  1.0000
  H   H355      1.0  0.43485000000000024  0.38081  0.67231  1.0000
  H   H356      1.0  0.42283000000000004  0.31095  0.73572  1.0000
  H   H357      1.0  0.3240600000000001  0.20391000000000006  0.6657400000000002  1.0000
  H   H358      1.0  0.37085  0.15422  0.662  1.0000
  H   H359      1.0  0.4497700000000001  0.20283000000000012  0.7735200000000002  1.0000
  H   H360      1.0  0.44238  0.15323  0.7249  1.0000
  C   C318      1.0  0.99461  0.6778899999999998  0.58408  1.0000
  C   C319      1.0  0.9655700000000002  0.6859199999999999  0.62703  1.0000
  C   C320      1.0  0.9174000000000001  0.73061  0.65192  1.0000
  C   C321      1.0  0.88567  0.7344  0.69267  1.0000
  C   C322      1.0  0.8239  0.6964  0.68272  1.0000
  C   C323      1.0  0.87124  0.6518699999999997  0.65853  1.0000
  C   C324      1.0  0.90298  0.64784  0.61806  1.0000
  C   C325      1.0  0.9485000000000002  0.64898  0.68448  1.0000
  C   C326      1.0  0.012100000000000005  0.6873800000000001  0.6954800000000002  1.0000
  C   C327      1.0  0.09283  0.68597  0.72189  1.0000
  C   C328      1.0  0.08379000000000003  0.65924  0.7442300000000002  1.0000
  C   C329      1.0  0.02827  0.67329  0.77725  1.0000
  C   C330      1.0  0.015560000000000027  0.64685  0.7957400000000002  1.0000
  C   C331      1.0  0.06224000000000009  0.60748  0.78304  1.0000
  C   C332      1.0  0.11938999999999987  0.59306  0.75026  1.0000
  O   O16       1.0  0.16551000000000005  0.5527500000000001  0.7344200000000002  1.0000
  C   C333      1.0  0.14535000000000006  0.5224400000000001  0.7487400000000002  1.0000
  C   C334      1.0  0.12951000000000001  0.61929  0.73129  1.0000
  C   C335      1.0  0.9626500000000002  0.73199  0.71928  1.0000
  C   C336      1.0  0.042559999999999994  0.68385  0.65412  1.0000
  H   H361      1.0  0.028969999999999992  0.64553  0.56904  1.0000
  H   H362      1.0  0.93712  0.6742  0.56399  1.0000
  H   H363      1.0  0.95947  0.7590600000000002  0.6601300000000002  1.0000
  H   H364      1.0  0.86218  0.73313  0.6332200000000002  1.0000
  H   H365      1.0  0.85165  0.7665300000000002  0.7102700000000002  1.0000
  H   H366      1.0  0.7677899999999999  0.6981999999999998  0.66398  1.0000
  H   H367      1.0  0.7991  0.6994100000000001  0.7118200000000002  1.0000
  H   H368      1.0  0.82659  0.62444  0.65129  1.0000
  H   H369      1.0  0.8468400000000003  0.64863  0.59878  1.0000
  H   H370      1.0  0.935  0.61512  0.60016  1.0000
  H   H371      1.0  0.98165  0.61652  0.66706  1.0000
  H   H372      1.0  0.92341  0.65049  0.71285  1.0000
  H   H373      1.0  0.14834000000000008  0.6722799999999998  0.70143  1.0000
  H   H374      1.0  0.11258  0.71998  0.74509  1.0000
  H   H375      1.0  0.9921300000000001  0.70386  0.78755  1.0000
  H   H376      1.0  0.05028000000000011  0.5875400000000002  0.7975600000000003  1.0000
  H   H377      1.0  0.07668000000000008  0.51323  0.74197  1.0000
  H   H378      1.0  0.16120000000000004  0.5368500000000003  0.7824100000000003  1.0000
  H   H379      1.0  0.18450000000000008  0.49193  0.73215  1.0000
  H   H380      1.0  0.17168000000000008  0.60775  0.70554  1.0000
  H   H381      1.0  0.93901  0.73559  0.74875  1.0000
  H   H382      1.0  0.005690000000000003  0.7603  0.72752  1.0000
  H   H383      1.0  0.07841000000000001  0.65224  0.63646  1.0000
  H   H384      1.0  0.08747000000000002  0.7111699999999997  0.66116  1.0000
