data_image0
_chemical_formula_structural       Mn5CN8C2N8CN16Cl2C4Mn5CN8C2N8CN16Cl2C4Mn5CN8C2N8CN16Cl2C4Mn5CN8C2N8CN16Cl2C26H30C22H30C22H30C22H30C22H30C22H30C22H30C22H30C22H30C22H30C22H30C22H30C22H30C22H30C22H30C22H30
_chemical_formula_sum              "Mn20 C384 N128 Cl8 H480"
_cell_length_a       16.0672
_cell_length_b       32.9615
_cell_length_c       37.6292
_cell_angle_alpha    105.8519
_cell_angle_beta     90.2585
_cell_angle_gamma    89.4232

_space_group_name_H-M_alt    "P 1"
_space_group_IT_number       1

loop_
  _space_group_symop_operation_xyz
  'x, y, z'

loop_
  _atom_site_type_symbol
  _atom_site_label
  _atom_site_symmetry_multiplicity
  _atom_site_fract_x
  _atom_site_fract_y
  _atom_site_fract_z
  _atom_site_occupancy
  Mn  Mn1       1.0  0.52211  0.1876999999999999  0.39738  1.0000
  Mn  Mn2       1.0  0.71912  0.19077  0.43297  1.0000
  Mn  Mn3       1.0  0.9475799999999999  0.41611  0.61379  1.0000
  Mn  Mn4       1.0  0.75136  0.3782699999999999  0.59093  1.0000
  Mn  Mn5       1.0  0.75173  0.27983  0.51516  1.0000
  C   C1        1.0  0.6288799999999998  0.19614  0.33263  1.0000
  N   N1        1.0  0.62146  0.2009  0.36946  1.0000
  N   N2        1.0  0.69563  0.19274999999999995  0.38094  1.0000
  N   N3        1.0  0.74538  0.17799999999999994  0.35253  1.0000
  N   N4        1.0  0.7056499999999998  0.17985  0.32213  1.0000
  N   N5        1.0  0.8646899999999997  0.2341  0.41364  1.0000
  N   N6        1.0  0.8066199999999998  0.23512  0.43853  1.0000
  N   N7        1.0  0.8136999999999998  0.26938999999999996  0.46642999999999996  1.0000
  N   N8        1.0  0.87879  0.29118999999999995  0.46110000000000007  1.0000
  C   C2        1.0  0.9097199999999998  0.2688599999999999  0.42822  1.0000
  C   C3        1.0  0.84196  0.15834  0.50941  1.0000
  N   N9        1.0  0.74608  0.18587999999999996  0.48452999999999996  1.0000
  N   N10       1.0  0.7812999999999997  0.14955  0.48406  1.0000
  N   N11       1.0  0.64003  0.26168  0.48734  1.0000
  N   N12       1.0  0.63583  0.23555  0.45399  1.0000
  N   N13       1.0  0.5592099999999998  0.23403  0.44102  1.0000
  N   N14       1.0  0.51004  0.25921  0.4653300000000001  1.0000
  N   N15       1.0  0.77958  0.21666  0.51122  1.0000
  N   N16       1.0  0.84319  0.20066  0.52613  1.0000
  C   C4        1.0  0.56026  0.27687  0.4941900000000001  1.0000
  N   N17       1.0  0.87673  0.39467999999999986  0.64945  1.0000
  N   N18       1.0  0.7982499999999998  0.38372  0.64235  1.0000
  N   N19       1.0  0.7699599999999998  0.3661599999999999  0.66733  1.0000
  N   N20       1.0  0.83103  0.36393  0.69072  1.0000
  N   N21       1.0  0.65039  0.32109  0.62049  1.0000
  N   N22       1.0  0.68924  0.32547  0.59094  1.0000
  N   N23       1.0  0.69346  0.2888  0.56529  1.0000
  N   N24       1.0  0.6596899999999998  0.2590699999999999  0.57806  1.0000
  N   N25       1.0  0.71531  0.34743  0.48012000000000005  1.0000
  N   N26       1.0  0.7217399999999998  0.33883  0.51209  1.0000
  N   N27       1.0  0.71408  0.37369  0.53937  1.0000
  N   N28       1.0  0.70384  0.40656  0.52566  1.0000
  N   N29       1.0  0.85828  0.3057  0.54523  1.0000
  N   N30       1.0  0.85277  0.34369  0.56949  1.0000
  N   N31       1.0  0.92593  0.36171  0.57519  1.0000
  N   N32       1.0  0.98239  0.33725  0.55506  1.0000
  Cl  Cl1       1.0  0.60888  0.14649  0.42349  1.0000
  Cl  Cl2       1.0  0.8264599999999998  0.43682  0.59239  1.0000
  C   C5        1.0  0.8982  0.38093999999999995  0.67895  1.0000
  C   C6        1.0  0.63236  0.27993  0.61235  1.0000
  C   C7        1.0  0.7037  0.3894999999999999  0.4887500000000001  1.0000
  C   C8        1.0  0.94177  0.30178  0.53702  1.0000
  Mn  Mn6       1.0  0.97445  0.6783400000000002  0.41432  1.0000
  Mn  Mn7       1.0  0.17931999999999995  0.69505  0.43468  1.0000
  Mn  Mn8       1.0  0.45322999999999997  0.8867499999999998  0.63226  1.0000
  Mn  Mn9       1.0  0.25249  0.8543499999999998  0.61123  1.0000
  Mn  Mn10      1.0  0.22451  0.77235  0.52415  1.0000
  C   C9        1.0  0.037459999999999986  0.7056299999999998  0.34833  1.0000
  N   N33       1.0  0.04722  0.70506  0.38374  1.0000
  N   N34       1.0  0.12792  0.7048899999999998  0.38904  1.0000
  N   N35       1.0  0.16733  0.70117  0.35762  1.0000
  N   N36       1.0  0.11236  0.70221  0.33161  1.0000
  N   N37       1.0  0.27458  0.75763  0.41431  1.0000
  N   N38       1.0  0.24214000000000002  0.74858  0.44276  1.0000
  N   N39       1.0  0.27112  0.7737  0.47372000000000003  1.0000
  N   N40       1.0  0.3322699999999999  0.7967900000000001  0.46556  1.0000
  C   C10       1.0  0.33337  0.78554  0.42782  1.0000
  C   C11       1.0  0.3256399999999999  0.65034  0.49975  1.0000
  N   N41       1.0  0.23216  0.68183  0.47815  1.0000
  N   N42       1.0  0.27201  0.6455299999999999  0.47184  1.0000
  N   N43       1.0  0.10562  0.75557  0.50018  1.0000
  N   N44       1.0  0.09529999999999998  0.7278  0.4675  1.0000
  N   N45       1.0  0.016780000000000003  0.72238  0.45842  1.0000
  N   N46       1.0  0.97152  0.7474199999999998  0.48367000000000004  1.0000
  N   N47       1.0  0.2583199999999999  0.7087  0.50913  1.0000
  N   N48       1.0  0.31858  0.68984  0.52314  1.0000
  C   C12       1.0  0.024619999999999996  0.7675699999999999  0.51026  1.0000
  N   N49       1.0  0.3904499999999999  0.85537  0.66324  1.0000
  N   N50       1.0  0.31458999999999987  0.84215  0.65295  1.0000
  N   N51       1.0  0.29379  0.81147  0.66717  1.0000
  N   N52       1.0  0.3532399999999999  0.8052699999999999  0.68897  1.0000
  N   N53       1.0  0.14821999999999994  0.7932699999999999  0.63266  1.0000
  N   N54       1.0  0.18675  0.80125  0.60464  1.0000
  N   N55       1.0  0.17886  0.7694899999999999  0.57479  1.0000
  N   N56       1.0  0.13469  0.7390699999999998  0.58323  1.0000
  N   N57       1.0  0.13377  0.8508399999999998  0.51539  1.0000
  N   N58       1.0  0.18649  0.8354  0.53575  1.0000
  N   N59       1.0  0.19710000000000003  0.86424  0.56766  1.0000
  N   N60       1.0  0.15268  0.89843  0.56944  1.0000
  N   N61       1.0  0.34144  0.79229  0.54997  1.0000
  N   N62       1.0  0.34423  0.82557  0.57932  1.0000
  N   N63       1.0  0.4200799999999999  0.84043  0.58621  1.0000
  N   N64       1.0  0.47117  0.8177999999999997  0.56163  1.0000
  Cl  Cl3       1.0  0.09005  0.6401600000000001  0.42448  1.0000
  Cl  Cl4       1.0  0.32864  0.91426  0.6213  1.0000
  C   C13       1.0  0.41324  0.83285  0.68709  1.0000
  C   C14       1.0  0.11618000000000002  0.75464  0.61997  1.0000
  C   C15       1.0  0.11355999999999998  0.8901  0.53677  1.0000
  C   C16       1.0  0.42423  0.7868399999999998  0.53972  1.0000
  Mn  Mn11      1.0  0.026629999999999928  0.31609  0.15728  1.0000
  Mn  Mn12      1.0  0.20776  0.32691  0.1135  1.0000
  Mn  Mn13      1.0  0.42007  0.15491  0.9015000000000001  1.0000
  Mn  Mn14      1.0  0.22142  0.19193999999999997  0.9258500000000001  1.0000
  Mn  Mn15      1.0  0.21205999999999994  0.26267  0.01757  1.0000
  C   C17       1.0  0.16098  0.28249  0.20118  1.0000
  N   N65       1.0  0.13714  0.29401  0.17089  1.0000
  N   N66       1.0  0.20526  0.30696  0.15859000000000004  1.0000
  N   N67       1.0  0.26807  0.30743  0.18134  1.0000
  N   N68       1.0  0.24245000000000003  0.29180999999999996  0.20807  1.0000
  N   N69       1.0  0.3523599999999999  0.27239  0.11171000000000002  1.0000
  N   N70       1.0  0.29248  0.28307  0.09198  1.0000
  N   N71       1.0  0.28404  0.25422  0.06008  1.0000
  N   N72       1.0  0.3414099999999999  0.22440999999999994  0.057440000000000005  1.0000
  C   C18       1.0  0.38349  0.23633  0.08988  1.0000
  C   C19       1.0  0.2641199999999999  0.39029999999999987  0.04006  1.0000
  N   N73       1.0  0.21523999999999993  0.34909  0.06854  1.0000
  N   N74       1.0  0.23052999999999996  0.38917  0.07236  1.0000
  N   N75       1.0  0.11075  0.2752299999999999  0.05227  1.0000
  N   N76       1.0  0.12008  0.2858  0.08849  1.0000
  N   N77       1.0  0.047949999999999986  0.2840199999999999  0.1045  1.0000
  N   N78       1.0  0.9888299999999998  0.2747  0.07934  1.0000
  N   N79       1.0  0.23651000000000003  0.32618999999999987  0.03498  1.0000
  N   N80       1.0  0.26639  0.35121  0.0158  1.0000
  C   C20       1.0  0.027699999999999995  0.26983  0.04657  1.0000
  N   N81       1.0  0.35832  0.19167999999999996  0.87467  1.0000
  N   N82       1.0  0.28111  0.20469999999999994  0.88298  1.0000
  N   N83       1.0  0.25081  0.22212  0.85783  1.0000
  N   N84       1.0  0.30915  0.22118999999999997  0.83281  1.0000
  N   N85       1.0  0.14133  0.2633699999999999  0.91501  1.0000
  N   N86       1.0  0.16384999999999994  0.24980999999999998  0.94069  1.0000
  N   N87       1.0  0.14227999999999993  0.27159999999999995  0.9738299999999999  1.0000
  N   N88       1.0  0.14672  0.26600000000000007  0.9355400000000001  1.0000
  N   N89       1.0  0.13042999999999993  0.18385999999999994  0.02439  1.0000
  N   N90       1.0  0.17627999999999994  0.20081  0.00301  1.0000
  N   N91       1.0  0.17027999999999993  0.17739  0.96863  1.0000
  N   N92       1.0  0.12327  0.1440999999999999  0.96626  1.0000
  N   N93       1.0  0.31784  0.24835  0.9851  1.0000
  N   N94       1.0  0.31834  0.2150499999999999  0.9563600000000001  1.0000
  N   N95       1.0  0.39393  0.19978000000000007  0.9484600000000001  1.0000
  N   N96       1.0  0.4475199999999999  0.22238  0.97193  1.0000
  Cl  Cl5       1.0  0.09923  0.3688499999999999  0.14031  1.0000
  Cl  Cl6       1.0  0.2921  0.12955000000000005  0.9098  1.0000
  C   C21       1.0  0.37652  0.20285  0.84389  1.0000
  C   C22       1.0  0.09518999999999998  0.29645  0.9229800000000001  1.0000
  C   C23       1.0  0.09911  0.14827999999999994  0.0013  1.0000
  C   C24       1.0  0.40036  0.2531999999999999  0.9940699999999999  1.0000
  Mn  Mn16      1.0  0.44113  0.8640799999999997  0.1207  1.0000
  Mn  Mn17      1.0  0.6495799999999998  0.855  0.10447  1.0000
  Mn  Mn18      1.0  0.9364699999999999  0.64417  0.92595  1.0000
  Mn  Mn19      1.0  0.73504  0.66252  0.9558199999999999  1.0000
  Mn  Mn20      1.0  0.71101  0.75762  0.03428  1.0000
  C   C25       1.0  0.5098899999999997  0.8469599999999998  0.19164  1.0000
  N   N97       1.0  0.52102  0.84408  0.1552  1.0000
  N   N98       1.0  0.59691  0.85749  0.15303  1.0000
  N   N99       1.0  0.62438  0.87781  0.18601  1.0000
  N   N100      1.0  0.56991  0.87272  0.21068  1.0000
  N   N101      1.0  0.78171  0.82195  0.1398  1.0000
  N   N102      1.0  0.73225  0.8116799999999997  0.11113000000000002  1.0000
  N   N103      1.0  0.75712  0.77572  0.08756  1.0000
  N   N104      1.0  0.82452  0.76171  0.10114  1.0000
  C   C26       1.0  0.8392899999999998  0.79138  0.13366  1.0000
  C   C27       1.0  0.8109  0.87172  0.0315  1.0000
  N   N105      1.0  0.70354  0.85392  0.0562  1.0000
  N   N106      1.0  0.7490899999999998  0.8868799999999998  0.055560000000000005  1.0000
  N   N107      1.0  0.5889899999999998  0.77357  0.05484  1.0000
  N   N108      1.0  0.57183  0.81038  0.07852  1.0000
  N   N109      1.0  0.49145  0.8180199999999997  0.08052  1.0000
  N   N110      1.0  0.4512699999999999  0.78745  0.05786  1.0000
  N   N111      1.0  0.73472  0.8192  0.03294  1.0000
  N   N112      1.0  0.8031699999999998  0.82933  0.01777  1.0000
  C   C28       1.0  0.5104  0.7590299999999998  0.04184  1.0000
  N   N113      1.0  0.8471099999999998  0.6549  0.89283  1.0000
  N   N114      1.0  0.7686999999999998  0.6574699999999999  0.9027  1.0000
  N   N115      1.0  0.7217699999999998  0.65704  0.87374  1.0000
  N   N116      1.0  0.77039  0.65877  0.84568  1.0000
  N   N117      1.0  0.6135899999999997  0.71458  0.92861  1.0000
  N   N118      1.0  0.65516  0.7099  0.9575299999999999  1.0000
  N   N119      1.0  0.6573899999999998  0.74614  0.98334  1.0000
  N   N120      1.0  0.61695  0.7754899999999998  0.9718999999999999  1.0000
  N   N121      1.0  0.69634  0.68299  0.06705  1.0000
  N   N122      1.0  0.69667  0.6965399999999998  0.03669  1.0000
  N   N123      1.0  0.70511  0.66364  0.007430000000000048  1.0000
  N   N124      1.0  0.70762  0.62852  0.017200000000000104  1.0000
  N   N125      1.0  0.82721  0.73599  0.007819999999999938  1.0000
  N   N126      1.0  0.82546  0.7055400000000001  0.9758300000000001  1.0000
  N   N127      1.0  0.8997899999999998  0.69917  0.96059  1.0000
  N   N128      1.0  0.95311  0.72499  0.98078  1.0000
  Cl  Cl7       1.0  0.5459700000000001  0.90107  0.10113  1.0000
  Cl  Cl8       1.0  0.8363399999999998  0.6132599999999999  0.9531099999999999  1.0000
  C   C29       1.0  0.8493299999999998  0.6582399999999998  0.85808  1.0000
  C   C30       1.0  0.5898599999999998  0.75558  0.9376000000000001  1.0000
  C   C31       1.0  0.7019999999999997  0.64018  0.05409  1.0000
  C   C32       1.0  0.91091  0.7464  0.010750000000000037  1.0000
  C   C33       1.0  0.52798  0.30402  0.53072  1.0000
  C   C34       1.0  0.43358999999999986  0.31698  0.53398  1.0000
  C   C35       1.0  0.4177999999999999  0.34344  0.57455  1.0000
  C   C36       1.0  0.32596  0.3578099999999999  0.58006  1.0000
  C   C37       1.0  0.30491  0.38521  0.55387  1.0000
  C   C38       1.0  0.31837  0.3589999999999999  0.5136  1.0000
  C   C39       1.0  0.4104899999999999  0.34469  0.50803  1.0000
  C   C40       1.0  0.26104  0.32012  0.50496  1.0000
  C   C41       1.0  0.28116999999999986  0.2919  0.531  1.0000
  C   C42       1.0  0.22721  0.25095  0.52008  1.0000
  C   C43       1.0  0.14185  0.25275  0.53742  1.0000
  C   C44       1.0  0.07088999999999997  0.26279  0.51962  1.0000
  C   C45       1.0  0.9919799999999999  0.26435  0.53596  1.0000
  C   C46       1.0  0.9832799999999999  0.24879  0.56691  1.0000
  C   C47       1.0  0.05282  0.2362  0.5843  1.0000
  C   C48       1.0  0.044969999999999954  0.22105  0.61941  1.0000
  C   C49       1.0  0.95418  0.22012  0.63272  1.0000
  C   C50       1.0  0.09375  0.25118  0.65095  1.0000
  C   C51       1.0  0.08079  0.17586  0.61162  1.0000
  C   C52       1.0  0.13233  0.24046999999999993  0.57003  1.0000
  C   C53       1.0  0.26846  0.3188299999999999  0.57154  1.0000
  C   C54       1.0  0.37467  0.27824  0.52606  1.0000
  H   H1        1.0  0.53839  0.28568  0.55086  1.0000
  H   H2        1.0  0.5662  0.33293  0.53884  1.0000
  H   H3        1.0  0.45884999999999987  0.37156  0.58168  1.0000
  H   H4        1.0  0.4336399999999999  0.3246  0.59407  1.0000
  H   H5        1.0  0.3168499999999999  0.37682  0.60916  1.0000
  H   H6        1.0  0.23926999999999995  0.39644  0.55793  1.0000
  H   H7        1.0  0.3450799999999999  0.41361  0.56013  1.0000
  H   H8        1.0  0.30271  0.37867999999999996  0.49471999999999994  1.0000
  H   H9        1.0  0.4204799999999999  0.32736  0.4786  1.0000
  H   H10       1.0  0.4513199999999999  0.3727799999999999  0.51437  1.0000
  H   H11       1.0  0.19494  0.33077  0.5084  1.0000
  H   H12       1.0  0.26919  0.3019799999999999  0.47558000000000006  1.0000
  H   H13       1.0  0.22  0.24087999999999998  0.48956000000000005  1.0000
  H   H14       1.0  0.26192  0.22449  0.5265  1.0000
  H   H15       1.0  0.07842  0.2745999999999999  0.49568  1.0000
  H   H16       1.0  0.92306  0.25203  0.58  1.0000
  H   H17       1.0  0.9155699999999998  0.19916  0.61075  1.0000
  H   H18       1.0  0.92665  0.25244  0.64081  1.0000
  H   H19       1.0  0.95191  0.20784  0.65747  1.0000
  H   H20       1.0  0.16116  0.24750999999999998  0.64627  1.0000
  H   H21       1.0  0.07764  0.28431000000000006  0.6524200000000001  1.0000
  H   H22       1.0  0.08115000000000006  0.24544  0.67814  1.0000
  H   H23       1.0  0.04448999999999992  0.15407000000000004  0.5893700000000001  1.0000
  H   H24       1.0  0.14650000000000005  0.17395  0.60251  1.0000
  H   H25       1.0  0.07845  0.16435  0.63671  1.0000
  H   H26       1.0  0.18752  0.23262  0.58345  1.0000
  H   H27       1.0  0.20276999999999995  0.32977  0.57631  1.0000
  H   H28       1.0  0.28207  0.29959  0.59084  1.0000
  H   H29       1.0  0.3827699999999999  0.25786  0.49759000000000003  1.0000
  H   H30       1.0  0.39082  0.25869  0.54507  1.0000
  C   C55       1.0  0.9931599999999999  0.8043099999999997  0.54102  1.0000
  C   C56       1.0  0.8989499999999998  0.80354  0.55388  1.0000
  C   C57       1.0  0.89738  0.79523  0.59232  1.0000
  C   C58       1.0  0.8071599999999999  0.7965799999999997  0.60625  1.0000
  C   C59       1.0  0.7676399999999998  0.8402399999999998  0.60946  1.0000
  C   C60       1.0  0.76715  0.84874  0.57128  1.0000
  C   C61       1.0  0.85766  0.8475  0.55732  1.0000
  C   C62       1.0  0.7144299999999998  0.8147999999999997  0.54419  1.0000
  C   C63       1.0  0.7517199999999998  0.7703699999999998  0.54099  1.0000
  C   C64       1.0  0.70305  0.7351899999999998  0.51215  1.0000
  C   C65       1.0  0.6164099999999998  0.7263499999999998  0.52387  1.0000
  C   C66       1.0  0.54691  0.74612  0.5131  1.0000
  C   C67       1.0  0.4700999999999999  0.74664  0.53094  1.0000
  C   C68       1.0  0.4627199999999999  0.7227199999999998  0.5565  1.0000
  C   C69       1.0  0.52657  0.69551  0.56198  1.0000
  C   C70       1.0  0.51642  0.66806  0.589  1.0000
  C   C71       1.0  0.42459  0.66357  0.59976  1.0000
  C   C72       1.0  0.5647999999999997  0.6886699999999998  0.62428  1.0000
  C   C73       1.0  0.55125  0.62301  0.57222  1.0000
  C   C74       1.0  0.60496  0.69942  0.54658  1.0000
  C   C75       1.0  0.7544  0.76243  0.57964  1.0000
  C   C76       1.0  0.84223  0.7699199999999999  0.5275  1.0000
  H   H31       1.0  0.03685999999999998  0.8106799999999997  0.56479  1.0000
  H   H32       1.0  0.99705  0.8312599999999998  0.52924  1.0000
  H   H33       1.0  0.93429  0.8195299999999998  0.61244  1.0000
  H   H34       1.0  0.92615  0.76399  0.59088  1.0000
  H   H35       1.0  0.8097199999999998  0.7908199999999999  0.6335900000000001  1.0000
  H   H36       1.0  0.70268  0.84113  0.61973  1.0000
  H   H37       1.0  0.80319  0.86511  0.62953  1.0000
  H   H38       1.0  0.7394199999999997  0.8803899999999998  0.57356  1.0000
  H   H39       1.0  0.8575300000000001  0.85451  0.53002  1.0000
  H   H40       1.0  0.89408  0.8727  0.57671  1.0000
  H   H41       1.0  0.6492  0.8165100000000001  0.55423  1.0000
  H   H42       1.0  0.7131299999999998  0.82109  0.51657  1.0000
  H   H43       1.0  0.69889  0.74365  0.48547000000000007  1.0000
  H   H44       1.0  0.73986  0.70543  0.50597  1.0000
  H   H45       1.0  0.5561199999999997  0.76705  0.49574  1.0000
  H   H46       1.0  0.40937  0.72879  0.57462  1.0000
  H   H47       1.0  0.3984099999999999  0.6939199999999998  0.61687  1.0000
  H   H48       1.0  0.4193499999999999  0.64055  0.61641  1.0000
  H   H49       1.0  0.38559  0.65196  0.57471  1.0000
  H   H50       1.0  0.6322699999999998  0.68785  0.61798  1.0000
  H   H51       1.0  0.54374  0.72194  0.63566  1.0000
  H   H52       1.0  0.55534  0.67181  0.64577  1.0000
  H   H53       1.0  0.55405  0.6053  0.59347  1.0000
  H   H54       1.0  0.51017  0.6054  0.54986  1.0000
  H   H55       1.0  0.61481  0.6226699999999997  0.56083  1.0000
  H   H56       1.0  0.65884  0.68362  0.55397  1.0000
  H   H57       1.0  0.69019  0.7637  0.59054  1.0000
  H   H58       1.0  0.78081  0.7306199999999999  0.57792  1.0000
  H   H59       1.0  0.83908  0.7762  0.49989  1.0000
  H   H60       1.0  0.86809  0.7378099999999997  0.52525  1.0000
  C   C77       1.0  0.43928  0.29097  0.01984  1.0000
  C   C78       1.0  0.51386  0.30989  0.00259  1.0000
  C   C79       1.0  0.51208  0.3017999999999999  0.9595  1.0000
  C   C80       1.0  0.58842  0.32204000000000005  0.9465200000000001  1.0000
  C   C81       1.0  0.58656  0.3698000000000001  0.9642000000000001  1.0000
  C   C82       1.0  0.58902  0.37819999999999987  0.00641  1.0000
  C   C83       1.0  0.51323  0.35808  0.01958  1.0000
  C   C84       1.0  0.6691599999999998  0.36035  0.01879  1.0000
  C   C85       1.0  0.67427  0.31212  0.00013  1.0000
  C   C86       1.0  0.75147  0.2911  0.01276  1.0000
  C   C87       1.0  0.84008  0.2985  0.00236  1.0000
  C   C88       1.0  0.89944  0.2721099999999999  0.01218  1.0000
  C   C89       1.0  0.9818699999999998  0.28466  0.01859  1.0000
  C   C90       1.0  0.006890000000000062  0.32242  0.011560000000000015  1.0000
  C   C91       1.0  0.95105  0.34755  0.99763  1.0000
  C   C92       1.0  0.9760999999999997  0.39079  0.99244  1.0000
  C   C93       1.0  0.0712  0.3987899999999999  0.9961000000000001  1.0000
  C   C94       1.0  0.9327799999999999  0.42637  0.022219999999999906  1.0000
  C   C95       1.0  0.9484799999999999  0.39348999999999995  0.9537400000000001  1.0000
  C   C96       1.0  0.8674499999999998  0.33433  0.9923599999999999  1.0000
  C   C97       1.0  0.6696199999999998  0.30307  0.9575100000000001  1.0000
  C   C98       1.0  0.59682  0.2919399999999999  0.01326  1.0000
  H   H61       1.0  0.3911499999999999  0.31506  0.03038  1.0000
  H   H62       1.0  0.46095999999999987  0.28173  0.0446  1.0000
  H   H63       1.0  0.4535299999999999  0.31441  0.95058  1.0000
  H   H64       1.0  0.5157  0.26801  0.94457  1.0000
  H   H65       1.0  0.5869699999999998  0.31582  0.91616  1.0000
  H   H66       1.0  0.6405  0.38486  0.95459  1.0000
  H   H67       1.0  0.52892  0.38378  0.95584  1.0000
  H   H68       1.0  0.58888  0.41227  0.01863  1.0000
  H   H69       1.0  0.51472  0.36553  0.05015  1.0000
  H   H70       1.0  0.45465  0.37108999999999986  0.01112  1.0000
  H   H71       1.0  0.72149  0.37831999999999993  0.0122  1.0000
  H   H72       1.0  0.66925  0.36667999999999995  0.04942  1.0000
  H   H73       1.0  0.75031  0.29937  0.0435  1.0000
  H   H74       1.0  0.74192  0.25649  0.00353  1.0000
  H   H75       1.0  0.87897  0.24477999999999997  0.0206  1.0000
  H   H76       1.0  0.06853  0.3335499999999999  0.0200499999999999  1.0000
  H   H77       1.0  0.10678999999999997  0.3728999999999999  0.9772199999999999  1.0000
  H   H78       1.0  0.08766  0.42856  0.98949  1.0000
  H   H79       1.0  0.09312  0.40195  0.024739999999999984  1.0000
  H   H80       1.0  0.86424  0.42222999999999994  0.021930000000000005  1.0000
  H   H81       1.0  0.9561899999999999  0.42696999999999996  0.05021999999999993  1.0000
  H   H82       1.0  0.9454  0.45764  0.01757999999999993  1.0000
  H   H83       1.0  0.9774  0.42071  0.9465600000000001  1.0000
  H   H84       1.0  0.9664899999999998  0.36428999999999984  0.93246  1.0000
  H   H85       1.0  0.8799399999999998  0.39743  0.95216  1.0000
  H   H86       1.0  0.82455  0.35303  0.98166  1.0000
  H   H87       1.0  0.72341  0.31675  0.94663  1.0000
  H   H88       1.0  0.67153  0.26848000000000005  0.9442900000000001  1.0000
  H   H89       1.0  0.59989  0.29795  0.04385  1.0000
  H   H90       1.0  0.59789  0.25712999999999997  0.00128  1.0000
  C   C99       1.0  0.96465  0.76112  0.044390000000000006  1.0000
  C   C100      1.0  0.02547999999999999  0.72563  0.05179  1.0000
  C   C101      1.0  0.05066  0.74013  0.09275  1.0000
  C   C102      1.0  0.11083  0.70908  0.10325  1.0000
  C   C103      1.0  0.06831999999999994  0.6659  0.09659  1.0000
  C   C104      1.0  0.044  0.64992  0.05564  1.0000
  C   C105      1.0  0.9832499999999998  0.6816899999999998  0.04523999999999995  1.0000
  C   C106      1.0  0.12361000000000001  0.6446299999999998  0.03186  1.0000
  C   C107      1.0  0.17036  0.68728  0.03787  1.0000
  C   C108      1.0  0.25002  0.67997  0.01123  1.0000
  C   C109      1.0  0.33878  0.68297  0.02723  1.0000
  C   C110      1.0  0.3998  0.7079  0.0163  1.0000
  C   C111      1.0  0.4782599999999999  0.71564  0.03449  1.0000
  C   C112      1.0  0.4949799999999999  0.69619  0.06238  1.0000
  C   C113      1.0  0.43453999999999987  0.67225  0.07437  1.0000
  C   C114      1.0  0.4448599999999999  0.66513  0.11290000000000001  1.0000
  C   C115      1.0  0.5236499999999997  0.63883  0.11343999999999999  1.0000
  C   C116      1.0  0.37005999999999994  0.6431399999999998  0.12526  1.0000
  C   C117      1.0  0.45474000000000003  0.7080099999999998  0.14173  1.0000
  C   C118      1.0  0.36151  0.66138  0.05315  1.0000
  C   C119      1.0  0.19032999999999994  0.70493  0.0798  1.0000
  C   C120      1.0  0.10732  0.7191199999999998  0.02772  1.0000
  H   H91       1.0  0.9292699999999998  0.7792299999999998  0.0682  1.0000
  H   H92       1.0  0.00525  0.78518  0.038839999999999986  1.0000
  H   H93       1.0  0.9933999999999998  0.74042  0.1084  1.0000
  H   H94       1.0  0.07741000000000002  0.7722499999999998  0.10036  1.0000
  H   H95       1.0  0.12701  0.72116  0.13303  1.0000
  H   H96       1.0  0.11112999999999995  0.64297  0.10428  1.0000
  H   H97       1.0  0.011969999999999812  0.66866  0.11422  1.0000
  H   H98       1.0  0.012880000000000004  0.61887  0.05078000000000005  1.0000
  H   H99       1.0  0.96507  0.66862  0.01591000000000009  1.0000
  H   H100      1.0  0.9251499999999999  0.68453  0.06179000000000002  1.0000
  H   H101      1.0  0.16509  0.6206899999999997  0.03874  1.0000
  H   H102      1.0  0.10562  0.63197  0.0023599999999999177  1.0000
  H   H103      1.0  0.24622  0.64828  0.99126  1.0000
  H   H104      1.0  0.24523  0.70195  0.9935800000000001  1.0000
  H   H105      1.0  0.3828  0.7253  0.99658  1.0000
  H   H106      1.0  0.54817  0.70703  0.07979  1.0000
  H   H107      1.0  0.52828  0.62773  0.13876  1.0000
  H   H108      1.0  0.5231499999999998  0.61156  0.08868  1.0000
  H   H109      1.0  0.5800499999999997  0.65775  0.11282  1.0000
  H   H110      1.0  0.31417  0.66395  0.12975  1.0000
  H   H111      1.0  0.35574  0.61298  0.10472  1.0000
  H   H112      1.0  0.38363  0.6363999999999997  0.15214  1.0000
  H   H113      1.0  0.4034799999999999  0.73025  0.13992  1.0000
  H   H114      1.0  0.51492  0.7231200000000001  0.13876  1.0000
  H   H115      1.0  0.4528199999999999  0.7026  0.16932  1.0000
  H   H116      1.0  0.31865  0.63886  0.05864  1.0000
  H   H117      1.0  0.23134  0.68378  0.08982  1.0000
  H   H118      1.0  0.22147999999999998  0.7359399999999998  0.08525  1.0000
  H   H119      1.0  0.09152999999999997  0.70694  0.99808  1.0000
  H   H120      1.0  0.13824  0.7497799999999999  0.030990000000000004  1.0000
  C   C121      1.0  0.042829999999999986  0.9178199999999997  0.53016  1.0000
  C   C122      1.0  0.03906  0.9244299999999998  0.49112  1.0000
  C   C123      1.0  0.12791  0.9302300000000001  0.47713  1.0000
  C   C124      1.0  0.12292999999999994  0.93582  0.4381  1.0000
  C   C125      1.0  0.08252  0.8970600000000001  0.41204  1.0000
  C   C126      1.0  0.9936499999999999  0.89171  0.42551  1.0000
  C   C127      1.0  0.99773  0.8856  0.4643  1.0000
  C   C128      1.0  0.94092  0.9311899999999997  0.42599  1.0000
  C   C129      1.0  0.9802199999999999  0.9714199999999998  0.45222000000000007  1.0000
  C   C130      1.0  0.9233099999999997  0.010119999999999922  0.45043  1.0000
  C   C131      1.0  0.9502299999999998  0.05472000000000001  0.47107000000000004  1.0000
  C   C132      1.0  0.89305  0.08391  0.49259  1.0000
  C   C133      1.0  0.9123499999999998  0.12731  0.50556  1.0000
  C   C134      1.0  0.99532  0.13949  0.50241  1.0000
  C   C135      1.0  0.05444999999999988  0.11026999999999998  0.48163000000000006  1.0000
  C   C136      1.0  0.14654999999999993  0.12193999999999999  0.47857  1.0000
  C   C137      1.0  0.15210999999999994  0.15654999999999997  0.45849999999999996  1.0000
  C   C138      1.0  0.20194  0.08455  0.45688  1.0000
  C   C139      1.0  0.18383  0.1369  0.51765  1.0000
  C   C140      1.0  0.02563000000000004  0.07034999999999997  0.46244  1.0000
  C   C141      1.0  0.07073  0.9752499999999998  0.43895  1.0000
  C   C142      1.0  0.98518  0.96469  0.49156  1.0000
  H   H121      1.0  0.98293  0.90466  0.53637  1.0000
  H   H122      1.0  0.04844999999999999  0.94897  0.55089  1.0000
  H   H123      1.0  0.16855  0.9024500000000001  0.47594000000000003  1.0000
  H   H124      1.0  0.15806  0.95804  0.49623999999999996  1.0000
  H   H125      1.0  0.18681  0.9396499999999998  0.42825  1.0000
  H   H126      1.0  0.08086999999999998  0.90239  0.3843  1.0000
  H   H127      1.0  0.12095999999999998  0.8684  0.41064  1.0000
  H   H128      1.0  0.9635299999999999  0.8633299999999997  0.40755  1.0000
  H   H129      1.0  0.93354  0.88123  0.47353  1.0000
  H   H130      1.0  0.03284  0.8560599999999999  0.46312  1.0000
  H   H131      1.0  0.93597  0.9345199999999999  0.39741  1.0000
  H   H132      1.0  0.8764899999999998  0.9268299999999998  0.43494  1.0000
  H   H133      1.0  0.9169999999999998  0.009849999999999921  0.42091  1.0000
  H   H134      1.0  0.8596299999999998  0.004529999999999919  0.45946  1.0000
  H   H135      1.0  0.82968  0.07399000000000001  0.49488000000000004  1.0000
  H   H136      1.0  0.01187999999999967  0.17216999999999993  0.51313  1.0000
  H   H137      1.0  0.11634000000000012  0.18496  0.47311000000000003  1.0000
  H   H138      1.0  0.12629  0.14461  0.43019  1.0000
  H   H139      1.0  0.21785000000000007  0.16561999999999993  0.45604  1.0000
  H   H140      1.0  0.19788  0.057439999999999956  0.46891999999999995  1.0000
  H   H141      1.0  0.18455  0.074  0.4272000000000001  1.0000
  H   H142      1.0  0.26831  0.09391999999999999  0.45782999999999996  1.0000
  H   H143      1.0  0.24962  0.14677  0.51673  1.0000
  H   H144      1.0  0.14795  0.16383  0.53443  1.0000
  H   H145      1.0  0.18138999999999994  0.11121999999999994  0.53167  1.0000
  H   H146      1.0  0.06018  0.05218  0.43915  1.0000
  H   H147      1.0  0.07048  0.98072  0.4110500000000001  1.0000
  H   H148      1.0  0.10304999999999997  0.001359999999999822  0.45876  1.0000
  H   H149      1.0  0.9213599999999997  0.96138  0.50175  1.0000
  H   H150      1.0  0.013140000000000002  0.9929999999999999  0.51088  1.0000
  C   C143      1.0  0.0363  0.11946999999999998  0.01174  1.0000
  C   C144      1.0  0.06923  0.09529999999999997  0.03919  1.0000
  C   C145      1.0  0.15037999999999996  0.07073999999999997  0.02419  1.0000
  C   C146      1.0  0.18329  0.04766  0.05186  1.0000
  C   C147      1.0  0.20113999999999996  0.07989  0.0892  1.0000
  C   C148      1.0  0.11977999999999997  0.10335999999999995  0.10449  1.0000
  C   C149      1.0  0.08676  0.12694  0.07738  1.0000
  C   C150      1.0  0.05394  0.07176999999999997  0.10963  1.0000
  C   C151      1.0  0.03474  0.038269999999999985  0.07256  1.0000
  C   C152      1.0  0.9656899999999998  0.007730000000000001  0.08093  1.0000
  C   C153      1.0  0.96711  0.9604999999999998  0.06101000000000001  1.0000
  C   C154      1.0  0.89293  0.93936  0.04683  1.0000
  C   C155      1.0  0.89115  0.89491  0.03361  1.0000
  C   C156      1.0  0.96684  0.87247  0.03055  1.0000
  C   C157      1.0  0.04126999999999991  0.89248  0.04598  1.0000
  C   C158      1.0  0.12272000000000001  0.8671899999999998  0.04643  1.0000
  C   C159      1.0  0.11866  0.84531  0.07786  1.0000
  C   C160      1.0  0.20112  0.89558  0.05266  1.0000
  C   C161      1.0  0.13563  0.83415  0.00865  1.0000
  C   C162      1.0  0.0364199999999999  0.93563  0.0644  1.0000
  C   C163      1.0  0.11855  0.01593  0.05762  1.0000
  C   C164      1.0  0.0031299999999999995  0.06262  0.04459  1.0000
  H   H151      1.0  0.98064  0.13862  0.02354  1.0000
  H   H152      1.0  0.015479999999999999  0.09606000000000003  0.9859900000000001  1.0000
  H   H153      1.0  0.1993  0.09252  0.01979  1.0000
  H   H154      1.0  0.1386  0.047589999999999966  0.9970299999999999  1.0000
  H   H155      1.0  0.24183999999999994  0.03051  0.041  1.0000
  H   H156      1.0  0.22717  0.06358  0.1091  1.0000
  H   H157      1.0  0.24878  0.10262  0.08545  1.0000
  H   H158      1.0  0.132  0.12663  0.13144  1.0000
  H   H159      1.0  0.02902  0.14468  0.08857  1.0000
  H   H160      1.0  0.13411999999999993  0.15041  0.0753  1.0000
  H   H161      1.0  0.07688999999999997  0.055659999999999994  0.13013  1.0000
  H   H162      1.0  0.99618  0.08921  0.12122999999999999  1.0000
  H   H163      1.0  0.9682899999999998  0.008959999999999994  0.11076999999999998  1.0000
  H   H164      1.0  0.90333  0.021099999999999994  0.07742  1.0000
  H   H165      1.0  0.83519  0.9571299999999998  0.0492  1.0000
  H   H166      1.0  0.96564  0.83892  0.01873  1.0000
  H   H167      1.0  0.05370999999999969  0.83839  0.08402  1.0000
  H   H168      1.0  0.1445099999999997  0.8654499999999998  0.10396  1.0000
  H   H169      1.0  0.15613000000000007  0.81581  0.07112  1.0000
  H   H170      1.0  0.20295999999999995  0.91461  0.03242  1.0000
  H   H171      1.0  0.20388  0.9172099999999997  0.08101  1.0000
  H   H172      1.0  0.25887  0.8760399999999998  0.04945  1.0000
  H   H173      1.0  0.19695  0.81797  0.007620000000000001  1.0000
  H   H174      1.0  0.08842000000000001  0.80909  0.00282  1.0000
  H   H175      1.0  0.13342  0.84977  0.98597  1.0000
  H   H176      1.0  0.08437  0.9493899999999997  0.08359000000000001  1.0000
  H   H177      1.0  0.14708  0.0014700000000000021  0.07806  1.0000
  H   H178      1.0  0.10851999999999999  0.99127  0.03119  1.0000
  H   H179      1.0  0.94397  0.07957999999999997  0.05478  1.0000
  H   H180      1.0  0.9890599999999999  0.03961  0.01763  1.0000
  C   C165      1.0  0.7026599999999997  0.41373  0.46021  1.0000
  C   C166      1.0  0.6142499999999997  0.41991999999999996  0.44528  1.0000
  C   C167      1.0  0.62178  0.4307  0.40766  1.0000
  C   C168      1.0  0.53494  0.43568  0.39153  1.0000
  C   C169      1.0  0.4841899999999999  0.39515  0.38686  1.0000
  C   C170      1.0  0.4744  0.3867  0.42483  1.0000
  C   C171      1.0  0.56119  0.37941  0.43943  1.0000
  C   C172      1.0  0.4306999999999999  0.42492999999999975  0.45225  1.0000
  C   C173      1.0  0.48182999999999987  0.4661  0.45727  1.0000
  C   C174      1.0  0.43697999999999987  0.5039299999999998  0.48603  1.0000
  C   C175      1.0  0.45271  0.5495  0.4850499999999999  1.0000
  C   C176      1.0  0.3884  0.5798  0.4961  1.0000
  C   C177      1.0  0.39918  0.6217999999999998  0.4951400000000001  1.0000
  C   C178      1.0  0.47233999999999987  0.63237  0.47927000000000003  1.0000
  C   C179      1.0  0.53734  0.60242  0.46724  1.0000
  C   C180      1.0  0.61361  0.61013  0.44496  1.0000
  C   C181      1.0  0.60379  0.65022  0.43137  1.0000
  C   C182      1.0  0.6270799999999997  0.57249  0.41015000000000007  1.0000
  C   C183      1.0  0.6919299999999998  0.61417  0.46928  1.0000
  C   C184      1.0  0.5293699999999998  0.56299  0.4745500000000001  1.0000
  C   C185      1.0  0.48872999999999983  0.4730799999999999  0.41794  1.0000
  C   C186      1.0  0.56864  0.4571099999999999  0.47269  1.0000
  H   H181      1.0  0.74263  0.39614  0.43695  1.0000
  H   H182      1.0  0.73349  0.44455999999999996  0.4717  1.0000
  H   H183      1.0  0.65661  0.40563999999999995  0.38761000000000007  1.0000
  H   H184      1.0  0.65722  0.46031  0.4110500000000001  1.0000
  H   H185      1.0  0.54244  0.44167  0.36403  1.0000
  H   H186      1.0  0.42170999999999986  0.39877  0.37518  1.0000
  H   H187      1.0  0.51619  0.36796999999999985  0.36721  1.0000
  H   H188      1.0  0.43669999999999987  0.35788  0.42176  1.0000
  H   H189      1.0  0.55324  0.37102  0.46580999999999995  1.0000
  H   H190      1.0  0.5931  0.35215  0.41987  1.0000
  H   H191      1.0  0.3671199999999999  0.42887  0.44173  1.0000
  H   H192      1.0  0.42358999999999997  0.41837999999999986  0.47942999999999997  1.0000
  H   H193      1.0  0.36867  0.49875  0.48333  1.0000
  H   H194      1.0  0.4516  0.50215  0.51441  1.0000
  H   H195      1.0  0.3289799999999999  0.5705399999999998  0.50496  1.0000
  H   H196      1.0  0.47586  0.6634699999999998  0.47505  1.0000
  H   H197      1.0  0.54412  0.6496  0.4163  1.0000
  H   H198      1.0  0.65525  0.65271  0.41242  1.0000
  H   H199      1.0  0.60519  0.6791799999999998  0.45451  1.0000
  H   H200      1.0  0.6532099999999997  0.54454  0.41748  1.0000
  H   H201      1.0  0.56798  0.5632999999999998  0.39479  1.0000
  H   H202      1.0  0.6727199999999999  0.58035  0.39099  1.0000
  H   H203      1.0  0.7466699999999997  0.62284  0.45506  1.0000
  H   H204      1.0  0.6822199999999998  0.6383999999999997  0.49563  1.0000
  H   H205      1.0  0.70646  0.58418  0.47614000000000006  1.0000
  H   H206      1.0  0.5819099999999998  0.54204  0.46914000000000006  1.0000
  H   H207      1.0  0.42542  0.4763199999999998  0.40674  1.0000
  H   H208      1.0  0.5221  0.5020399999999998  0.41794  1.0000
  H   H209      1.0  0.55987  0.44923999999999986  0.49943  1.0000
  H   H210      1.0  0.60911  0.48497999999999997  0.47903999999999997  1.0000
  C   C187      1.0  0.30015  0.42994  0.03357  1.0000
  C   C188      1.0  0.35918  0.4572299999999999  0.06497  1.0000
  C   C189      1.0  0.31639  0.49971999999999994  0.08501  1.0000
  C   C190      1.0  0.37635  0.52741  0.11367999999999999  1.0000
  C   C191      1.0  0.40084  0.5046699999999997  0.14289  1.0000
  C   C192      1.0  0.4443899999999999  0.46258  0.12369  1.0000
  C   C193      1.0  0.38481  0.4350799999999999  0.09528  1.0000
  C   C194      1.0  0.52357  0.47112999999999994  0.10435000000000001  1.0000
  C   C195      1.0  0.5019799999999998  0.49485999999999997  0.07489  1.0000
  C   C196      1.0  0.58255  0.5017  0.05358  1.0000
  C   C197      1.0  0.63634  0.53883  0.07251  1.0000
  C   C198      1.0  0.64904  0.57119  0.05578  1.0000
  C   C199      1.0  0.69271  0.60755  0.07435  1.0000
  C   C200      1.0  0.7272899999999998  0.60999  0.10954000000000001  1.0000
  C   C201      1.0  0.72703  0.57445  0.12423000000000001  1.0000
  C   C202      1.0  0.7695599999999998  0.57488  0.16153  1.0000
  C   C203      1.0  0.79205  0.5293599999999998  0.1641  1.0000
  C   C204      1.0  0.7093099999999998  0.5956299999999999  0.19374  1.0000
  C   C205      1.0  0.85284  0.59955  0.1662  1.0000
  C   C206      1.0  0.6809899999999998  0.53918  0.1047  1.0000
  C   C207      1.0  0.45618  0.53658  0.09433  1.0000
  C   C208      1.0  0.4392899999999999  0.4681999999999999  0.04657  1.0000
  H   H211      1.0  0.3334499999999999  0.42054999999999987  0.00668  1.0000
  H   H212      1.0  0.24689  0.44962999999999986  0.028910000000000005  1.0000
  H   H213      1.0  0.25891  0.49369  0.09905  1.0000
  H   H214      1.0  0.2974199999999999  0.5171999999999999  0.06479  1.0000
  H   H215      1.0  0.3438999999999999  0.55723  0.12784  1.0000
  H   H216      1.0  0.4430799999999999  0.52481  0.16371  1.0000
  H   H217      1.0  0.3447999999999999  0.49920999999999993  0.15811  1.0000
  H   H218      1.0  0.46132  0.4459999999999999  0.14482  1.0000
  H   H219      1.0  0.4132499999999999  0.4037699999999999  0.08283  1.0000
  H   H220      1.0  0.33009  0.43044  0.11146  1.0000
  H   H221      1.0  0.5643999999999998  0.49037  0.12613  1.0000
  H   H222      1.0  0.55655  0.44086  0.09169  1.0000
  H   H223      1.0  0.6237  0.47371  0.04871  1.0000
  H   H224      1.0  0.56514  0.5039299999999998  0.02541  1.0000
  H   H225      1.0  0.62271  0.5687999999999998  0.02845  1.0000
  H   H226      1.0  0.75621  0.63881  0.12458  1.0000
  H   H227      1.0  0.8289899999999998  0.51117  0.13965  1.0000
  H   H228      1.0  0.73529  0.51072  0.16618  1.0000
  H   H229      1.0  0.83037  0.53116  0.18927000000000002  1.0000
  H   H230      1.0  0.67467  0.62277  0.18815  1.0000
  H   H231      1.0  0.66232  0.5726399999999999  0.19815  1.0000
  H   H232      1.0  0.74463  0.60703  0.2201  1.0000
  H   H233      1.0  0.8833299999999997  0.59896  0.19259  1.0000
  H   H234      1.0  0.8958999999999998  0.5842699999999997  0.14326  1.0000
  H   H235      1.0  0.8465  0.6335199999999999  0.16726  1.0000
  H   H236      1.0  0.6810599999999998  0.51108  0.1137  1.0000
  H   H237      1.0  0.49725  0.55662  0.1156  1.0000
  H   H238      1.0  0.43961  0.55383  0.07369  1.0000
  H   H239      1.0  0.4692199999999999  0.4391499999999999  0.03073  1.0000
  H   H240      1.0  0.4217399999999999  0.48561  0.02609  1.0000
  C   C209      1.0  0.9906899999999996  0.27944  0.41347  1.0000
  C   C210      1.0  0.032720000000000075  0.2455  0.38116  1.0000
  C   C211      1.0  0.12426000000000001  0.25985  0.3793  1.0000
  C   C212      1.0  0.17116  0.22929  0.34757  1.0000
  C   C213      1.0  0.17222999999999988  0.18472  0.35333  1.0000
  C   C214      1.0  0.08238999999999995  0.16975  0.35481  1.0000
  C   C215      1.0  0.035629999999999815  0.20047  0.38702  1.0000
  C   C216      1.0  0.03804000000000006  0.16804  0.31799  1.0000
  C   C217      1.0  0.03576999999999986  0.21239  0.31091  1.0000
  C   C218      1.0  0.98855  0.2101  0.27362  1.0000
  C   C219      1.0  0.045940000000000085  0.20636999999999997  0.24112  1.0000
  C   C220      1.0  0.062219999999999935  0.24247  0.22949  1.0000
  C   C221      1.0  0.13146999999999995  0.24321999999999996  0.2077  1.0000
  C   C222      1.0  0.18364  0.20757000000000003  0.19670000000000004  1.0000
  C   C223      1.0  0.16932  0.17094999999999994  0.20802  1.0000
  C   C224      1.0  0.2399  0.13804999999999995  0.2062  1.0000
  C   C225      1.0  0.30476  0.13776999999999995  0.17569  1.0000
  C   C226      1.0  0.20554  0.09297  0.19905  1.0000
  C   C227      1.0  0.286  0.14917  0.24358  1.0000
  C   C228      1.0  0.09562999999999998  0.16991  0.22804000000000002  1.0000
  C   C229      1.0  0.12703999999999993  0.22876999999999997  0.31121  1.0000
  C   C230      1.0  0.9885  0.24301999999999999  0.34371  1.0000
  H   H241      1.0  0.034199999999999786  0.28693  0.43734  1.0000
  H   H242      1.0  0.98136  0.30919  0.40539  1.0000
  H   H243      1.0  0.1574599999999999  0.26128  0.40564  1.0000
  H   H244      1.0  0.12576  0.2921000000000001  0.37543000000000004  1.0000
  H   H245      1.0  0.23624  0.24014999999999995  0.34677  1.0000
  H   H246      1.0  0.20653999999999992  0.16236  0.3305  1.0000
  H   H247      1.0  0.2051400000000001  0.18499000000000002  0.37944000000000006  1.0000
  H   H248      1.0  0.08305999999999969  0.13763999999999998  0.359  1.0000
  H   H249      1.0  0.97318  0.18705  0.38785  1.0000
  H   H250      1.0  0.06651999999999968  0.20172  0.41368  1.0000
  H   H251      1.0  0.07103999999999976  0.14483  0.29547  1.0000
  H   H252      1.0  0.97362  0.15622999999999995  0.31873  1.0000
  H   H253      1.0  0.9441599999999998  0.18342  0.26673  1.0000
  H   H254      1.0  0.94919  0.23879  0.27688  1.0000
  H   H255      1.0  0.025899999999999812  0.2710499999999999  0.2401  1.0000
  H   H256      1.0  0.23893999999999996  0.21024  0.18131  1.0000
  H   H257      1.0  0.27383999999999986  0.13698  0.14918  1.0000
  H   H258      1.0  0.34743  0.11007  0.17111  1.0000
  H   H259      1.0  0.34471  0.16613  0.18349  1.0000
  H   H260      1.0  0.16785  0.08909000000000002  0.22249000000000002  1.0000
  H   H261      1.0  0.16664999999999994  0.08523999999999998  0.17401  1.0000
  H   H262      1.0  0.25697  0.06937  0.19522  1.0000
  H   H263      1.0  0.33969  0.12748  0.24294000000000002  1.0000
  H   H264      1.0  0.3098999999999999  0.18192999999999995  0.25029  1.0000
  H   H265      1.0  0.24416  0.14638  0.26612  1.0000
  H   H266      1.0  0.08139  0.14259  0.23717000000000002  1.0000
  H   H267      1.0  0.16497999999999993  0.20861999999999997  0.28875  1.0000
  H   H268      1.0  0.12694999999999995  0.2609999999999999  0.30722  1.0000
  H   H269      1.0  0.92336  0.23219999999999993  0.34449  1.0000
  H   H270      1.0  0.98525  0.27499  0.33923  1.0000
  C   C231      1.0  0.9629999999999999  0.72551  0.33515  1.0000
  C   C232      1.0  0.9846399999999998  0.7631599999999997  0.31873  1.0000
  C   C233      1.0  0.90531  0.79074  0.31979  1.0000
  C   C234      1.0  0.9229  0.8277799999999997  0.3032  1.0000
  C   C235      1.0  0.9923300000000002  0.8555699999999998  0.32461  1.0000
  C   C236      1.0  0.07172999999999997  0.8287499999999998  0.32418  1.0000
  C   C237      1.0  0.05340000000000001  0.79253  0.34141  1.0000
  C   C238      1.0  0.10145999999999997  0.81049  0.28412  1.0000
  C   C239      1.0  0.03168  0.78351  0.26045  1.0000
  C   C240      1.0  0.06135  0.7657599999999998  0.21932  1.0000
  C   C241      1.0  0.028899999999999926  0.79098  0.19385  1.0000
  C   C242      1.0  0.9581499999999997  0.7766299999999998  0.17219  1.0000
  C   C243      1.0  0.92057  0.8015799999999997  0.15195  1.0000
  C   C244      1.0  0.95161  0.8419699999999998  0.15493  1.0000
  C   C245      1.0  0.013959999999999974  0.85951  0.18058  1.0000
  C   C246      1.0  0.019119999999999804  0.90806  0.19469  1.0000
  C   C247      1.0  0.04695000000000005  0.92712  0.16359  1.0000
  C   C248      1.0  0.07949000000000005  0.9230599999999998  0.22772000000000003  1.0000
  C   C249      1.0  0.9316299999999997  0.92577  0.20807  1.0000
  C   C250      1.0  0.058100000000000034  0.83204  0.19704  1.0000
  C   C251      1.0  0.9507699999999998  0.8108600000000001  0.2632  1.0000
  C   C252      1.0  0.012300000000000002  0.74647  0.2775  1.0000
  H   H271      1.0  0.9209199999999998  0.73713  0.3593  1.0000
  H   H272      1.0  0.92838  0.70083  0.31461  1.0000
  H   H273      1.0  0.88324  0.8035599999999998  0.34868  1.0000
  H   H274      1.0  0.85439  0.77122  0.30409  1.0000
  H   H275      1.0  0.86581  0.8474599999999999  0.30438  1.0000
  H   H276      1.0  0.0055100000000000045  0.8822599999999998  0.31272000000000005  1.0000
  H   H277      1.0  0.96924  0.8696  0.35261  1.0000
  H   H278      1.0  0.12252999999999999  0.84831  0.33987  1.0000
  H   H279      1.0  0.11329999999999998  0.77609  0.34226  1.0000
  H   H280      1.0  0.03341999999999999  0.8051999999999998  0.37057  1.0000
  H   H281      1.0  0.12002  0.8367499999999998  0.27279  1.0000
  H   H282      1.0  0.15846  0.79092  0.28399  1.0000
  H   H283      1.0  0.13047999999999996  0.76409  0.21779  1.0000
  H   H284      1.0  0.04071000000000001  0.7324699999999997  0.20825000000000002  1.0000
  H   H285      1.0  0.9324  0.7461899999999998  0.17119  1.0000
  H   H286      1.0  0.91988  0.86163  0.14021  1.0000
  H   H287      1.0  0.00587000000000004  0.91739  0.13896  1.0000
  H   H288      1.0  0.11153999999999999  0.91718  0.15515  1.0000
  H   H289      1.0  0.0454399999999997  0.96217  0.17329  1.0000
  H   H290      1.0  0.06061000000000006  0.9103599999999997  0.25102  1.0000
  H   H291      1.0  0.14437999999999995  0.91291  0.21938  1.0000
  H   H292      1.0  0.07878999999999992  0.95808  0.23803  1.0000
  H   H293      1.0  0.93346  0.9602499999999998  0.22115  1.0000
  H   H294      1.0  0.88648  0.92075  0.18486  1.0000
  H   H295      1.0  0.9070999999999998  0.91019  0.22855  1.0000
  H   H296      1.0  0.10956999999999995  0.8435  0.21537  1.0000
  H   H297      1.0  0.96002  0.83889  0.25274  1.0000
  H   H298      1.0  0.9011099999999997  0.7915799999999997  0.24652  1.0000
  H   H299      1.0  0.06793  0.7257199999999998  0.27508  1.0000
  H   H300      1.0  0.9615999999999998  0.72688  0.26129  1.0000
  C   C253      1.0  0.98492  0.36531  0.68318  1.0000
  C   C254      1.0  0.032609999999999986  0.38347  0.72018  1.0000
  C   C255      1.0  0.12566999999999995  0.37095  0.71209  1.0000
  C   C256      1.0  0.17878999999999995  0.38696  0.74685  1.0000
  C   C257      1.0  0.17153  0.43539  0.76087  1.0000
  C   C258      1.0  0.07957999999999998  0.44839  0.76911  1.0000
  C   C259      1.0  0.026480000000000063  0.4322199999999999  0.73379  1.0000
  C   C260      1.0  0.047280000000000016  0.42952999999999986  0.79968  1.0000
  C   C261      1.0  0.05674  0.38044999999999995  0.78776  1.0000
  C   C262      1.0  0.024770000000000004  0.3606799999999999  0.81898  1.0000
  C   C263      1.0  0.08139  0.3591799999999999  0.8519  1.0000
  C   C264      1.0  0.06466  0.32913  0.87133  1.0000
  C   C265      1.0  0.11697999999999996  0.32480999999999993  0.9001600000000001  1.0000
  C   C266      1.0  0.1886  0.34941999999999995  0.90871  1.0000
  C   C267      1.0  0.20652  0.38048  0.89062  1.0000
  C   C268      1.0  0.28488  0.40830000000000005  0.9003700000000001  1.0000
  C   C269      1.0  0.26255  0.44841000000000003  0.9310000000000002  1.0000
  C   C270      1.0  0.3179099999999999  0.4212499999999999  0.86636  1.0000
  C   C271      1.0  0.35732  0.3850099999999999  0.9141  1.0000
  C   C272      1.0  0.14797  0.38697  0.8646  1.0000
  C   C273      1.0  0.1484  0.36677  0.7766  1.0000
  C   C274      1.0  0.002200000000000002  0.3644799999999999  0.7518  1.0000
  H   H301      1.0  0.022350000000000092  0.37012  0.65979  1.0000
  H   H302      1.0  0.98029  0.33069  0.67835  1.0000
  H   H303      1.0  0.15022  0.3841999999999999  0.69004  1.0000
  H   H304      1.0  0.13248000000000001  0.33612  0.70205  1.0000
  H   H305      1.0  0.2449  0.37775999999999993  0.74016  1.0000
  H   H306      1.0  0.20984999999999995  0.4470699999999999  0.78625  1.0000
  H   H307      1.0  0.19631  0.44998  0.73977  1.0000
  H   H308      1.0  0.07492999999999994  0.48338  0.77876  1.0000
  H   H309      1.0  0.9607099999999997  0.44247  0.7399  1.0000
  H   H310      1.0  0.04868000000000006  0.4465099999999999  0.71202  1.0000
  H   H311      1.0  0.08000999999999997  0.44482  0.82557  1.0000
  H   H312      1.0  0.9806499999999998  0.43845999999999996  0.80515  1.0000
  H   H313      1.0  0.96476  0.37592  0.8300800000000002  1.0000
  H   H314      1.0  0.008790000000000076  0.32733  0.80508  1.0000
  H   H315      1.0  0.010690000000000002  0.30908999999999986  0.86402  1.0000
  H   H316      1.0  0.22801  0.34503  0.93067  1.0000
  H   H317      1.0  0.2144  0.4672699999999999  0.92119  1.0000
  H   H318      1.0  0.31839  0.46837999999999996  0.9395599999999998  1.0000
  H   H319      1.0  0.23791  0.44014999999999976  0.95564  1.0000
  H   H320      1.0  0.3245099999999999  0.39308999999999994  0.84222  1.0000
  H   H321      1.0  0.27647  0.4447599999999999  0.85874  1.0000
  H   H322      1.0  0.37989  0.4363899999999999  0.8722  1.0000
  H   H323      1.0  0.4157  0.40339  0.91696  1.0000
  H   H324      1.0  0.34474  0.38067000000000006  0.9417600000000002  1.0000
  H   H325      1.0  0.3691299999999999  0.3536999999999999  0.8942999999999999  1.0000
  H   H326      1.0  0.1566  0.4131000000000001  0.8535900000000001  1.0000
  H   H327      1.0  0.19318999999999995  0.3756499999999999  0.79951  1.0000
  H   H328      1.0  0.15252  0.33181  0.7662  1.0000
  H   H329      1.0  0.9357499999999997  0.37317  0.75815  1.0000
  H   H330      1.0  0.0053100000000000005  0.32947  0.742  1.0000
  C   C275      1.0  0.4602799999999999  0.21432  0.09854  1.0000
  C   C276      1.0  0.5148  0.23873  0.13217  1.0000
  C   C277      1.0  0.5983999999999998  0.21395999999999996  0.13025  1.0000
  C   C278      1.0  0.65631  0.23569999999999994  0.16235  1.0000
  C   C279      1.0  0.6746799999999997  0.28095  0.16064  1.0000
  C   C280      1.0  0.5924799999999998  0.30589  0.16337  1.0000
  C   C281      1.0  0.5355  0.28445999999999977  0.13086  1.0000
  C   C282      1.0  0.5494  0.30752  0.20032  1.0000
  C   C283      1.0  0.53079  0.26223  0.20334  1.0000
  C   C284      1.0  0.48593  0.26333  0.24086  1.0000
  C   C285      1.0  0.5429299999999998  0.26536  0.27399  1.0000
  C   C286      1.0  0.54982  0.2309  0.28958  1.0000
  C   C287      1.0  0.6068099999999998  0.23243  0.3184  1.0000
  C   C288      1.0  0.6603199999999998  0.26683  0.32948  1.0000
  C   C289      1.0  0.65807  0.30026  0.3133  1.0000
  C   C290      1.0  0.73484  0.32883  0.31693  1.0000
  C   C291      1.0  0.77164  0.33969  0.35669  1.0000
  C   C292      1.0  0.71455  0.37039  0.30705  1.0000
  C   C293      1.0  0.80125  0.30439  0.28962  1.0000
  C   C294      1.0  0.5931  0.30091  0.28821  1.0000
  C   C295      1.0  0.61407  0.2369  0.19925  1.0000
  C   C296      1.0  0.4729  0.2407  0.16998  1.0000
  H   H331      1.0  0.49934999999999996  0.20721  0.07327  1.0000
  H   H332      1.0  0.44128  0.18353  0.1025  1.0000
  H   H333      1.0  0.63076  0.21163  0.10368000000000001  1.0000
  H   H334      1.0  0.58641  0.18119  0.13142  1.0000
  H   H335      1.0  0.71583  0.21772  0.16017  1.0000
  H   H336      1.0  0.71703  0.29685  0.18359  1.0000
  H   H337      1.0  0.70669  0.28023  0.13435  1.0000
  H   H338      1.0  0.60566  0.33862  0.16229  1.0000
  H   H339      1.0  0.4796399999999999  0.30477  0.13305  1.0000
  H   H340      1.0  0.56605  0.28392  0.10433  1.0000
  H   H341      1.0  0.59189  0.32447  0.22231  1.0000
  H   H342      1.0  0.49086  0.3263699999999999  0.20291  1.0000
  H   H343      1.0  0.44139  0.29037  0.24822  1.0000
  H   H344      1.0  0.44699  0.2346699999999999  0.23642  1.0000
  H   H345      1.0  0.51302  0.20291  0.2787  1.0000
  H   H346      1.0  0.70939  0.26533  0.34882  1.0000
  H   H347      1.0  0.72138  0.34416  0.37743  1.0000
  H   H348      1.0  0.80987  0.3687  0.36313  1.0000
  H   H349      1.0  0.81272  0.31406  0.36093  1.0000
  H   H350      1.0  0.70094  0.36443  0.27709  1.0000
  H   H351      1.0  0.66004  0.38647  0.32301  1.0000
  H   H352      1.0  0.7684399999999998  0.39208  0.31302  1.0000
  H   H353      1.0  0.85816  0.3235599999999999  0.29069  1.0000
  H   H354      1.0  0.81898  0.27461  0.2963  1.0000
  H   H355      1.0  0.77679  0.29592  0.26087  1.0000
  H   H356      1.0  0.58359  0.3282499999999999  0.27848  1.0000
  H   H357      1.0  0.65793  0.2515199999999999  0.22193000000000002  1.0000
  H   H358      1.0  0.60241  0.20425000000000001  0.20079  1.0000
  H   H359      1.0  0.41296  0.25824  0.17246  1.0000
  H   H360      1.0  0.4579699999999999  0.2082  0.17093  1.0000
  C   C297      1.0  0.54942  0.77834  0.91141  1.0000
  C   C298      1.0  0.53235  0.75083  0.87111  1.0000
  C   C299      1.0  0.61481  0.73102  0.85284  1.0000
  C   C300      1.0  0.5982299999999998  0.69959  0.81516  1.0000
  C   C301      1.0  0.53488  0.66588  0.81802  1.0000
  C   C302      1.0  0.45218  0.68747  0.83336  1.0000
  C   C303      1.0  0.46750999999999987  0.71633  0.87223  1.0000
  C   C304      1.0  0.41818  0.7138699999999998  0.80831  1.0000
  C   C305      1.0  0.48182999999999987  0.74808  0.80515  1.0000
  C   C306      1.0  0.4429299999999999  0.7725999999999998  0.77832  1.0000
  C   C307      1.0  0.49678  0.79717  0.75783  1.0000
  C   C308      1.0  0.45931  0.8308899999999998  0.74732  1.0000
  C   C309      1.0  0.48275  0.83867  0.71357  1.0000
  C   C310      1.0  0.56406  0.8278  0.70081  1.0000
  C   C311      1.0  0.61253  0.80187  0.7173600000000001  1.0000
  C   C312      1.0  0.70314  0.7897099999999998  0.70686  1.0000
  C   C313      1.0  0.7043  0.75511  0.67045  1.0000
  C   C314      1.0  0.7491899999999998  0.7718599999999999  0.73572  1.0000
  C   C315      1.0  0.75123  0.82893  0.70406  1.0000
  C   C316      1.0  0.5692499999999998  0.7803099999999998  0.73847  1.0000
  C   C317      1.0  0.56412  0.7247299999999998  0.78996  1.0000
  C   C318      1.0  0.49688000000000004  0.77732  0.8453500000000002  1.0000
  H   H361      1.0  0.48996999999999996  0.79274  0.92395  1.0000
  H   H362      1.0  0.59096  0.8046100000000002  0.91006  1.0000
  H   H363      1.0  0.64914  0.7153799999999998  0.86984  1.0000
  H   H364      1.0  0.6577  0.7561499999999997  0.84964  1.0000
  H   H365      1.0  0.6574599999999998  0.68396  0.80337  1.0000
  H   H366      1.0  0.52456  0.64354  0.79031  1.0000
  H   H367      1.0  0.55966  0.64722  0.83634  1.0000
  H   H368      1.0  0.40595  0.66305  0.83472  1.0000
  H   H369      1.0  0.40781  0.7313399999999998  0.88401  1.0000
  H   H370      1.0  0.48822  0.69638  0.8900400000000002  1.0000
  H   H371      1.0  0.40418  0.69234  0.78059  1.0000
  H   H372      1.0  0.35832  0.7290999999999997  0.81971  1.0000
  H   H373      1.0  0.40806  0.74983  0.75608  1.0000
  H   H374      1.0  0.39438  0.79429  0.79424  1.0000
  H   H375      1.0  0.3978299999999999  0.8414  0.75803  1.0000
  H   H376      1.0  0.58558  0.83522  0.67615  1.0000
  H   H377      1.0  0.67353  0.7269300000000001  0.67479  1.0000
  H   H378      1.0  0.76876  0.7451199999999999  0.66135  1.0000
  H   H379      1.0  0.67025  0.76592  0.64904  1.0000
  H   H380      1.0  0.7492899999999998  0.79493  0.76342  1.0000
  H   H381      1.0  0.72329  0.74158  0.73791  1.0000
  H   H382      1.0  0.8140399999999998  0.76384  0.72666  1.0000
  H   H383      1.0  0.8179  0.82108  0.69873  1.0000
  H   H384      1.0  0.7274199999999997  0.84129  0.68147  1.0000
  H   H385      1.0  0.7461999999999998  0.85464  0.73022  1.0000
  H   H386      1.0  0.58878  0.7485499999999998  0.73497  1.0000
  H   H387      1.0  0.55381  0.70255  0.76214  1.0000
  H   H388      1.0  0.6132599999999998  0.7479199999999999  0.78929  1.0000
  H   H389      1.0  0.43757  0.79299  0.85696  1.0000
  H   H390      1.0  0.54094  0.8027499999999999  0.84421  1.0000
  C   C319      1.0  0.40056  0.7939699999999998  0.4027  1.0000
  C   C320      1.0  0.42584  0.75544  0.36776  1.0000
  C   C321      1.0  0.5214599999999998  0.74909  0.36842  1.0000
  C   C322      1.0  0.54997  0.71339  0.33498  1.0000
  C   C323      1.0  0.5093  0.67138  0.33491  1.0000
  C   C324      1.0  0.4148099999999999  0.6764599999999997  0.33299  1.0000
  C   C325      1.0  0.38584  0.7117000000000001  0.36632  1.0000
  C   C326      1.0  0.38894  0.6880599999999998  0.29737  1.0000
  C   C327      1.0  0.42988000000000004  0.7302099999999998  0.29593  1.0000
  C   C328      1.0  0.40143  0.74066  0.25868  1.0000
  C   C329      1.0  0.46593  0.75776  0.2369  1.0000
  C   C330      1.0  0.45234999999999986  0.79488  0.22520000000000004  1.0000
  C   C331      1.0  0.51095  0.80623  0.20173  1.0000
  C   C332      1.0  0.58618  0.78325  0.1945  1.0000
  C   C333      1.0  0.6055099999999998  0.7519199999999998  0.21173  1.0000
  C   C334      1.0  0.69351  0.7504  0.22722  1.0000
  C   C335      1.0  0.75845  0.7447999999999998  0.19638  1.0000
  C   C336      1.0  0.7078799999999997  0.71468  0.24602  1.0000
  C   C337      1.0  0.70616  0.79311  0.25677  1.0000
  C   C338      1.0  0.53911  0.7343399999999998  0.22536  1.0000
  C   C339      1.0  0.52517  0.72405  0.29928  1.0000
  C   C340      1.0  0.40204  0.76591  0.3307  1.0000
  H   H391      1.0  0.45592  0.80595  0.42015  1.0000
  H   H392      1.0  0.37793  0.82095  0.3928  1.0000
  H   H393      1.0  0.5404699999999998  0.7412800000000002  0.39426  1.0000
  H   H394      1.0  0.55354  0.7787199999999999  0.36801  1.0000
  H   H395      1.0  0.61878  0.7098899999999998  0.33587  1.0000
  H   H396      1.0  0.53094  0.64574  0.31074  1.0000
  H   H397      1.0  0.52677  0.66207  0.36007  1.0000
  H   H398      1.0  0.3848299999999999  0.6463200000000001  0.33346000000000003  1.0000
  H   H399      1.0  0.31855000000000006  0.7126199999999997  0.36154  1.0000
  H   H400      1.0  0.39833  0.70259  0.39221  1.0000
  H   H401      1.0  0.4080499999999999  0.66195  0.27305  1.0000
  H   H402      1.0  0.31988  0.69064  0.29608  1.0000
  H   H403      1.0  0.37721  0.7115099999999998  0.23903999999999997  1.0000
  H   H404      1.0  0.34707  0.76251  0.26456  1.0000
  H   H405      1.0  0.39684999999999987  0.81395  0.23352000000000003  1.0000
  H   H406      1.0  0.6348899999999997  0.79449  0.18024000000000004  1.0000
  H   H407      1.0  0.761  0.77347  0.18673  1.0000
  H   H408      1.0  0.7471599999999998  0.7162599999999999  0.17286  1.0000
  H   H409      1.0  0.82057  0.7415  0.20785  1.0000
  H   H410      1.0  0.67592  0.72119  0.27284  1.0000
  H   H411      1.0  0.68643  0.68447  0.22788  1.0000
  H   H412      1.0  0.7747199999999997  0.71129  0.25236  1.0000
  H   H413      1.0  0.76958  0.7963  0.26779  1.0000
  H   H414      1.0  0.6931899999999998  0.82051  0.24562000000000003  1.0000
  H   H415      1.0  0.66482  0.7961700000000002  0.28093  1.0000
  H   H416      1.0  0.54437  0.70205  0.22585  1.0000
  H   H417      1.0  0.54587  0.69622  0.27741  1.0000
  H   H418      1.0  0.5579499999999997  0.7530000000000001  0.29805  1.0000
  H   H419      1.0  0.3335799999999999  0.7707599999999998  0.3299  1.0000
  H   H420      1.0  0.43175  0.7959299999999999  0.32982  1.0000
  C   C341      1.0  0.4547099999999999  0.19053  0.82156  1.0000
  C   C342      1.0  0.50661  0.22763  0.81426  1.0000
  C   C343      1.0  0.45229999999999987  0.26684  0.81342  1.0000
  C   C344      1.0  0.50621  0.30171  0.80526  1.0000
  C   C345      1.0  0.57452  0.31499  0.83475  1.0000
  C   C346      1.0  0.62959  0.27644  0.83474  1.0000
  C   C347      1.0  0.57539  0.24214  0.84401  1.0000
  C   C348      1.0  0.67014  0.25914  0.7961  1.0000
  C   C349      1.0  0.6020899999999998  0.24551  0.76561  1.0000
  C   C350      1.0  0.64395  0.22701  0.72651  1.0000
  C   C351      1.0  0.59725  0.23425999999999994  0.69328  1.0000
  C   C352      1.0  0.6360599999999997  0.25354  0.66871  1.0000
  C   C353      1.0  0.5913899999999997  0.2607599999999999  0.63871  1.0000
  C   C354      1.0  0.50505  0.25462  0.63684  1.0000
  C   C355      1.0  0.46409  0.23830999999999997  0.66303  1.0000
  C   C356      1.0  0.36842  0.23948  0.66618  1.0000
  C   C357      1.0  0.33642  0.28425  0.66744  1.0000
  C   C358      1.0  0.33573  0.23001  0.70193  1.0000
  C   C359      1.0  0.33306  0.20662999999999995  0.63252  1.0000
  C   C360      1.0  0.51389  0.22248999999999997  0.68696  1.0000
  C   C361      1.0  0.54657  0.28506  0.7671  1.0000
  C   C362      1.0  0.54998  0.21089999999999995  0.77619  1.0000
  H   H421      1.0  0.4948699999999999  0.17116000000000006  0.83488  1.0000
  H   H422      1.0  0.4343  0.16874999999999996  0.79493  1.0000
  H   H423      1.0  0.42099  0.28018  0.84046  1.0000
  H   H424      1.0  0.40313  0.2576  0.79193  1.0000
  H   H425      1.0  0.46605999999999986  0.32950000000000007  0.80554  1.0000
  H   H426      1.0  0.61325  0.34025  0.82905  1.0000
  H   H427      1.0  0.54507  0.32835  0.8621  1.0000
  H   H428      1.0  0.67927  0.28613  0.85597  1.0000
  H   H429      1.0  0.61583  0.21513999999999991  0.84563  1.0000
  H   H430      1.0  0.5461199999999998  0.25465  0.87158  1.0000
  H   H431      1.0  0.7102399999999998  0.2838999999999999  0.79031  1.0000
  H   H432      1.0  0.71159  0.23197999999999994  0.79628  1.0000
  H   H433      1.0  0.70747  0.24014999999999995  0.72703  1.0000
  H   H434      1.0  0.65369  0.19249  0.7214  1.0000
  H   H435      1.0  0.70082  0.26248  0.67276  1.0000
  H   H436      1.0  0.4698999999999999  0.26417  0.61589  1.0000
  H   H437      1.0  0.36691  0.30795  0.6903800000000001  1.0000
  H   H438      1.0  0.34939  0.29255999999999993  0.6415  1.0000
  H   H439      1.0  0.26857  0.28756999999999994  0.67252  1.0000
  H   H440      1.0  0.3501499999999999  0.1971  0.70242  1.0000
  H   H441      1.0  0.36259  0.25263  0.72676  1.0000
  H   H442      1.0  0.2668  0.23381999999999994  0.70416  1.0000
  H   H443      1.0  0.26615  0.20156  0.63616  1.0000
  H   H444      1.0  0.34114  0.21675  0.60694  1.0000
  H   H445      1.0  0.36545  0.17584999999999995  0.62914  1.0000
  H   H446      1.0  0.4862499999999999  0.20416999999999993  0.703  1.0000
  H   H447      1.0  0.5844699999999998  0.31018  0.76067  1.0000
  H   H448      1.0  0.4954700000000001  0.27804  0.74677  1.0000
  H   H449      1.0  0.59146  0.1838200000000001  0.7769400000000001  1.0000
  H   H450      1.0  0.50187  0.19804999999999995  0.75539  1.0000
  C   C363      1.0  0.06715999999999997  0.7325699999999998  0.64496  1.0000
  C   C364      1.0  0.060500000000000005  0.75825  0.68751  1.0000
  C   C365      1.0  0.14949000000000004  0.7618899999999998  0.70399  1.0000
  C   C366      1.0  0.15190999999999993  0.79127  0.74312  1.0000
  C   C367      1.0  0.1167  0.8349799999999999  0.74331  1.0000
  C   C368      1.0  0.02517  0.83072  0.73062  1.0000
  C   C369      1.0  0.0186  0.8021999999999998  0.69103  1.0000
  C   C370      1.0  0.97474  0.81107  0.75589  1.0000
  C   C371      1.0  0.008109999999999997  0.76615  0.75514  1.0000
  C   C372      1.0  0.9473399999999998  0.75012  0.78175  1.0000
  C   C373      1.0  0.9729999999999999  0.72233  0.8068  1.0000
  C   C374      1.0  0.91322  0.6937999999999998  0.81325  1.0000
  C   C375      1.0  0.922  0.6755699999999998  0.84287  1.0000
  C   C376      1.0  0.9959999999999999  0.68189  0.86326  1.0000
  C   C377      1.0  0.055970000000000006  0.71071  0.85864  1.0000
  C   C378      1.0  0.13549  0.71705  0.88278  1.0000
  C   C379      1.0  0.11302999999999996  0.7332399999999999  0.9241599999999999  1.0000
  C   C380      1.0  0.19669  0.74883  0.87382  1.0000
  C   C381      1.0  0.18113999999999994  0.67414  0.87594  1.0000
  C   C382      1.0  0.03963  0.73302  0.83218  1.0000
  C   C383      1.0  0.09984  0.77223  0.76873  1.0000
  C   C384      1.0  0.008179999999999996  0.73728  0.71333  1.0000
  H   H451      1.0  0.0038799999999999985  0.72563  0.6333  1.0000
  H   H452      1.0  0.09818  0.70179  0.64325  1.0000
  H   H453      1.0  0.19268  0.7733599999999998  0.68702  1.0000
  H   H454      1.0  0.17364  0.73014  0.70436  1.0000
  H   H455      1.0  0.21779999999999994  0.79442  0.75268  1.0000
  H   H456      1.0  0.12088000000000002  0.8564399999999998  0.77172  1.0000
  H   H457      1.0  0.15405  0.8492  0.72504  1.0000
  H   H458      1.0  0.9989499999999999  0.86254  0.7321  1.0000
  H   H459      1.0  0.95218  0.79738  0.68301  1.0000
  H   H460      1.0  0.04228  0.8196599999999998  0.6723  1.0000
  H   H461      1.0  0.9764599999999999  0.83251  0.78451  1.0000
  H   H462      1.0  0.90874  0.8097999999999997  0.74753  1.0000
  H   H463      1.0  0.9191599999999999  0.77808  0.80179  1.0000
  H   H464      1.0  0.8935999999999998  0.7353299999999998  0.76471  1.0000
  H   H465      1.0  0.8553  0.68952  0.79784  1.0000
  H   H466      1.0  0.004419999999999997  0.66638  0.8847799999999999  1.0000
  H   H467      1.0  0.07852  0.76373  0.9298900000000001  1.0000
  H   H468      1.0  0.17021  0.73814  0.94153  1.0000
  H   H469      1.0  0.07442  0.71016  0.9330700000000001  1.0000
  H   H470      1.0  0.21298999999999996  0.73947  0.84402  1.0000
  H   H471      1.0  0.16956  0.7812199999999999  0.88137  1.0000
  H   H472      1.0  0.25535  0.7500999999999999  0.8898499999999999  1.0000
  H   H473      1.0  0.24284  0.67772  0.8898200000000002  1.0000
  H   H474      1.0  0.14494  0.6516099999999998  0.88686  1.0000
  H   H475      1.0  0.19066  0.6599699999999997  0.84584  1.0000
  H   H476      1.0  0.07599999999999997  0.76015  0.83311  1.0000
  H   H477      1.0  0.10302999999999997  0.79517  0.79636  1.0000
  H   H478      1.0  0.12831999999999993  0.74174  0.76985  1.0000
  H   H479      1.0  0.94367  0.73149  0.70255  1.0000
  H   H480      1.0  0.0355  0.70591  0.71253  1.0000
