data_image0
_chemical_formula_structural       EuOCO6COC2EuOCO6COC2EuOCO6COC2EuOCO6COC2EuOCO6COC2EuOCO6COC2EuOCO6COC2EuOCO6COC16H8C14H8C14H8C14H8C14H8C14H8C14H8C14H8C14H8C14H8C14H8C14H8C14H8C14H8C14H8C14H8
_chemical_formula_sum              "Eu8 O64 C256 H128"
_cell_length_a       36.5978
_cell_length_b       35.4536
_cell_length_c       13.5215
_cell_angle_alpha    82.3641
_cell_angle_beta     88.4452
_cell_angle_gamma    91.04230000000001

_space_group_name_H-M_alt    "P 1"
_space_group_IT_number       1

loop_
  _space_group_symop_operation_xyz
  'x, y, z'

loop_
  _atom_site_type_symbol
  _atom_site_label
  _atom_site_symmetry_multiplicity
  _atom_site_fract_x
  _atom_site_fract_y
  _atom_site_fract_z
  _atom_site_occupancy
  Eu  Eu1       1.0  0.33911  0.34662  0.96242  1.0000
  O   O1        1.0  0.33464  0.42652999999999996  0.85413  1.0000
  C   C1        1.0  0.29005  0.31916  0.8107  1.0000
  O   O2        1.0  0.39827  0.29456  0.05385  1.0000
  O   O3        1.0  0.39518  0.35847  0.022420000000000006  1.0000
  O   O4        1.0  0.32853  0.26282  0.03878  1.0000
  O   O5        1.0  0.31804  0.32768  0.76132  1.0000
  O   O6        1.0  0.28402  0.33422  0.8992000000000002  1.0000
  O   O7        1.0  0.31911  0.40166  0.0122  1.0000
  C   C2        1.0  0.3274  0.43223  0.93929  1.0000
  O   O8        1.0  0.31782  0.31534  0.11142  1.0000
  C   C3        1.0  0.3139  0.27645  0.10738  1.0000
  C   C4        1.0  0.41465  0.32507  0.04058  1.0000
  Eu  Eu2       1.0  0.6542  0.32862  0.006420000000000001  1.0000
  O   O9        1.0  0.67187  0.39064  0.1245  1.0000
  C   C5        1.0  0.71121  0.30441  0.15521000000000004  1.0000
  O   O10       1.0  0.58746  0.31244999999999995  0.12471999999999996  1.0000
  O   O11       1.0  0.59527  0.33947  0.9649800000000001  1.0000
  O   O12       1.0  0.64029  0.25718  0.90115  1.0000
  O   O13       1.0  0.68441  0.31129  0.2047  1.0000
  O   O14       1.0  0.71233  0.31604  0.0531  1.0000
  O   O15       1.0  0.66872  0.39123  0.95816  1.0000
  C   C6        1.0  0.67167  0.40952  0.04244  1.0000
  O   O16       1.0  0.66965  0.31335  0.85283  1.0000
  C   C7        1.0  0.66585  0.2741799999999999  0.8544500000000003  1.0000
  C   C8        1.0  0.57322  0.32602  0.0479700000000003  1.0000
  Eu  Eu3       1.0  0.34569  0.67061  0.03333  1.0000
  O   O17       1.0  0.33339  0.59068  0.13445  1.0000
  C   C9        1.0  0.28828  0.68154  0.19158000000000003  1.0000
  O   O18       1.0  0.41355  0.71384  0.07210000000000005  1.0000
  O   O19       1.0  0.40437  0.6678699999999997  0.9746200000000003  1.0000
  O   O20       1.0  0.3094  0.7466199999999998  0.98725  1.0000
  O   O21       1.0  0.31391  0.6714  0.24356  1.0000
  O   O22       1.0  0.28737  0.67294  0.09453000000000003  1.0000
  O   O23       1.0  0.33227  0.61556  0.9719  1.0000
  C   C10       1.0  0.3318  0.58506  0.04777000000000001  1.0000
  O   O24       1.0  0.32856  0.7043399999999999  0.8871200000000002  1.0000
  C   C11       1.0  0.30861  0.73587  0.9055200000000001  1.0000
  C   C12       1.0  0.42695  0.68997  0.026010000000000092  1.0000
  Eu  Eu4       1.0  0.66417  0.65549  0.04385  1.0000
  O   O25       1.0  0.59407  0.66389  0.15378000000000006  1.0000
  C   C13       1.0  0.70309  0.71215  0.15575  1.0000
  O   O26       1.0  0.70825  0.58581  0.07708000000000004  1.0000
  O   O27       1.0  0.65729  0.5979399999999999  0.9892600000000001  1.0000
  O   O28       1.0  0.74182  0.66426  0.9693100000000002  1.0000
  O   O29       1.0  0.71935  0.68251  0.17406  1.0000
  O   O30       1.0  0.67171  0.71289  0.09998  1.0000
  O   O31       1.0  0.60754  0.67124  0.9886800000000001  1.0000
  C   C14       1.0  0.58288  0.66941  0.06912  1.0000
  O   O32       1.0  0.68929  0.68059  0.89319  1.0000
  C   C15       1.0  0.72719  0.68175  0.89805  1.0000
  C   C16       1.0  0.68314  0.57332  0.032769999999999966  1.0000
  Eu  Eu5       1.0  0.84283  0.1631  0.55483  1.0000
  O   O33       1.0  0.8623  0.08402  0.6421100000000002  1.0000
  C   C17       1.0  0.78666  0.20443000000000003  0.66685  1.0000
  O   O34       1.0  0.90847  0.21155  0.4623300000000001  1.0000
  O   O35       1.0  0.9010800000000001  0.14858  0.51381  1.0000
  O   O36       1.0  0.83135  0.24265  0.45808  1.0000
  O   O37       1.0  0.81641  0.21525999999999998  0.6913100000000001  1.0000
  O   O38       1.0  0.78479  0.17808  0.59956  1.0000
  O   O39       1.0  0.82351  0.10492  0.52089  1.0000
  C   C18       1.0  0.84348  0.07650000000000001  0.57407  1.0000
  O   O40       1.0  0.83257  0.18739  0.39384000000000013  1.0000
  C   C19       1.0  0.82124  0.22454  0.39294  1.0000
  C   C20       1.0  0.9226900000000001  0.18125  0.4890500000000001  1.0000
  Eu  Eu6       1.0  0.83611  0.84171  0.43482  1.0000
  O   O41       1.0  0.84597  0.92371  0.36193  1.0000
  C   C21       1.0  0.7664599999999999  0.8410499999999999  0.31769  1.0000
  O   O42       1.0  0.89748  0.78617  0.4970500000000001  1.0000
  O   O43       1.0  0.89758  0.8497  0.44904000000000005  1.0000
  O   O44       1.0  0.80533  0.76339  0.4904700000000001  1.0000
  O   O45       1.0  0.77488  0.87158  0.26919000000000004  1.0000
  O   O46       1.0  0.77484  0.8343499999999999  0.41783  1.0000
  O   O47       1.0  0.8269  0.8939099999999999  0.51259  1.0000
  C   C22       1.0  0.83739  0.92637  0.44834  1.0000
  O   O48       1.0  0.83026  0.80426  0.58517  1.0000
  C   C23       1.0  0.80923  0.77216  0.57372  1.0000
  C   C24       1.0  0.91526  0.8155199999999999  0.47478000000000004  1.0000
  Eu  Eu7       1.0  0.15469  0.83397  0.46352  1.0000
  O   O49       1.0  0.08514999999999999  0.8441  0.36846  1.0000
  C   C25       1.0  0.17659  0.77907  0.32208  1.0000
  O   O50       1.0  0.19923  0.90417  0.41883  1.0000
  O   O51       1.0  0.14551  0.89321  0.50441  1.0000
  O   O52       1.0  0.23163  0.82227  0.51443  1.0000
  O   O53       1.0  0.16579  0.8053799999999999  0.26372  1.0000
  O   O54       1.0  0.1647  0.77505  0.4212  1.0000
  O   O55       1.0  0.09744  0.81606  0.523  1.0000
  C   C26       1.0  0.07326  0.82813  0.4485  1.0000
  O   O56       1.0  0.18057000000000004  0.81543  0.6128600000000001  1.0000
  C   C27       1.0  0.21791  0.81128  0.59644  1.0000
  C   C28       1.0  0.17385000000000003  0.91716  0.46262000000000003  1.0000
  Eu  Eu8       1.0  0.15946  0.15658999999999998  0.55091  1.0000
  O   O57       1.0  0.08419  0.13696999999999995  0.6245400000000002  1.0000
  C   C29       1.0  0.18668  0.2084  0.69508  1.0000
  O   O58       1.0  0.20616  0.09697999999999998  0.46508  1.0000
  O   O59       1.0  0.14585  0.09876999999999998  0.503  1.0000
  O   O60       1.0  0.23834000000000002  0.16725999999999996  0.48952  1.0000
  O   O61       1.0  0.17836  0.17953  0.7511  1.0000
  O   O62       1.0  0.17296  0.21392  0.59982  1.0000
  O   O63       1.0  0.10496  0.1783  0.4929000000000001  1.0000
  C   C30       1.0  0.07694  0.15975  0.55256  1.0000
  O   O64       1.0  0.18738  0.1793  0.40204  1.0000
  C   C31       1.0  0.22488999999999998  0.18308  0.41408  1.0000
  C   C32       1.0  0.17718  0.07958999999999998  0.48066  1.0000
  C   C33       1.0  0.32836  0.47145  0.96616  1.0000
  C   C34       1.0  0.36151  0.49323  0.95513  1.0000
  C   C35       1.0  0.39423  0.47826999999999986  0.9194400000000003  1.0000
  C   C36       1.0  0.42663  0.4998699999999999  0.9084900000000002  1.0000
  C   C37       1.0  0.42742  0.5366  0.93362  1.0000
  C   C38       1.0  0.39587  0.55187  0.97052  1.0000
  C   C39       1.0  0.36252  0.53064  0.98224  1.0000
  C   C40       1.0  0.33069  0.5458  0.02228  1.0000
  C   C41       1.0  0.29784  0.52382  0.03556  1.0000
  C   C42       1.0  0.26579  0.53832  0.07623  1.0000
  C   C43       1.0  0.23325000000000004  0.517  0.08687  1.0000
  C   C44       1.0  0.23173999999999997  0.48106  0.056560000000000006  1.0000
  C   C45       1.0  0.26287  0.46604  0.01642  1.0000
  C   C46       1.0  0.29651  0.48672  0.00634  1.0000
  H   H1        1.0  0.39541  0.44963999999999993  0.90043  1.0000
  H   H2        1.0  0.45131  0.48797  0.8807700000000002  1.0000
  H   H3        1.0  0.45266000000000006  0.55326  0.92529  1.0000
  H   H4        1.0  0.39806  0.58036  0.9904700000000002  1.0000
  H   H5        1.0  0.26549  0.56628  0.10003  1.0000
  H   H6        1.0  0.20899  0.52852  0.11816  1.0000
  H   H7        1.0  0.20629  0.46476999999999996  0.06393  1.0000
  H   H8        1.0  0.26005  0.43821  0.99267  1.0000
  C   C47       1.0  0.45515  0.32641  0.04067  1.0000
  C   C48       1.0  0.47362  0.34622  0.10962000000000001  1.0000
  C   C49       1.0  0.4540100000000001  0.36469  0.18034  1.0000
  C   C50       1.0  0.47222  0.3847  0.24685  1.0000
  C   C51       1.0  0.51015  0.38676999999999995  0.24473000000000006  1.0000
  C   C52       1.0  0.53018  0.36842  0.17695  1.0000
  C   C53       1.0  0.5125  0.34718999999999994  0.10978  1.0000
  C   C54       1.0  0.53284  0.32722  0.04333000000000009  1.0000
  C   C55       1.0  0.5144  0.30725  0.9746800000000001  1.0000
  C   C56       1.0  0.53386  0.28626  0.9091  1.0000
  C   C57       1.0  0.51573  0.2674299999999999  0.8401300000000003  1.0000
  C   C58       1.0  0.47796  0.269  0.8346400000000002  1.0000
  C   C59       1.0  0.45801  0.28877  0.8994200000000002  1.0000
  C   C60       1.0  0.47559  0.30751  0.97194  1.0000
  H   H9        1.0  0.4245  0.36371  0.1859  1.0000
  H   H10       1.0  0.45676000000000005  0.39868  0.3003  1.0000
  H   H11       1.0  0.52413  0.40247  0.29639  1.0000
  H   H12       1.0  0.55963  0.37116999999999994  0.17795  1.0000
  H   H13       1.0  0.56324  0.28384  0.91043  1.0000
  H   H14       1.0  0.5311  0.25166  0.7903900000000003  1.0000
  H   H15       1.0  0.46397  0.25464  0.78029  1.0000
  H   H16       1.0  0.42873  0.28922  0.8912700000000002  1.0000
  C   C61       1.0  0.6735  0.45166  0.03372  1.0000
  C   C62       1.0  0.64609  0.47127  0.08145  1.0000
  C   C63       1.0  0.61518  0.45167  0.13029  1.0000
  C   C64       1.0  0.58923  0.47072  0.18101000000000003  1.0000
  C   C65       1.0  0.59321  0.50956  0.18385000000000007  1.0000
  C   C66       1.0  0.62271  0.5298  0.13411  1.0000
  C   C67       1.0  0.64933  0.5113  0.0809  1.0000
  C   C68       1.0  0.67926  0.53188  0.029689999999999998  1.0000
  C   C69       1.0  0.70584  0.51257  0.97848  1.0000
  C   C70       1.0  0.73533  0.5327  0.92412  1.0000
  C   C71       1.0  0.76199  0.51358  0.8760600000000002  1.0000
  C   C72       1.0  0.75998  0.47420999999999996  0.8810500000000002  1.0000
  C   C73       1.0  0.73104  0.45366999999999996  0.93315  1.0000
  C   C74       1.0  0.70321  0.47235000000000005  0.9813700000000002  1.0000
  H   H17       1.0  0.6106  0.42149  0.12987000000000004  1.0000
  H   H18       1.0  0.56601  0.45523  0.21878  1.0000
  H   H19       1.0  0.57338  0.5241199999999999  0.22487000000000004  1.0000
  H   H20       1.0  0.62444  0.55997  0.13881000000000002  1.0000
  H   H21       1.0  0.7381  0.56335  0.91794  1.0000
  H   H22       1.0  0.78444  0.52943  0.8352000000000002  1.0000
  H   H23       1.0  0.78093  0.4594599999999999  0.8442600000000002  1.0000
  H   H24       1.0  0.73096  0.42309  0.93534  1.0000
  C   C75       1.0  0.54319  0.67375  0.05237  1.0000
  C   C76       1.0  0.53006  0.7079  0.9996100000000002  1.0000
  C   C77       1.0  0.55421  0.73834  0.96121  1.0000
  C   C78       1.0  0.54121  0.77151  0.90794  1.0000
  C   C79       1.0  0.50406  0.77524  0.8917800000000001  1.0000
  C   C80       1.0  0.47954  0.74613  0.93048  1.0000
  C   C81       1.0  0.49189  0.71239  0.98639  1.0000
  C   C82       1.0  0.46679  0.68345  0.029039999999999958  1.0000
  C   C83       1.0  0.47993  0.64903  0.08019  1.0000
  C   C84       1.0  0.45550000000000007  0.61958  0.12346  1.0000
  C   C85       1.0  0.46842  0.58567  0.17287000000000002  1.0000
  C   C86       1.0  0.50574  0.58018  0.17999000000000007  1.0000
  C   C87       1.0  0.53047  0.6087199999999999  0.13891000000000003  1.0000
  C   C88       1.0  0.51815  0.64393  0.09039000000000003  1.0000
  H   H25       1.0  0.58333  0.73712  0.97215  1.0000
  H   H26       1.0  0.5601  0.79443  0.87885  1.0000
  H   H27       1.0  0.49413000000000007  0.80092  0.84956  1.0000
  H   H28       1.0  0.4509  0.75028  0.91555  1.0000
  H   H29       1.0  0.4262  0.62231  0.12012000000000002  1.0000
  H   H30       1.0  0.44933000000000006  0.5635  0.2056  1.0000
  H   H31       1.0  0.51553  0.55366  0.21798  1.0000
  H   H32       1.0  0.55922  0.60271  0.14543  1.0000
  C   C89       1.0  0.83915  0.9638499999999999  0.48522  1.0000
  C   C90       1.0  0.87307  0.98402  0.4831400000000001  1.0000
  C   C91       1.0  0.90602  0.9675399999999998  0.45417000000000013  1.0000
  C   C92       1.0  0.93915  0.98774  0.44973000000000013  1.0000
  C   C93       1.0  0.9403  0.024669999999999997  0.47334000000000004  1.0000
  C   C94       1.0  0.9084499999999999  0.0414  0.50341  1.0000
  C   C95       1.0  0.87451  0.021159999999999995  0.5116  1.0000
  C   C96       1.0  0.84232  0.03736  0.5469  1.0000
  C   C97       1.0  0.80887  0.016249999999999994  0.5547900000000001  1.0000
  C   C98       1.0  0.77689  0.030730000000000007  0.59591  1.0000
  C   C99       1.0  0.74391  0.010209999999999993  0.60246  1.0000
  C   C100      1.0  0.74186  0.97513  0.56756  1.0000
  C   C101      1.0  0.77296  0.95999  0.52743  1.0000
  C   C102      1.0  0.8071  0.9797499999999999  0.5223800000000001  1.0000
  H   H33       1.0  0.90671  0.93879  0.43590000000000007  1.0000
  H   H34       1.0  0.96405  0.97468  0.4275  1.0000
  H   H35       1.0  0.96606  0.04034999999999999  0.46923  1.0000
  H   H36       1.0  0.9109400000000001  0.07024  0.52042  1.0000
  H   H37       1.0  0.77709  0.0578  0.62453  1.0000
  H   H38       1.0  0.7198  0.021670000000000002  0.63461  1.0000
  H   H39       1.0  0.71607  0.95946  0.5719500000000001  1.0000
  H   H40       1.0  0.7698  0.93272  0.5009  1.0000
  C   C103      1.0  0.0334  0.8216699999999999  0.46468  1.0000
  C   C104      1.0  0.01332  0.84395  0.52551  1.0000
  C   C105      1.0  0.031130000000000005  0.87051  0.57832  1.0000
  C   C106      1.0  0.01138  0.89197  0.63943  1.0000
  C   C107      1.0  0.9736199999999999  0.8872500000000001  0.65007  1.0000
  C   C108      1.0  0.95536  0.86162  0.5981300000000002  1.0000
  C   C109      1.0  0.9745800000000001  0.84028  0.53305  1.0000
  C   C110      1.0  0.95584  0.8155199999999998  0.4761400000000001  1.0000
  C   C111      1.0  0.9761399999999999  0.79252  0.41708  1.0000
  C   C112      1.0  0.95865  0.76744  0.35897  1.0000
  C   C113      1.0  0.9788599999999998  0.74425  0.30354  1.0000
  C   C114      1.0  0.01684  0.7457099999999999  0.30344000000000004  1.0000
  C   C115      1.0  0.0348  0.77094  0.35701000000000005  1.0000
  C   C116      1.0  0.015  0.79505  0.4134  1.0000
  H   H41       1.0  0.060489999999999995  0.8750000000000001  0.57305  1.0000
  H   H42       1.0  0.02544  0.9121299999999999  0.67934  1.0000
  H   H43       1.0  0.9583900000000001  0.9035400000000001  0.69876  1.0000
  H   H44       1.0  0.9260799999999999  0.85855  0.6105600000000002  1.0000
  H   H45       1.0  0.9292600000000001  0.76548  0.35493  1.0000
  H   H46       1.0  0.9650399999999999  0.72504  0.26028  1.0000
  H   H47       1.0  0.03245  0.72747  0.26084  1.0000
  H   H48       1.0  0.0644  0.77126  0.3540100000000001  1.0000
  C   C117      1.0  0.17545  0.037939999999999995  0.4778900000000001  1.0000
  C   C118      1.0  0.15176  0.02238  0.41166  1.0000
  C   C119      1.0  0.1299  0.04599000000000001  0.34547  1.0000
  C   C120      1.0  0.10665  0.030500000000000003  0.2808  1.0000
  C   C121      1.0  0.10481  0.9913899999999999  0.27964  1.0000
  C   C122      1.0  0.12652000000000002  0.9675  0.34246000000000004  1.0000
  C   C123      1.0  0.15039  0.9824200000000001  0.40899000000000013  1.0000
  C   C124      1.0  0.17326  0.95827  0.4707  1.0000
  C   C125      1.0  0.19638  0.9736  0.53818  1.0000
  C   C126      1.0  0.21826  0.94969  0.6034400000000001  1.0000
  C   C127      1.0  0.24061000000000002  0.9646499999999999  0.67096  1.0000
  C   C128      1.0  0.24137  0.0035299999999999962  0.67591  1.0000
  C   C129      1.0  0.21989  0.027719999999999998  0.6131400000000001  1.0000
  C   C130      1.0  0.19735  0.013440000000000002  0.54239  1.0000
  H   H49       1.0  0.13074  0.07663  0.34181  1.0000
  H   H50       1.0  0.09015  0.04898  0.23079000000000005  1.0000
  H   H51       1.0  0.08676  0.9795000000000001  0.22906  1.0000
  H   H52       1.0  0.12446  0.93731  0.3379  1.0000
  H   H53       1.0  0.218  0.91917  0.6038  1.0000
  H   H54       1.0  0.25713  0.9459300000000002  0.72038  1.0000
  H   H55       1.0  0.25851  0.01503  0.72917  1.0000
  H   H56       1.0  0.22097999999999998  0.05755999999999999  0.62192  1.0000
  C   C131      1.0  0.96287  0.17886  0.4976300000000001  1.0000
  C   C132      1.0  0.98256  0.15379999999999996  0.4434400000000001  1.0000
  C   C133      1.0  0.96532  0.13425999999999996  0.37204000000000004  1.0000
  C   C134      1.0  0.98465  0.10922  0.32016000000000006  1.0000
  C   C135      1.0  0.02145  0.10316  0.3377200000000001  1.0000
  C   C136      1.0  0.03927  0.12235  0.40661  1.0000
  C   C137      1.0  0.02037  0.1481  0.46004000000000006  1.0000
  C   C138      1.0  0.03841  0.16775  0.52974  1.0000
  C   C139      1.0  0.019220000000000004  0.19396000000000002  0.58086  1.0000
  C   C140      1.0  0.03712  0.21467999999999998  0.64866  1.0000
  C   C141      1.0  0.01807  0.23973999999999998  0.70096  1.0000
  C   C142      1.0  0.9808500000000001  0.24447999999999998  0.68773  1.0000
  C   C143      1.0  0.96251  0.22447000000000003  0.6214400000000001  1.0000
  C   C144      1.0  0.98127  0.19934999999999997  0.56555  1.0000
  H   H57       1.0  0.9368700000000001  0.13832  0.3546900000000001  1.0000
  H   H58       1.0  0.97097  0.09442999999999999  0.26612  1.0000
  H   H59       1.0  0.03629  0.08362  0.29736  1.0000
  H   H60       1.0  0.06799  0.11688999999999998  0.4172  1.0000
  H   H61       1.0  0.06601  0.21175  0.6620700000000003  1.0000
  H   H62       1.0  0.0322  0.25535  0.75252  1.0000
  H   H63       1.0  0.96607  0.2637  0.7293100000000001  1.0000
  H   H64       1.0  0.9335000000000001  0.22893  0.61541  1.0000
  C   C145      1.0  0.21280999999999997  0.23660999999999996  0.7259800000000002  1.0000
  C   C146      1.0  0.20191  0.27449  0.7308800000000002  1.0000
  C   C147      1.0  0.16562  0.28573  0.71115  1.0000
  C   C148      1.0  0.15519  0.32315  0.71439  1.0000
  C   C149      1.0  0.18047  0.35013  0.7374200000000002  1.0000
  C   C150      1.0  0.21625  0.33977  0.7585400000000002  1.0000
  C   C151      1.0  0.22751  0.30186999999999997  0.7569900000000003  1.0000
  C   C152      1.0  0.2637  0.29112  0.7800000000000002  1.0000
  C   C153      1.0  0.2745  0.25308  0.77629  1.0000
  C   C154      1.0  0.31015  0.24117000000000002  0.80218  1.0000
  C   C155      1.0  0.32088  0.20402999999999993  0.79651  1.0000
  C   C156      1.0  0.29662  0.17795  0.76459  1.0000
  C   C157      1.0  0.26126  0.18865999999999997  0.73994  1.0000
  C   C158      1.0  0.24923  0.22597999999999993  0.7474200000000002  1.0000
  H   H65       1.0  0.14485  0.26578  0.69353  1.0000
  H   H66       1.0  0.12735  0.3312899999999999  0.6987100000000002  1.0000
  H   H67       1.0  0.17231  0.37923  0.73924  1.0000
  H   H68       1.0  0.23491  0.36186  0.77558  1.0000
  H   H69       1.0  0.33014  0.26019  0.82779  1.0000
  H   H70       1.0  0.34824  0.19548999999999997  0.81661  1.0000
  H   H71       1.0  0.3052  0.1492  0.75928  1.0000
  H   H72       1.0  0.24367000000000003  0.16725999999999996  0.71485  1.0000
  C   C159      1.0  0.69401  0.25321  0.8041300000000002  1.0000
  C   C160      1.0  0.71527  0.22554000000000002  0.86102  1.0000
  C   C161      1.0  0.70901  0.21569  0.96527  1.0000
  C   C162      1.0  0.72952  0.18793999999999997  0.01994000000000007  1.0000
  C   C163      1.0  0.75689  0.16963999999999999  0.9729000000000002  1.0000
  C   C164      1.0  0.76439  0.17945  0.87119  1.0000
  C   C165      1.0  0.74428  0.20779000000000003  0.81386  1.0000
  C   C166      1.0  0.75297  0.21871999999999994  0.7112700000000002  1.0000
  C   C167      1.0  0.73109  0.24546  0.65392  1.0000
  C   C168      1.0  0.73869  0.25636  0.55099  1.0000
  C   C169      1.0  0.71717  0.28261  0.49450000000000005  1.0000
  C   C170      1.0  0.68747  0.29835  0.5389400000000001  1.0000
  C   C171      1.0  0.6795  0.28844  0.64053  1.0000
  C   C172      1.0  0.70133  0.26241  0.70014  1.0000
  H   H73       1.0  0.68839  0.2292  0.00621000000000005  1.0000
  H   H74       1.0  0.72409  0.18043  0.09918000000000005  1.0000
  H   H75       1.0  0.77253  0.14788  0.015509999999999914  1.0000
  H   H76       1.0  0.78597  0.16437  0.83797  1.0000
  H   H77       1.0  0.76127  0.24469  0.51326  1.0000
  H   H78       1.0  0.72347  0.29071  0.4158500000000001  1.0000
  H   H79       1.0  0.67058  0.31842  0.49455  1.0000
  H   H80       1.0  0.65593  0.30125  0.6714600000000001  1.0000
  C   C173      1.0  0.79537  0.2417  0.3179800000000001  1.0000
  C   C174      1.0  0.80395  0.27763  0.26207  1.0000
  C   C175      1.0  0.83956  0.29399  0.26145  1.0000
  C   C176      1.0  0.84756  0.33004  0.21026  1.0000
  C   C177      1.0  0.82047  0.35058  0.15855  1.0000
  C   C178      1.0  0.78535  0.33492  0.15629  1.0000
  C   C179      1.0  0.77659  0.29809  0.20617  1.0000
  C   C180      1.0  0.74103  0.28189  0.20365000000000005  1.0000
  C   C181      1.0  0.73327  0.24462999999999996  0.25258  1.0000
  C   C182      1.0  0.69851  0.22697999999999996  0.246  1.0000
  C   C183      1.0  0.69014  0.19121  0.2981  1.0000
  C   C184      1.0  0.71607  0.17208  0.35739  1.0000
  C   C185      1.0  0.75068  0.1884  0.36397  1.0000
  C   C186      1.0  0.76025  0.22457999999999995  0.3109  1.0000
  H   H81       1.0  0.86166  0.27898  0.29976  1.0000
  H   H82       1.0  0.8749  0.34216  0.21098  1.0000
  H   H83       1.0  0.82673  0.37873  0.11959  1.0000
  H   H84       1.0  0.76529  0.35212  0.1152  1.0000
  H   H85       1.0  0.67743  0.24043000000000003  0.20000000000000007  1.0000
  H   H86       1.0  0.66337  0.1783  0.2925  1.0000
  H   H87       1.0  0.70939  0.14435999999999996  0.39832000000000006  1.0000
  H   H88       1.0  0.76942  0.17207999999999998  0.4115800000000001  1.0000
  C   C187      1.0  0.20491  0.75377  0.28984  1.0000
  C   C188      1.0  0.2412  0.76806  0.27045  1.0000
  C   C189      1.0  0.25081  0.80612  0.28168  1.0000
  C   C190      1.0  0.28637  0.82021  0.26144  1.0000
  C   C191      1.0  0.31315  0.79688  0.22992  1.0000
  C   C192      1.0  0.3046  0.75924  0.21911  1.0000
  C   C193      1.0  0.2687  0.74402  0.23956  1.0000
  C   C194      1.0  0.25984  0.70575  0.22825  1.0000
  C   C195      1.0  0.22361000000000003  0.69145  0.24801000000000006  1.0000
  C   C196      1.0  0.21414  0.65332  0.23780000000000007  1.0000
  C   C197      1.0  0.17844  0.6394  0.25731  1.0000
  C   C198      1.0  0.15153  0.66297  0.28748  1.0000
  C   C199      1.0  0.16012000000000004  0.7006  0.29854  1.0000
  C   C200      1.0  0.19612  0.71549  0.27944  1.0000
  H   H89       1.0  0.2310599999999999  0.82549  0.30616000000000004  1.0000
  H   H90       1.0  0.29315  0.84942  0.27009  1.0000
  H   H91       1.0  0.34072  0.80799  0.21382  1.0000
  H   H92       1.0  0.32649  0.74241  0.19406000000000007  1.0000
  H   H93       1.0  0.23417000000000002  0.63387  0.21496  1.0000
  H   H94       1.0  0.17163  0.61016  0.24902000000000005  1.0000
  H   H95       1.0  0.12383999999999998  0.65203  0.3024000000000001  1.0000
  H   H96       1.0  0.13824  0.71789  0.3218600000000001  1.0000
  C   C201      1.0  0.24072  0.7924  0.6766200000000001  1.0000
  C   C202      1.0  0.26988  0.81275  0.71409  1.0000
  C   C203      1.0  0.27703  0.85165  0.6787  1.0000
  C   C204      1.0  0.30607  0.8714100000000001  0.71423  1.0000
  C   C205      1.0  0.32856  0.8530299999999998  0.7855700000000002  1.0000
  C   C206      1.0  0.32204  0.81485  0.82246  1.0000
  C   C207      1.0  0.29244  0.79413  0.7887300000000003  1.0000
  C   C208      1.0  0.28543  0.7554  0.82712  1.0000
  C   C209      1.0  0.25592  0.73522  0.79063  1.0000
  C   C210      1.0  0.24747999999999998  0.69688  0.82979  1.0000
  C   C211      1.0  0.21928  0.67676  0.7915700000000002  1.0000
  C   C212      1.0  0.19889  0.69418  0.7139  1.0000
  C   C213      1.0  0.20602  0.7320999999999999  0.67537  1.0000
  C   C214      1.0  0.23401999999999998  0.75354  0.71406  1.0000
  H   H97       1.0  0.26039  0.86728  0.6232500000000002  1.0000
  H   H98       1.0  0.31121  0.9011  0.68591  1.0000
  H   H99       1.0  0.35124  0.86844  0.81246  1.0000
  H   H100      1.0  0.34058  0.8018400000000001  0.87717  1.0000
  H   H101      1.0  0.26235  0.6819799999999999  0.8904900000000002  1.0000
  H   H102      1.0  0.21336  0.6474199999999999  0.8220600000000001  1.0000
  H   H103      1.0  0.1773  0.6783  0.6835900000000001  1.0000
  H   H104      1.0  0.18945  0.74418  0.61464  1.0000
  C   C215      1.0  0.74864  0.81045  0.2702  1.0000
  C   C216      1.0  0.76653  0.79559  0.18962  1.0000
  C   C217      1.0  0.80072  0.81074  0.14915  1.0000
  C   C218      1.0  0.8176  0.79667  0.06838  1.0000
  C   C219      1.0  0.80145  0.7668399999999999  0.027430000000000006  1.0000
  C   C220      1.0  0.76861  0.7505  0.06805  1.0000
  C   C221      1.0  0.75067  0.7642899999999999  0.14952  1.0000
  C   C222      1.0  0.71741  0.74722  0.19108000000000003  1.0000
  C   C223      1.0  0.699  0.76266  0.26935  1.0000
  C   C224      1.0  0.66531  0.74675  0.31051  1.0000
  C   C225      1.0  0.64713  0.76208  0.38721  1.0000
  C   C226      1.0  0.66207  0.79334  0.42499  1.0000
  C   C227      1.0  0.69536  0.8094  0.38653  1.0000
  C   C228      1.0  0.71456  0.79432  0.30889  1.0000
  H   H105      1.0  0.81494  0.83345  0.17900000000000005  1.0000
  H   H106      1.0  0.84343  0.80895  0.03756  1.0000
  H   H107      1.0  0.81449  0.7560799999999999  0.9643400000000001  1.0000
  H   H108      1.0  0.75739  0.72714  0.03443  1.0000
  H   H109      1.0  0.6526  0.72236  0.28386  1.0000
  H   H110      1.0  0.62122  0.74978  0.41713  1.0000
  H   H111      1.0  0.64778  0.80528  0.48431000000000013  1.0000
  H   H112      1.0  0.70554  0.8339399999999999  0.4177300000000001  1.0000
  C   C229      1.0  0.24822  0.20631  0.33604  1.0000
  C   C230      1.0  0.24492000000000003  0.20151999999999998  0.23409000000000005  1.0000
  C   C231      1.0  0.22199  0.17255  0.20482  1.0000
  C   C232      1.0  0.2161  0.17022  0.10449  1.0000
  C   C233      1.0  0.23279  0.19648  0.03116  1.0000
  C   C234      1.0  0.25686  0.22408999999999998  0.05751  1.0000
  C   C235      1.0  0.26484  0.22601  0.15876  1.0000
  C   C236      1.0  0.29179  0.2519  0.18586000000000005  1.0000
  C   C237      1.0  0.29689  0.25482  0.28836  1.0000
  C   C238      1.0  0.325  0.27833  0.31901000000000007  1.0000
  C   C239      1.0  0.32778  0.28391  0.4185700000000001  1.0000
  C   C240      1.0  0.30281  0.26630999999999994  0.48984  1.0000
  C   C241      1.0  0.27597  0.24160999999999996  0.46277  1.0000
  C   C242      1.0  0.27352  0.23393  0.36282  1.0000
  H   H113      1.0  0.20862  0.1511  0.25861  1.0000
  H   H114      1.0  0.19816  0.14818  0.08358  1.0000
  H   H115      1.0  0.22737  0.19519  0.9533900000000001  1.0000
  H   H116      1.0  0.26863  0.24399  0.9973300000000002  1.0000
  H   H117      1.0  0.34542  0.29244  0.26705  1.0000
  H   H118      1.0  0.34916  0.30238  0.4402900000000001  1.0000
  H   H119      1.0  0.30449  0.27151  0.56671  1.0000
  H   H120      1.0  0.25708  0.22915999999999997  0.52125  1.0000
  C   C243      1.0  0.74948  0.70505  0.8183000000000002  1.0000
  C   C244      1.0  0.7761  0.6877899999999999  0.76196  1.0000
  C   C245      1.0  0.78217  0.64815  0.78009  1.0000
  C   C246      1.0  0.80832  0.63124  0.7246400000000001  1.0000
  C   C247      1.0  0.82912  0.65325  0.65021  1.0000
  C   C248      1.0  0.82364  0.69226  0.6301100000000002  1.0000
  C   C249      1.0  0.79676  0.71013  0.6838700000000002  1.0000
  C   C250      1.0  0.79018  0.7496  0.66093  1.0000
  C   C251      1.0  0.76368  0.76692  0.71752  1.0000
  C   C252      1.0  0.75577  0.80606  0.6947500000000001  1.0000
  C   C253      1.0  0.72996  0.8231099999999998  0.7508800000000002  1.0000
  C   C254      1.0  0.7113  0.80177  0.8306000000000002  1.0000
  C   C255      1.0  0.71794  0.7630799999999999  0.8537600000000002  1.0000
  C   C256      1.0  0.74361  0.7448  0.7971400000000002  1.0000
  H   H121      1.0  0.76674  0.62962  0.8367700000000001  1.0000
  H   H122      1.0  0.81249  0.6008999999999999  0.73973  1.0000
  H   H123      1.0  0.84952  0.64003  0.6075700000000002  1.0000
  H   H124      1.0  0.84086  0.70811  0.57215  1.0000
  H   H125      1.0  0.76905  0.82399  0.6328800000000001  1.0000
  H   H126      1.0  0.72439  0.8530599999999999  0.73218  1.0000
  H   H127      1.0  0.69129  0.81517  0.87414  1.0000
  H   H128      1.0  0.70268  0.74796  0.9167900000000001  1.0000
