data_image0
_chemical_formula_structural       EuOCO6COC2EuOCO6COC2EuOCO6COC2EuOCO6COC2EuOCO6COC2EuOCO6COC2EuOCO6COC2EuOCO6COC13NC7H15C11NC7H15C11NC7H15C11NC7H15C11NC7H15C11NC7H15C11NC7H15C11NC7H15C11NC7H15C11NC7H15C11NC7H15C11NC7H15C11NC7H15C11NC7H15C11NC7H15C11NC7H15
_chemical_formula_sum              "Eu8 O64 C320 N16 H240"
_cell_length_a       38.128
_cell_length_b       39.7419
_cell_length_c       33.8455
_cell_angle_alpha    91.22699999999999
_cell_angle_beta     81.67149999999998
_cell_angle_gamma    91.3285

_space_group_name_H-M_alt    "P 1"
_space_group_IT_number       1

loop_
  _space_group_symop_operation_xyz
  'x, y, z'

loop_
  _atom_site_type_symbol
  _atom_site_label
  _atom_site_symmetry_multiplicity
  _atom_site_fract_x
  _atom_site_fract_y
  _atom_site_fract_z
  _atom_site_occupancy
  Eu  Eu1       1.0  0.11748999999999998  0.61378  0.11306  1.0000
  O   O1        1.0  0.08938999999999997  0.68619  0.12339000000000001  1.0000
  C   C1        1.0  0.05689999999999998  0.56192  0.13450000000000006  1.0000
  O   O2        1.0  0.17874999999999994  0.66642  0.12492  1.0000
  O   O3        1.0  0.14945  0.65286  0.0733  1.0000
  O   O4        1.0  0.16546999999999998  0.55409  0.09098  1.0000
  O   O5        1.0  0.02726999999999999  0.56697  0.15214000000000003  1.0000
  O   O6        1.0  0.08605999999999998  0.57381  0.15141000000000004  1.0000
  O   O7        1.0  0.10795  0.65024  0.16665  1.0000
  C   C2        1.0  0.09301999999999999  0.68035  0.1578  1.0000
  O   O8        1.0  0.16826  0.59754  0.13472  1.0000
  C   C3        1.0  0.18209  0.56888  0.11449  1.0000
  C   C4        1.0  0.17946999999999996  0.66434  0.08884  1.0000
  Eu  Eu2       1.0  0.38053999999999993  0.8904300000000002  0.87872  1.0000
  O   O9        1.0  0.4546199999999999  0.8982300000000001  0.84047  1.0000
  C   C5        1.0  0.42003  0.92541  0.94049  1.0000
  O   O10       1.0  0.32425999999999994  0.93148  0.85189  1.0000
  O   O11       1.0  0.35427999999999993  0.88744  0.8224800000000001  1.0000
  O   O12       1.0  0.31445999999999996  0.89872  0.9336600000000003  1.0000
  O   O13       1.0  0.41839999999999994  0.9463100000000001  0.91502  1.0000
  O   O14       1.0  0.4071199999999999  0.8930000000000001  0.93475  1.0000
  O   O15       1.0  0.41992  0.8515200000000002  0.85078  1.0000
  C   C6        1.0  0.4503899999999999  0.86839  0.8328100000000003  1.0000
  O   O16       1.0  0.34157  0.85133  0.90877  1.0000
  C   C7        1.0  0.3158399999999999  0.8681400000000001  0.9349500000000002  1.0000
  C   C8        1.0  0.3320099999999999  0.91447  0.82164  1.0000
  Eu  Eu3       1.0  0.14108999999999997  0.11745  0.62424  1.0000
  O   O17       1.0  0.11926999999999999  0.18983  0.6189400000000002  1.0000
  C   C9        1.0  0.0846  0.0757  0.59043  1.0000
  O   O18       1.0  0.21130999999999997  0.11901000000000002  0.57265  1.0000
  O   O19       1.0  0.18674  0.15565  0.62016  1.0000
  O   O20       1.0  0.15318  0.04441  0.64518  1.0000
  O   O21       1.0  0.08425000000000002  0.10123000000000001  0.5712  1.0000
  O   O22       1.0  0.09633999999999998  0.07825000000000001  0.6273000000000002  1.0000
  O   O23       1.0  0.10768999999999998  0.15227  0.6682  1.0000
  C   C10       1.0  0.11005000000000001  0.18507000000000004  0.65439  1.0000
  O   O24       1.0  0.16162999999999997  0.09404  0.67704  1.0000
  C   C11       1.0  0.16146  0.05903  0.67464  1.0000
  C   C12       1.0  0.21402999999999997  0.14565  0.5907  1.0000
  Eu  Eu4       1.0  0.8716099999999999  0.89487  0.38181  1.0000
  O   O25       1.0  0.9069399999999999  0.8771400000000001  0.29878  1.0000
  C   C13       1.0  0.93328  0.8875500000000001  0.4293700000000001  1.0000
  O   O26       1.0  0.8119199999999999  0.94418  0.38302  1.0000
  O   O27       1.0  0.8448299999999999  0.91686  0.33222  1.0000
  O   O28       1.0  0.8353099999999998  0.90201  0.46719  1.0000
  O   O29       1.0  0.95959  0.87091  0.4188400000000001  1.0000
  O   O30       1.0  0.8998399999999999  0.87253  0.42978  1.0000
  O   O31       1.0  0.8785499999999999  0.8448199999999999  0.34783  1.0000
  C   C14       1.0  0.89659  0.84913  0.30953  1.0000
  O   O32       1.0  0.8181099999999997  0.8756499999999999  0.41321  1.0000
  C   C15       1.0  0.8135  0.8838000000000001  0.4537500000000001  1.0000
  C   C16       1.0  0.8219899999999999  0.94229  0.34723  1.0000
  Eu  Eu5       1.0  0.8661999999999999  0.3937800000000001  0.87515  1.0000
  O   O33       1.0  0.9138199999999999  0.38348  0.79384  1.0000
  C   C17       1.0  0.9119699999999998  0.42351  0.9339600000000002  1.0000
  O   O34       1.0  0.8486699999999999  0.4535  0.83509  1.0000
  O   O35       1.0  0.83327  0.39929000000000003  0.8246  1.0000
  O   O36       1.0  0.83246  0.38311  0.96537  1.0000
  O   O37       1.0  0.9139699999999997  0.44493000000000005  0.9083500000000002  1.0000
  O   O38       1.0  0.9  0.39114  0.92541  1.0000
  O   O39       1.0  0.8933999999999999  0.34792  0.8438600000000003  1.0000
  C   C18       1.0  0.90994  0.35453  0.80527  1.0000
  O   O40       1.0  0.8251699999999996  0.35681000000000007  0.90703  1.0000
  C   C19       1.0  0.82586  0.35697  0.9481  1.0000
  C   C20       1.0  0.8354600000000001  0.4330300000000001  0.81395  1.0000
  Eu  Eu6       1.0  0.63043  0.12282  0.11847  1.0000
  O   O41       1.0  0.5779399999999999  0.17874  0.13503  1.0000
  C   C21       1.0  0.57689  0.10144000000000002  0.06257  1.0000
  O   O42       1.0  0.7171699999999998  0.17354  0.1428  1.0000
  O   O43       1.0  0.6591599999999999  0.15966  0.15597  1.0000
  O   O44       1.0  0.66131  0.0517  0.09883  1.0000
  O   O45       1.0  0.5713799999999999  0.13126  0.06909  1.0000
  O   O46       1.0  0.60213  0.08555  0.0811  1.0000
  O   O47       1.0  0.57966  0.12777  0.16275000000000006  1.0000
  C   C22       1.0  0.56438  0.1589  0.16009  1.0000
  O   O48       1.0  0.6447  0.08026  0.15704  1.0000
  C   C23       1.0  0.65639  0.05149  0.13526  1.0000
  C   C24       1.0  0.68781  0.17586  0.13332  1.0000
  Eu  Eu7       1.0  0.6292199999999999  0.62397  0.61545  1.0000
  O   O49       1.0  0.57047  0.67186  0.60986  1.0000
  C   C25       1.0  0.5772899999999997  0.57265  0.5850600000000002  1.0000
  O   O50       1.0  0.69473  0.62868  0.5541700000000003  1.0000
  O   O51       1.0  0.6787499999999997  0.65761  0.6120700000000002  1.0000
  O   O52       1.0  0.64978  0.55228  0.6199700000000002  1.0000
  O   O53       1.0  0.6024399999999999  0.57308  0.55839  1.0000
  O   O54       1.0  0.5789  0.59149  0.6197200000000003  1.0000
  O   O55       1.0  0.59874  0.65899  0.66137  1.0000
  C   C26       1.0  0.56961  0.67082  0.64594  1.0000
  O   O56       1.0  0.6466  0.59432  0.6659100000000001  1.0000
  C   C27       1.0  0.65031  0.56057  0.65472  1.0000
  C   C28       1.0  0.70177  0.65127  0.5769300000000003  1.0000
  Eu  Eu8       1.0  0.36252  0.40195  0.37606  1.0000
  O   O57       1.0  0.40278  0.40814  0.29491  1.0000
  C   C29       1.0  0.43642  0.42303  0.39321000000000006  1.0000
  O   O58       1.0  0.33933999999999986  0.44792  0.31429  1.0000
  O   O59       1.0  0.31644  0.39889  0.34007  1.0000
  O   O60       1.0  0.3367999999999999  0.39931  0.46556  1.0000
  O   O61       1.0  0.4332099999999999  0.43685  0.36214  1.0000
  O   O62       1.0  0.40829999999999994  0.40390999999999994  0.4126  1.0000
  O   O63       1.0  0.39199  0.36299  0.33422  1.0000
  C   C30       1.0  0.4085599999999999  0.37867  0.2999500000000001  1.0000
  O   O64       1.0  0.33424  0.36118  0.41564  1.0000
  C   C31       1.0  0.3223599999999999  0.37428  0.45350000000000007  1.0000
  C   C32       1.0  0.31591  0.42644  0.31562  1.0000
  C   C33       1.0  0.91934  0.43282  0.97533  1.0000
  C   C34       1.0  0.9579799999999999  0.44278  0.9763300000000001  1.0000
  C   C35       1.0  0.9697699999999998  0.47362999999999994  0.95934  1.0000
  C   C36       1.0  0.0037299999999999963  0.48624  0.96148  1.0000
  C   C37       1.0  0.02682999999999998  0.4695  0.9826100000000001  1.0000
  C   C38       1.0  0.06288999999999996  0.48593000000000003  0.98512  1.0000
  C   C39       1.0  0.06268999999999997  0.50583  0.02367  1.0000
  C   C40       1.0  0.04087  0.53378  0.03149  1.0000
  C   C41       1.0  0.039880000000000006  0.55208  0.06724  1.0000
  C   C42       1.0  0.06110999999999997  0.54324  0.09587  1.0000
  C   C43       1.0  0.08379  0.5154  0.08794  1.0000
  N   N1        1.0  0.10479  0.50404  0.11681  1.0000
  C   C44       1.0  0.08457  0.49717  0.05174  1.0000
  C   C45       1.0  0.015629999999999998  0.43836  0.0007500000000000284  1.0000
  C   C46       1.0  0.03762  0.42081  0.023100000000000002  1.0000
  C   C47       1.0  0.02702  0.38973  0.0395  1.0000
  C   C48       1.0  0.99471  0.37518  0.033470000000000014  1.0000
  C   C49       1.0  0.9722099999999999  0.39199  0.01195  1.0000
  C   C50       1.0  0.98149  0.42424000000000006  0.9963  1.0000
  H   H1        1.0  0.9095799999999999  0.41233  0.9958200000000001  1.0000
  H   H2        1.0  0.9025899999999999  0.45452  0.98647  1.0000
  H   H3        1.0  0.95218  0.48856  0.94475  1.0000
  H   H4        1.0  0.011649999999999992  0.51001  0.94745  1.0000
  H   H5        1.0  0.07019  0.50351  0.96  1.0000
  H   H6        1.0  0.08394999999999996  0.46681000000000006  0.9808800000000001  1.0000
  H   H7        1.0  0.024279999999999975  0.54132  0.009970000000000256  1.0000
  H   H8        1.0  0.0224  0.57331  0.0726  1.0000
  H   H9        1.0  0.12198  0.48400000000000004  0.10996  1.0000
  H   H10       1.0  0.10276999999999997  0.51425  0.14564000000000005  1.0000
  H   H11       1.0  0.10176  0.47577  0.04589  1.0000
  H   H12       1.0  0.06313  0.43073  0.02832000000000001  1.0000
  H   H13       1.0  0.04421  0.37663  0.05656  1.0000
  H   H14       1.0  0.9870399999999999  0.35062  0.04547  1.0000
  H   H15       1.0  0.9480699999999999  0.37882  0.007339999999999902  1.0000
  C   C51       1.0  0.5571  0.08204  0.03411  1.0000
  C   C52       1.0  0.53808  0.05157  0.05383  1.0000
  C   C53       1.0  0.5041299999999999  0.05619  0.07501  1.0000
  C   C54       1.0  0.48276999999999987  0.028850000000000004  0.08873  1.0000
  C   C55       1.0  0.4944399999999999  0.99581  0.08139  1.0000
  C   C56       1.0  0.46733  0.9673800000000001  0.08993  1.0000
  C   C57       1.0  0.4549  0.9555400000000001  0.05151  1.0000
  C   C58       1.0  0.43695  0.9776900000000001  0.03017  1.0000
  C   C59       1.0  0.42654  0.96768  0.99385  1.0000
  C   C60       1.0  0.43354999999999966  0.93517  0.9780100000000002  1.0000
  C   C61       1.0  0.45181  0.9126099999999999  0.99932  1.0000
  N   N2        1.0  0.46194  0.8799299999999999  0.98349  1.0000
  C   C62       1.0  0.46179  0.92291  0.03616  1.0000
  C   C63       1.0  0.52984  0.9904600000000001  0.06297  1.0000
  C   C64       1.0  0.5437799999999998  0.95776  0.05755000000000001  1.0000
  C   C65       1.0  0.5786899999999998  0.9529000000000001  0.03999000000000001  1.0000
  C   C66       1.0  0.6005099999999999  0.98035  0.027750000000000007  1.0000
  C   C67       1.0  0.58751  0.012909999999999977  0.03255000000000001  1.0000
  C   C68       1.0  0.5520299999999999  0.01859999999999995  0.0496  1.0000
  H   H16       1.0  0.5755299999999998  0.07503  0.00695  1.0000
  H   H17       1.0  0.53746  0.0986  0.0233  1.0000
  H   H18       1.0  0.49348  0.08124  0.07958  1.0000
  H   H19       1.0  0.4560499999999999  0.03355  0.10321  1.0000
  H   H20       1.0  0.44383999999999996  0.97601  0.11074  1.0000
  H   H21       1.0  0.47827  0.9466700000000001  0.10561  1.0000
  H   H22       1.0  0.43106999999999995  0.0028999999999999027  0.04161  1.0000
  H   H23       1.0  0.41232  0.98531  0.9784  1.0000
  H   H24       1.0  0.47236  0.8625900000000001  0.0012000000000000899  1.0000
  H   H25       1.0  0.46250999999999987  0.87369  0.9533200000000002  1.0000
  H   H26       1.0  0.47573999999999994  0.90564  0.05237  1.0000
  H   H27       1.0  0.5283299999999997  0.93564  0.06733  1.0000
  H   H28       1.0  0.589  0.92769  0.03634  1.0000
  H   H29       1.0  0.6277699999999999  0.97642  0.01472  1.0000
  H   H30       1.0  0.6059  0.03336  0.02367  1.0000
  C   C69       1.0  0.92213  0.32568  0.77779  1.0000
  C   C70       1.0  0.9616699999999999  0.32085  0.7752800000000002  1.0000
  C   C71       1.0  0.9731499999999997  0.29969  0.80318  1.0000
  C   C72       1.0  0.008669999999999995  0.2918  0.80115  1.0000
  C   C73       1.0  0.034169999999999985  0.30447  0.77085  1.0000
  C   C74       1.0  0.07215  0.29347  0.76982  1.0000
  C   C75       1.0  0.08152  0.26611  0.73868  1.0000
  C   C76       1.0  0.06482  0.23435999999999998  0.74309  1.0000
  C   C77       1.0  0.07455999999999999  0.2084  0.71553  1.0000
  C   C78       1.0  0.10101999999999994  0.2136  0.6826500000000002  1.0000
  C   C79       1.0  0.11836  0.24559  0.67827  1.0000
  N   N3        1.0  0.14730000000000001  0.25211  0.6471  1.0000
  C   C80       1.0  0.10831999999999997  0.27142  0.7063100000000001  1.0000
  C   C81       1.0  0.023539999999999995  0.32675  0.74266  1.0000
  C   C82       1.0  0.048299999999999996  0.34092  0.7121  1.0000
  C   C83       1.0  0.037619999999999994  0.3631  0.68502  1.0000
  C   C84       1.0  0.0022599999999999175  0.37185  0.6879100000000002  1.0000
  C   C85       1.0  0.9771699999999999  0.35829  0.71768  1.0000
  C   C86       1.0  0.98707  0.33534  0.74521  1.0000
  H   H31       1.0  0.91376  0.32867  0.7480400000000003  1.0000
  H   H32       1.0  0.90788  0.30244  0.7895400000000002  1.0000
  H   H33       1.0  0.9542399999999999  0.28864  0.82655  1.0000
  H   H34       1.0  0.016190000000000017  0.27496  0.82309  1.0000
  H   H35       1.0  0.07614  0.2834  0.79922  1.0000
  H   H36       1.0  0.09062999999999999  0.31552  0.76534  1.0000
  H   H37       1.0  0.044449999999999996  0.22953000000000004  0.76821  1.0000
  H   H38       1.0  0.061149999999999996  0.18414  0.71983  1.0000
  H   H39       1.0  0.1575  0.27655  0.64252  1.0000
  H   H40       1.0  0.16111  0.23288  0.63069  1.0000
  H   H41       1.0  0.1222  0.29551  0.7033200000000002  1.0000
  H   H42       1.0  0.07610000000000001  0.3353  0.7087  1.0000
  H   H43       1.0  0.05696  0.37374  0.6618  1.0000
  H   H44       1.0  0.9942099999999998  0.38938  0.66704  1.0000
  H   H45       1.0  0.9502099999999999  0.36642  0.7189  1.0000
  C   C87       1.0  0.7352999999999998  0.67195  0.56752  1.0000
  C   C88       1.0  0.72692  0.70846  0.56169  1.0000
  C   C89       1.0  0.7307  0.73146  0.59283  1.0000
  C   C90       1.0  0.72231  0.7651  0.59024  1.0000
  C   C91       1.0  0.70997  0.77723  0.55632  1.0000
  C   C92       1.0  0.70101  0.81425  0.5560100000000001  1.0000
  C   C93       1.0  0.7295199999999998  0.8339700000000001  0.53014  1.0000
  C   C94       1.0  0.7638999999999998  0.8364  0.54017  1.0000
  C   C95       1.0  0.7906199999999999  0.8538499999999999  0.51583  1.0000
  C   C96       1.0  0.78365  0.8689  0.48072  1.0000
  C   C97       1.0  0.7486499999999999  0.86788  0.4713200000000001  1.0000
  N   N4        1.0  0.73947  0.88504  0.43753  1.0000
  C   C98       1.0  0.7219199999999999  0.85065  0.4963600000000001  1.0000
  C   C99       1.0  0.70654  0.75469  0.52384  1.0000
  C   C100      1.0  0.69452  0.76568  0.48882000000000003  1.0000
  C   C101      1.0  0.69181  0.74356  0.45689  1.0000
  C   C102      1.0  0.7003899999999998  0.7099600000000001  0.4593200000000001  1.0000
  C   C103      1.0  0.7119099999999998  0.69819  0.49368000000000006  1.0000
  C   C104      1.0  0.71519  0.7201  0.52646  1.0000
  H   H46       1.0  0.75253  0.66185  0.54082  1.0000
  H   H47       1.0  0.7506299999999999  0.66952  0.59281  1.0000
  H   H48       1.0  0.73998  0.72324  0.61974  1.0000
  H   H49       1.0  0.72563  0.78193  0.61509  1.0000
  H   H50       1.0  0.6982699999999997  0.8253999999999999  0.5867  1.0000
  H   H51       1.0  0.6746099999999999  0.8169300000000002  0.54629  1.0000
  H   H52       1.0  0.77013  0.8244100000000001  0.5666400000000003  1.0000
  H   H53       1.0  0.8171500000000002  0.8547100000000001  0.52379  1.0000
  H   H54       1.0  0.71363  0.88346  0.4306800000000001  1.0000
  H   H55       1.0  0.7572999999999999  0.90116  0.42049  1.0000
  H   H56       1.0  0.6951099999999999  0.85016  0.48928000000000005  1.0000
  H   H57       1.0  0.6870300000000001  0.7913100000000001  0.4855  1.0000
  H   H58       1.0  0.6828999999999998  0.75258  0.4301300000000001  1.0000
  H   H59       1.0  0.6980099999999999  0.69287  0.43447000000000013  1.0000
  H   H60       1.0  0.71836  0.67189  0.49388999999999994  1.0000
  C   C105      1.0  0.21768  0.55663  0.12111000000000001  1.0000
  C   C106      1.0  0.2138499999999999  0.52548  0.14654  1.0000
  C   C107      1.0  0.22256999999999993  0.49445  0.12772  1.0000
  C   C108      1.0  0.22004  0.46489  0.14927  1.0000
  C   C109      1.0  0.20848  0.4651  0.19052  1.0000
  C   C110      1.0  0.20746  0.43188  0.21211  1.0000
  C   C111      1.0  0.23547  0.43081  0.23937000000000003  1.0000
  C   C112      1.0  0.2714  0.43587  0.22424000000000005  1.0000
  C   C113      1.0  0.2971799999999999  0.43523  0.24958000000000002  1.0000
  C   C114      1.0  0.28769  0.42891000000000007  0.29042  1.0000
  C   C115      1.0  0.25156  0.42321  0.30581  1.0000
  N   N5        1.0  0.24024  0.41792  0.34753  1.0000
  C   C116      1.0  0.22595999999999997  0.42384  0.28003  1.0000
  C   C117      1.0  0.19872  0.49610000000000004  0.21035000000000006  1.0000
  C   C118      1.0  0.18567999999999993  0.49759  0.25159  1.0000
  C   C119      1.0  0.17712  0.52825  0.27094  1.0000
  C   C120      1.0  0.18145  0.55801  0.2498  1.0000
  C   C121      1.0  0.19375000000000003  0.5573  0.209  1.0000
  C   C122      1.0  0.20205000000000004  0.52657  0.18837000000000007  1.0000
  H   H61       1.0  0.23259  0.5767  0.13534  1.0000
  H   H62       1.0  0.23360999999999996  0.55154  0.09145  1.0000
  H   H63       1.0  0.23149  0.49299  0.09588  1.0000
  H   H64       1.0  0.22748  0.44155000000000005  0.13349000000000005  1.0000
  H   H65       1.0  0.21208  0.41047  0.19046  1.0000
  H   H66       1.0  0.18043  0.42749  0.22868  1.0000
  H   H67       1.0  0.27942  0.4403500000000001  0.19276  1.0000
  H   H68       1.0  0.32482  0.43861  0.23704  1.0000
  H   H69       1.0  0.21403000000000003  0.4106999999999999  0.35779  1.0000
  H   H70       1.0  0.25687  0.4230900000000001  0.36889  1.0000
  H   H71       1.0  0.19838999999999996  0.41907999999999995  0.2918300000000001  1.0000
  H   H72       1.0  0.18160000000000007  0.47525000000000006  0.26935  1.0000
  H   H73       1.0  0.16725999999999994  0.52896  0.30257  1.0000
  H   H74       1.0  0.17519999999999997  0.58181  0.26506  1.0000
  H   H75       1.0  0.19671  0.58114  0.19415  1.0000
  C   C123      1.0  0.8239599999999998  0.44416  0.77577  1.0000
  C   C124      1.0  0.78393  0.4442  0.77784  1.0000
  C   C125      1.0  0.7656699999999999  0.46853  0.80292  1.0000
  C   C126      1.0  0.72995  0.47418  0.8022  1.0000
  C   C127      1.0  0.7111399999999999  0.45638  0.77558  1.0000
  C   C128      1.0  0.6724999999999999  0.46494  0.77578  1.0000
  C   C129      1.0  0.6678899999999999  0.48876  0.74282  1.0000
  C   C130      1.0  0.68206  0.5216  0.7433100000000001  1.0000
  C   C131      1.0  0.67593  0.54455  0.71457  1.0000
  C   C132      1.0  0.6554799999999998  0.53528  0.68464  1.0000
  C   C133      1.0  0.6406199999999999  0.50223  0.6841900000000002  1.0000
  N   N6        1.0  0.61726  0.49196  0.65632  1.0000
  C   C134      1.0  0.64731  0.47928  0.7130800000000003  1.0000
  C   C135      1.0  0.72859  0.43088  0.75049  1.0000
  C   C136      1.0  0.71076  0.41196000000000005  0.72339  1.0000
  C   C137      1.0  0.72763  0.38604  0.70021  1.0000
  C   C138      1.0  0.7623799999999998  0.37825  0.7036200000000002  1.0000
  C   C139      1.0  0.78092  0.39684  0.72951  1.0000
  C   C140      1.0  0.76492  0.42393  0.75262  1.0000
  H   H76       1.0  0.8377799999999999  0.42911  0.7507  1.0000
  H   H77       1.0  0.83392  0.47035000000000005  0.76969  1.0000
  H   H78       1.0  0.7795699999999997  0.48410000000000003  0.82255  1.0000
  H   H79       1.0  0.71712  0.49350000000000005  0.82187  1.0000
  H   H80       1.0  0.66169  0.4772600000000001  0.80467  1.0000
  H   H81       1.0  0.6561  0.44160000000000005  0.7745000000000002  1.0000
  H   H82       1.0  0.6975799999999998  0.52965  0.76629  1.0000
  H   H83       1.0  0.6874599999999998  0.56967  0.71555  1.0000
  H   H84       1.0  0.60889  0.46683  0.65448  1.0000
  H   H85       1.0  0.6054  0.50923  0.6399100000000001  1.0000
  H   H86       1.0  0.6354799999999998  0.45425  0.71301  1.0000
  H   H87       1.0  0.6837199999999998  0.41677000000000003  0.71969  1.0000
  H   H88       1.0  0.71352  0.3716400000000001  0.67979  1.0000
  H   H89       1.0  0.7750999999999999  0.35764  0.6861  1.0000
  H   H90       1.0  0.8073799999999999  0.38884  0.7317100000000002  1.0000
  C   C141      1.0  0.29059  0.8496700000000001  0.96562  1.0000
  C   C142      1.0  0.2974999999999999  0.81233  0.9653600000000001  1.0000
  C   C143      1.0  0.32108  0.80114  0.99012  1.0000
  C   C144      1.0  0.32558  0.76702  0.99523  1.0000
  C   C145      1.0  0.30626  0.74278  0.9761900000000001  1.0000
  C   C146      1.0  0.3086999999999999  0.70633  0.98758  1.0000
  C   C147      1.0  0.275  0.69502  0.01332  1.0000
  C   C148      1.0  0.2636399999999999  0.71183  0.04958  1.0000
  C   C149      1.0  0.23236999999999997  0.70184  0.0734  1.0000
  C   C150      1.0  0.21203  0.67433  0.06202  1.0000
  C   C151      1.0  0.22396999999999997  0.65648  0.02598  1.0000
  N   N7        1.0  0.20641  0.62629  0.014390000000000003  1.0000
  C   C152      1.0  0.25506  0.66737  0.00181  1.0000
  C   C153      1.0  0.28363000000000005  0.75334  0.94916  1.0000
  C   C154      1.0  0.2647199999999999  0.72985  0.92798  1.0000
  C   C155      1.0  0.24293999999999985  0.74051  0.9012300000000002  1.0000
  C   C156      1.0  0.23985999999999996  0.77464  0.89458  1.0000
  C   C157      1.0  0.25816  0.79845  0.91507  1.0000
  C   C158      1.0  0.27972  0.78839  0.9431500000000003  1.0000
  H   H91       1.0  0.2628  0.8546100000000001  0.96177  1.0000
  H   H92       1.0  0.29348  0.86063  0.9955199999999998  1.0000
  H   H93       1.0  0.33542999999999995  0.8191  0.0066300000000000005  1.0000
  H   H94       1.0  0.34326999999999996  0.75954  0.01565  1.0000
  H   H95       1.0  0.33101  0.70299  0.004890000000000002  1.0000
  H   H96       1.0  0.31486999999999987  0.69031  0.9602700000000001  1.0000
  H   H97       1.0  0.27889  0.73298  0.059280000000000006  1.0000
  H   H98       1.0  0.22396  0.71577  0.10089  1.0000
  H   H99       1.0  0.21505999999999997  0.61439  0.98697  1.0000
  H   H100      1.0  0.1875  0.61341  0.03415  1.0000
  H   H101      1.0  0.26412  0.65372  0.97431  1.0000
  H   H102      1.0  0.26667999999999986  0.70309  0.9314600000000002  1.0000
  H   H103      1.0  0.22863999999999998  0.7221400000000001  0.8852700000000002  1.0000
  H   H104      1.0  0.22337  0.78272  0.87324  1.0000
  H   H105      1.0  0.25551  0.8246  0.90816  1.0000
  C   C159      1.0  0.17155999999999996  0.03952  0.70846  1.0000
  C   C160      1.0  0.20253999999999997  0.01713  0.6940200000000002  1.0000
  C   C161      1.0  0.23624  0.03251  0.68793  1.0000
  C   C162      1.0  0.26647999999999994  0.01362  0.67788  1.0000
  C   C163      1.0  0.26431  0.97845  0.6747500000000002  1.0000
  C   C164      1.0  0.29871  0.9594000000000001  0.66958  1.0000
  C   C165      1.0  0.3058099999999999  0.94682  0.7093600000000002  1.0000
  C   C166      1.0  0.31063  0.96993  0.7400700000000002  1.0000
  C   C167      1.0  0.31744  0.95882  0.77689  1.0000
  C   C168      1.0  0.3203399999999999  0.92434  0.78378  1.0000
  C   C169      1.0  0.31466999999999995  0.9007100000000001  0.7532300000000002  1.0000
  N   N8        1.0  0.31439999999999985  0.8651300000000001  0.75952  1.0000
  C   C170      1.0  0.30783  0.91227  0.71618  1.0000
  C   C171      1.0  0.23039999999999997  0.9622  0.67889  1.0000
  C   C172      1.0  0.22672  0.9269300000000001  0.67425  1.0000
  C   C173      1.0  0.19334000000000004  0.9114600000000002  0.6768  1.0000
  C   C174      1.0  0.163  0.93067  0.68369  1.0000
  C   C175      1.0  0.16571  0.9654599999999999  0.68894  1.0000
  C   C176      1.0  0.19919  0.9818099999999998  0.68756  1.0000
  H   H106      1.0  0.14814  0.025590000000000005  0.72361  1.0000
  H   H107      1.0  0.17921999999999993  0.05742  0.7316  1.0000
  H   H108      1.0  0.23916999999999997  0.05951  0.69191  1.0000
  H   H109      1.0  0.29203  0.026580000000000003  0.6743600000000002  1.0000
  H   H110      1.0  0.32132  0.97611  0.6574100000000003  1.0000
  H   H111      1.0  0.29837999999999987  0.9388200000000001  0.6469600000000002  1.0000
  H   H112      1.0  0.3094699999999999  0.99672  0.7354500000000003  1.0000
  H   H113      1.0  0.32167000000000007  0.97741  0.7996900000000002  1.0000
  H   H114      1.0  0.31282999999999994  0.84818  0.73578  1.0000
  H   H115      1.0  0.31227999999999995  0.8551699999999999  0.7880500000000003  1.0000
  H   H116      1.0  0.30383  0.8942100000000001  0.69276  1.0000
  H   H117      1.0  0.24932  0.91084  0.6682  1.0000
  H   H118      1.0  0.19103  0.88444  0.67277  1.0000
  H   H119      1.0  0.13718  0.91854  0.6848  1.0000
  H   H120      1.0  0.14127999999999996  0.9791200000000001  0.69304  1.0000
  C   C177      1.0  0.08163  0.70545  0.19082  1.0000
  C   C178      1.0  0.04281999999999999  0.71372  0.19249  1.0000
  C   C179      1.0  0.018049999999999997  0.69482  0.21802  1.0000
  C   C180      1.0  0.982  0.70092  0.22145000000000006  1.0000
  C   C181      1.0  0.9692199999999999  0.7265400000000001  0.19993  1.0000
  C   C182      1.0  0.9295399999999999  0.73224  0.20637  1.0000
  C   C183      1.0  0.9203999999999998  0.76274  0.23281  1.0000
  C   C184      1.0  0.9252899999999998  0.76252  0.27306  1.0000
  C   C185      1.0  0.91677  0.7905900000000001  0.29778000000000004  1.0000
  C   C186      1.0  0.90378  0.8196700000000001  0.2826  1.0000
  C   C187      1.0  0.89809  0.81988  0.24219  1.0000
  N   N9        1.0  0.88312  0.8482  0.22562  1.0000
  C   C188      1.0  0.90606  0.7912300000000001  0.21791  1.0000
  C   C189      1.0  0.9936499999999999  0.74613  0.17361  1.0000
  C   C190      1.0  0.98214  0.77195  0.15079000000000006  1.0000
  C   C191      1.0  0.006279999999999841  0.7912500000000001  0.12543  1.0000
  C   C192      1.0  0.042260000000000006  0.7847  0.12131  1.0000
  C   C193      1.0  0.05444999999999999  0.75891  0.14271  1.0000
  C   C194      1.0  0.030699999999999995  0.73954  0.16962  1.0000
  H   H121      1.0  0.09878  0.72842  0.18768  1.0000
  H   H122      1.0  0.08608999999999999  0.69463  0.21971000000000004  1.0000
  H   H123      1.0  0.026719999999999997  0.675  0.23563  1.0000
  H   H124      1.0  0.9639  0.68567  0.24165  1.0000
  H   H125      1.0  0.9149599999999998  0.71016  0.22089  1.0000
  H   H126      1.0  0.9198099999999999  0.73414  0.17714000000000005  1.0000
  H   H127      1.0  0.9356799999999998  0.74053  0.28534  1.0000
  H   H128      1.0  0.9210199999999998  0.78983  0.32872  1.0000
  H   H129      1.0  0.8813899999999999  0.84874  0.19512  1.0000
  H   H130      1.0  0.8720000000000001  0.86812  0.24331  1.0000
  H   H131      1.0  0.90082  0.7912200000000001  0.18732000000000004  1.0000
  H   H132      1.0  0.9545399999999999  0.77751  0.15186  1.0000
  H   H133      1.0  0.9969299999999999  0.8111600000000001  0.10853  1.0000
  H   H134      1.0  0.060819999999999985  0.79953  0.10115000000000003  1.0000
  H   H135      1.0  0.08256  0.75439  0.13749  1.0000
  C   C195      1.0  0.24664999999999998  0.16751  0.58151  1.0000
  C   C196      1.0  0.23683  0.20268  0.5713  1.0000
  C   C197      1.0  0.23913  0.22837  0.59984  1.0000
  C   C198      1.0  0.22963999999999998  0.26105  0.5931000000000002  1.0000
  C   C199      1.0  0.21701  0.26937  0.55778  1.0000
  C   C200      1.0  0.20712999999999998  0.30569  0.55305  1.0000
  C   C201      1.0  0.2364599999999999  0.32452  0.52734  1.0000
  C   C202      1.0  0.26849999999999996  0.33224  0.54169  1.0000
  C   C203      1.0  0.29588  0.34931  0.5178  1.0000
  C   C204      1.0  0.29219  0.35809  0.47872  1.0000
  C   C205      1.0  0.25969  0.35109  0.4643500000000001  1.0000
  N   N10       1.0  0.25393  0.36086  0.4253  1.0000
  C   C206      1.0  0.23199999999999998  0.3349400000000001  0.48912  1.0000
  C   C207      1.0  0.21416000000000007  0.24379000000000003  0.52825  1.0000
  C   C208      1.0  0.20086  0.25052  0.49243000000000003  1.0000
  C   C209      1.0  0.19866  0.22535000000000002  0.46355  1.0000
  C   C210      1.0  0.20959  0.19299  0.46958  1.0000
  C   C211      1.0  0.22237000000000004  0.18538  0.50483  1.0000
  C   C212      1.0  0.22458999999999996  0.21030000000000004  0.53486  1.0000
  H   H136      1.0  0.26564  0.15653  0.55687  1.0000
  H   H137      1.0  0.26035999999999987  0.16806  0.60836  1.0000
  H   H138      1.0  0.24797999999999995  0.22306000000000004  0.6280100000000002  1.0000
  H   H139      1.0  0.23199999999999996  0.28008  0.6160000000000002  1.0000
  H   H140      1.0  0.20209999999999995  0.31879  0.58264  1.0000
  H   H141      1.0  0.18154999999999996  0.30678  0.54114  1.0000
  H   H142      1.0  0.27229  0.32500000000000007  0.5714  1.0000
  H   H143      1.0  0.32041  0.35495  0.52944  1.0000
  H   H144      1.0  0.23034999999999994  0.35416  0.41452  1.0000
  H   H145      1.0  0.27229999999999993  0.37552  0.40698  1.0000
  H   H146      1.0  0.20690999999999993  0.33047  0.4783200000000001  1.0000
  H   H147      1.0  0.19173  0.275  0.48624000000000006  1.0000
  H   H148      1.0  0.18833999999999992  0.23101  0.4363300000000001  1.0000
  H   H149      1.0  0.20800999999999994  0.17363  0.4468600000000001  1.0000
  H   H150      1.0  0.23043  0.15983  0.50807  1.0000
  C   C213      1.0  0.53102  0.16724  0.18779000000000007  1.0000
  C   C214      1.0  0.5207499999999999  0.20371  0.1853  1.0000
  C   C215      1.0  0.49142999999999987  0.21060999999999996  0.16646000000000005  1.0000
  C   C216      1.0  0.48146999999999984  0.24352  0.16169  1.0000
  C   C217      1.0  0.5002099999999998  0.27085  0.17598000000000005  1.0000
  C   C218      1.0  0.48857999999999996  0.30602  0.16805000000000006  1.0000
  C   C219      1.0  0.4704399999999999  0.32359  0.20517  1.0000
  C   C220      1.0  0.44093  0.30861  0.22832  1.0000
  C   C221      1.0  0.42194  0.32639  0.26013  1.0000
  C   C222      1.0  0.43184  0.35954  0.26925  1.0000
  C   C223      1.0  0.46249  0.37433  0.24715  1.0000
  N   N11       1.0  0.47537  0.40713000000000005  0.25721  1.0000
  C   C224      1.0  0.4811999999999999  0.35632  0.21506  1.0000
  C   C225      1.0  0.52972  0.26464  0.19584  1.0000
  C   C226      1.0  0.54946  0.29128  0.21079  1.0000
  C   C227      1.0  0.57832  0.28487  0.23028000000000007  1.0000
  C   C228      1.0  0.58826  0.25194  0.2351  1.0000
  C   C229      1.0  0.56942  0.22512  0.22047  1.0000
  C   C230      1.0  0.54003  0.23083  0.2006  1.0000
  H   H151      1.0  0.53428  0.16153  0.21899  1.0000
  H   H152      1.0  0.5096199999999999  0.14992  0.18008000000000002  1.0000
  H   H153      1.0  0.47627999999999987  0.1903  0.15474  1.0000
  H   H154      1.0  0.45886999999999994  0.24764000000000003  0.14646  1.0000
  H   H155      1.0  0.4695599999999999  0.30508  0.14605  1.0000
  H   H156      1.0  0.51183  0.32088  0.15365000000000004  1.0000
  H   H157      1.0  0.43199999999999994  0.28346  0.22111000000000006  1.0000
  H   H158      1.0  0.39858000000000005  0.31465  0.27672  1.0000
  H   H159      1.0  0.49526  0.4194  0.23797000000000001  1.0000
  H   H160      1.0  0.46754  0.41845  0.2850900000000001  1.0000
  H   H161      1.0  0.50408  0.36807  0.19755  1.0000
  H   H162      1.0  0.54295  0.31727  0.20766  1.0000
  H   H163      1.0  0.59305  0.30558  0.24175  1.0000
  H   H164      1.0  0.61077  0.24713  0.25016  1.0000
  H   H165      1.0  0.5783399999999999  0.20003  0.22481  1.0000
  C   C231      1.0  0.47747  0.851  0.80317  1.0000
  C   C232      1.0  0.46633  0.8151800000000001  0.79415  1.0000
  C   C233      1.0  0.4452599999999999  0.81021  0.76383  1.0000
  C   C234      1.0  0.4368399999999999  0.77803  0.75094  1.0000
  C   C235      1.0  0.44967  0.74955  0.76741  1.0000
  C   C236      1.0  0.44318  0.71559  0.74821  1.0000
  C   C237      1.0  0.47639  0.70381  0.7223400000000002  1.0000
  C   C238      1.0  0.49057  0.72201  0.68847  1.0000
  C   C239      1.0  0.52081  0.71092  0.66387  1.0000
  C   C240      1.0  0.5376999999999998  0.68157  0.6727500000000002  1.0000
  C   C241      1.0  0.52333  0.66283  0.70664  1.0000
  N   N12       1.0  0.53807  0.63148  0.7157000000000002  1.0000
  C   C242      1.0  0.4928199999999999  0.67417  0.73104  1.0000
  C   C243      1.0  0.4694000000000001  0.75374  0.79982  1.0000
  C   C244      1.0  0.48129999999999995  0.7258200000000002  0.8189600000000002  1.0000
  C   C245      1.0  0.50034  0.73029  0.8509  1.0000
  C   C246      1.0  0.50747  0.7625  0.86488  1.0000
  C   C247      1.0  0.49590999999999996  0.7905600000000002  0.8468000000000002  1.0000
  C   C248      1.0  0.47735  0.78683  0.81369  1.0000
  H   H166      1.0  0.5038  0.8523400000000001  0.8134  1.0000
  H   H167      1.0  0.48103  0.86547  0.77504  1.0000
  H   H168      1.0  0.4359  0.83158  0.74929  1.0000
  H   H169      1.0  0.42127  0.7754499999999999  0.72667  1.0000
  H   H170      1.0  0.42204  0.71716  0.7289100000000001  1.0000
  H   H171      1.0  0.43287999999999993  0.69711  0.77141  1.0000
  H   H172      1.0  0.47809  0.74478  0.68097  1.0000
  H   H173      1.0  0.5312599999999998  0.7255  0.63793  1.0000
  H   H174      1.0  0.5300299999999998  0.62036  0.74337  1.0000
  H   H175      1.0  0.55467  0.61785  0.6941600000000001  1.0000
  H   H176      1.0  0.48143  0.65941  0.75641  1.0000
  H   H177      1.0  0.47585  0.70029  0.80992  1.0000
  H   H178      1.0  0.50925  0.7086  0.86521  1.0000
  H   H179      1.0  0.5219  0.76577  0.89003  1.0000
  H   H180      1.0  0.50122  0.81493  0.85963  1.0000
  C   C249      1.0  0.47062999999999994  0.42624  0.41012  1.0000
  C   C250      1.0  0.46501  0.44282000000000005  0.4511900000000001  1.0000
  C   C251      1.0  0.4673399999999999  0.4228  0.48425000000000007  1.0000
  C   C252      1.0  0.46339  0.43656  0.52269  1.0000
  C   C253      1.0  0.45676999999999995  0.47087999999999997  0.52967  1.0000
  C   C254      1.0  0.45575  0.48458000000000007  0.5720400000000002  1.0000
  C   C255      1.0  0.48711  0.5078  0.57564  1.0000
  C   C256      1.0  0.52175  0.4964700000000001  0.56444  1.0000
  C   C257      1.0  0.55075  0.51807  0.56702  1.0000
  C   C258      1.0  0.5457699999999999  0.55125  0.58136  1.0000
  C   C259      1.0  0.5109099999999999  0.56276  0.59332  1.0000
  N   N13       1.0  0.50415  0.5967  0.6071  1.0000
  C   C260      1.0  0.4819599999999999  0.54079  0.5905500000000002  1.0000
  C   C261      1.0  0.45261  0.49152000000000007  0.49696  1.0000
  C   C262      1.0  0.44359999999999994  0.52575  0.50267  1.0000
  C   C263      1.0  0.44051999999999997  0.54597  0.47028  1.0000
  C   C264      1.0  0.4464299999999999  0.53267  0.43163  1.0000
  C   C265      1.0  0.45491  0.49889000000000006  0.42508  1.0000
  C   C266      1.0  0.45752999999999994  0.47759000000000007  0.45737000000000005  1.0000
  H   H181      1.0  0.49084999999999995  0.44075  0.38998  1.0000
  H   H182      1.0  0.4813100000000001  0.40055  0.41131  1.0000
  H   H183      1.0  0.4725399999999999  0.39616  0.48031000000000007  1.0000
  H   H184      1.0  0.46609  0.42022  0.54723  1.0000
  H   H185      1.0  0.45647999999999994  0.46381000000000006  0.59336  1.0000
  H   H186      1.0  0.43018  0.4973  0.5815000000000002  1.0000
  H   H187      1.0  0.5263499999999999  0.47089  0.5536200000000002  1.0000
  H   H188      1.0  0.5772299999999999  0.50861  0.5585600000000001  1.0000
  H   H189      1.0  0.47869999999999996  0.60367  0.61991  1.0000
  H   H190      1.0  0.5234799999999998  0.61575  0.6023800000000002  1.0000
  H   H191      1.0  0.45530999999999994  0.54973  0.59945  1.0000
  H   H192      1.0  0.4383699999999999  0.53719  0.53206  1.0000
  H   H193      1.0  0.43352999999999997  0.57213  0.47521  1.0000
  H   H194      1.0  0.4442399999999999  0.54857  0.40657  1.0000
  H   H195      1.0  0.4592899999999999  0.48988  0.39449  1.0000
  C   C267      1.0  0.9365099999999998  0.92414  0.44148  1.0000
  C   C268      1.0  0.96892  0.93067  0.46215  1.0000
  C   C269      1.0  0.99743  0.94887  0.4415  1.0000
  C   C270      1.0  0.02889000000000001  0.9537300000000001  0.45721  1.0000
  C   C271      1.0  0.03293999999999998  0.94135  0.49472000000000005  1.0000
  C   C272      1.0  0.06863999999999999  0.94714  0.50892  1.0000
  C   C273      1.0  0.06984999999999998  0.98012  0.53168  1.0000
  C   C274      1.0  0.06997999999999999  0.0105  0.51153  1.0000
  C   C275      1.0  0.07281999999999998  0.04112  0.53165  1.0000
  C   C276      1.0  0.07596999999999998  0.04243  0.57261  1.0000
  C   C277      1.0  0.07451  0.01167  0.59358  1.0000
  N   N14       1.0  0.07492  0.01069  0.63583  1.0000
  C   C278      1.0  0.07213999999999997  0.98092  0.5726600000000002  1.0000
  C   C279      1.0  0.004130000000000013  0.92357  0.51703  1.0000
  C   C280      1.0  0.0064599999999999935  0.91088  0.55523  1.0000
  C   C281      1.0  0.9785099999999999  0.8923100000000002  0.57596  1.0000
  C   C282      1.0  0.9474  0.88665  0.55968  1.0000
  C   C283      1.0  0.94392  0.8995500000000001  0.5225200000000002  1.0000
  C   C284      1.0  0.97199  0.91797  0.50044  1.0000
  H   H196      1.0  0.9122699999999999  0.9321900000000001  0.4615  1.0000
  H   H197      1.0  0.9378899999999996  0.93939  0.41407  1.0000
  H   H198      1.0  0.9957299999999998  0.95882  0.41231  1.0000
  H   H199      1.0  0.05052  0.96712  0.43952  1.0000
  H   H200      1.0  0.09004999999999998  0.9477  0.48283  1.0000
  H   H201      1.0  0.0756  0.92569  0.5265  1.0000
  H   H202      1.0  0.06893999999999999  0.010630000000000002  0.47978000000000004  1.0000
  H   H203      1.0  0.07389  0.0639  0.51449  1.0000
  H   H204      1.0  0.08001999999999998  0.98821  0.6492  1.0000
  H   H205      1.0  0.06528999999999999  0.03039  0.65487  1.0000
  H   H206      1.0  0.07194  0.95754  0.58854  1.0000
  H   H207      1.0  0.029610000000000004  0.915  0.56974  1.0000
  H   H208      1.0  0.9810099999999999  0.88227  0.60487  1.0000
  H   H209      1.0  0.92578  0.8722600000000001  0.576  1.0000
  H   H210      1.0  0.9190599999999998  0.89479  0.5114  1.0000
  C   C285      1.0  0.6625999999999997  0.0203  0.1572  1.0000
  C   C286      1.0  0.69276  0.02647  0.18118  1.0000
  C   C287      1.0  0.68417  0.03618  0.22139  1.0000
  C   C288      1.0  0.71047  0.04337  0.24491  1.0000
  C   C289      1.0  0.7464099999999998  0.04021  0.22952  1.0000
  C   C290      1.0  0.77352  0.04955  0.25675  1.0000
  C   C291      1.0  0.7858899999999999  0.019030000000000102  0.27617  1.0000
  C   C292      1.0  0.76222  0.0013399999999998973  0.30423  1.0000
  C   C293      1.0  0.77419  0.97576  0.32614  1.0000
  C   C294      1.0  0.8100899999999998  0.96715  0.3204600000000001  1.0000
  C   C295      1.0  0.8340599999999997  0.98418  0.29125  1.0000
  N   N15       1.0  0.8713399999999998  0.9776900000000001  0.2854000000000001  1.0000
  C   C296      1.0  0.8216199999999998  0.009859999999999982  0.2693100000000001  1.0000
  C   C297      1.0  0.75598  0.02989  0.18903  1.0000
  C   C298      1.0  0.79178  0.02598  0.17219000000000007  1.0000
  C   C299      1.0  0.8009299999999999  0.01732  0.132  1.0000
  C   C300      1.0  0.77475  0.01236  0.10773000000000003  1.0000
  C   C301      1.0  0.73914  0.01549  0.12360000000000002  1.0000
  C   C302      1.0  0.7289899999999998  0.02379  0.1644  1.0000
  H   H211      1.0  0.6676399999999998  0.9982400000000001  0.13666  1.0000
  H   H212      1.0  0.6376999999999998  0.01388  0.17725  1.0000
  H   H213      1.0  0.65672  0.03888  0.23459  1.0000
  H   H214      1.0  0.70259  0.05154999999999999  0.27559  1.0000
  H   H215      1.0  0.76182  0.06708  0.2809  1.0000
  H   H216      1.0  0.7959599999999999  0.06421  0.24036  1.0000
  H   H217      1.0  0.7346099999999999  0.00812999999999997  0.31019  1.0000
  H   H218      1.0  0.7554199999999999  0.96301  0.34824000000000005  1.0000
  H   H219      1.0  0.8883399999999999  0.9897600000000001  0.26285  1.0000
  H   H220      1.0  0.88305  0.96286  0.30469  1.0000
  H   H221      1.0  0.84027  0.023660000000000014  0.24808  1.0000
  H   H222      1.0  0.8131499999999999  0.02951  0.18960000000000002  1.0000
  H   H223      1.0  0.8285399999999999  0.014700000000000003  0.11956000000000001  1.0000
  H   H224      1.0  0.7820899999999998  0.00604  0.07641  1.0000
  H   H225      1.0  0.71994  0.01161  0.10334  1.0000
  C   C303      1.0  0.8211099999999999  0.32452  0.97035  1.0000
  C   C304      1.0  0.7828  0.31236  0.9768500000000001  1.0000
  C   C305      1.0  0.7725900000000001  0.28688  0.95136  1.0000
  C   C306      1.0  0.73891  0.27206  0.9580700000000001  1.0000
  C   C307      1.0  0.7141399999999999  0.28191999999999995  0.99076  1.0000
  C   C308      1.0  0.67938  0.26198  0.99865  1.0000
  C   C309      1.0  0.67955  0.23853000000000002  0.03321  1.0000
  C   C310      1.0  0.70446  0.21289  0.03053  1.0000
  C   C311      1.0  0.7062  0.19219  0.06295  1.0000
  C   C312      1.0  0.68289  0.19649  0.09874  1.0000
  C   C313      1.0  0.65733  0.22202000000000002  0.10156  1.0000
  N   N16       1.0  0.63483  0.22944000000000003  0.13832  1.0000
  C   C314      1.0  0.6554199999999999  0.2423  0.06844  1.0000
  C   C315      1.0  0.7231899999999998  0.30873  0.01615000000000011  1.0000
  C   C316      1.0  0.69877  0.32062  0.04854  1.0000
  C   C317      1.0  0.7081699999999999  0.34641  0.07374  1.0000
  C   C318      1.0  0.74189  0.36108  0.06715  1.0000
  C   C319      1.0  0.7664799999999999  0.35017  0.035210000000000005  1.0000
  C   C320      1.0  0.7577799999999999  0.324  0.009190000000000254  1.0000
  H   H226      1.0  0.83153  0.3269  0.99931  1.0000
  H   H227      1.0  0.83815  0.30556  0.95281  1.0000
  H   H228      1.0  0.7912199999999999  0.27771  0.9264500000000002  1.0000
  H   H229      1.0  0.7325799999999999  0.2518  0.9382100000000002  1.0000
  H   H230      1.0  0.67511  0.2464  0.97202  1.0000
  H   H231      1.0  0.6567099999999999  0.27937  0.003619999999999957  1.0000
  H   H232      1.0  0.72299  0.20924999999999996  0.0034199999999999786  1.0000
  H   H233      1.0  0.7261  0.17296000000000003  0.06025  1.0000
  H   H234      1.0  0.61498  0.24725  0.13937000000000002  1.0000
  H   H235      1.0  0.6387499999999998  0.2189  0.16524  1.0000
  H   H236      1.0  0.63591  0.26189  0.07079000000000003  1.0000
  H   H237      1.0  0.67213  0.31047  0.05473  1.0000
  H   H238      1.0  0.6891099999999999  0.35514  0.09847  1.0000
  H   H239      1.0  0.74903  0.38108  0.08688  1.0000
  H   H240      1.0  0.79216  0.36265  0.03126999999999991  1.0000
