data_image0
_chemical_formula_structural       Mn5CN8C2N8CN16Cl2C4Mn5CN8C2N8CN16Cl2C4Mn5CN8C2N8CN16Cl2C5SCN2C4N2CSC7N2C2N4H16CSCN2C4N2CSC7N2C2N4H16CSCN2C4N2CSC7N2C2N4H16CSCN2C4N2CSC7N2C2N4H16CSCN2C4N2CSC7N2C2N4H16CSCN2C4N2CSC7N2C2N4H16CSCN2C4N2CSC7N2C2N4H16CSCN2C4N2CSC7N2C2N4H16CSCN2C4N2CSC7N2C2N4H16CSCN2C4N2CSC7N2C2N4H16CSCN2C4N2CSC7N2C2N4H16CSCN2C4N2CSC7N2C2N4H16
_chemical_formula_sum              "Mn15 C216 N216 Cl6 S24 H192"
_cell_length_a       38.9455
_cell_length_b       31.6397
_cell_length_c       34.1947
_cell_angle_alpha    87.9103
_cell_angle_beta     77.2612
_cell_angle_gamma    93.74060000000001

_space_group_name_H-M_alt    "P 1"
_space_group_IT_number       1

loop_
  _space_group_symop_operation_xyz
  'x, y, z'

loop_
  _atom_site_type_symbol
  _atom_site_label
  _atom_site_symmetry_multiplicity
  _atom_site_fract_x
  _atom_site_fract_y
  _atom_site_fract_z
  _atom_site_occupancy
  Mn  Mn1       1.0  0.10756000000000002  0.37939  0.049529999999999984  1.0000
  Mn  Mn2       1.0  0.08951999999999999  0.43639  0.96991  1.0000
  Mn  Mn3       1.0  0.89779  0.58359  0.94363  1.0000
  Mn  Mn4       1.0  0.9224600000000002  0.5349100000000002  0.02395999999999999  1.0000
  Mn  Mn5       1.0  0.008769999999999991  0.4915  0.99544  1.0000
  C   C1        1.0  0.09496  0.31066  0.99117  1.0000
  N   N1        1.0  0.09779000000000004  0.35136  0.0004599999999996829  1.0000
  N   N2        1.0  0.09017000000000004  0.3731  0.9703699999999998  1.0000
  N   N3        1.0  0.08245000000000001  0.3473700000000001  0.9434399999999997  1.0000
  N   N4        1.0  0.08519999999999997  0.30772  0.95572  1.0000
  N   N5        1.0  0.054620000000000016  0.42038  0.90306  1.0000
  N   N6        1.0  0.051119999999999985  0.43441  0.93952  1.0000
  N   N7        1.0  0.021300000000000027  0.45274  0.9498099999999998  1.0000
  N   N8        1.0  0.004380000000000048  0.45095000000000013  0.9204399999999998  1.0000
  C   C2        1.0  0.025039999999999996  0.43049  0.89147  1.0000
  C   C3        1.0  0.10395000000000007  0.5624800000000002  0.95194  1.0000
  N   N9        1.0  0.08804999999999999  0.49932  0.97135  1.0000
  N   N10       1.0  0.11616000000000001  0.52423  0.95495  1.0000
  N   N11       1.0  0.02657  0.45045  0.033669999999999985  1.0000
  N   N12       1.0  0.05557000000000001  0.43051  0.02264  1.0000
  N   N13       1.0  0.06224  0.40864  0.053299999999999986  1.0000
  N   N14       1.0  0.03732  0.4123  0.08576  1.0000
  N   N15       1.0  0.059270000000000024  0.52082  0.97846  1.0000
  N   N16       1.0  0.06839999999999999  0.56107  0.96618  1.0000
  C   C4        1.0  0.01509  0.43819  0.0733  1.0000
  N   N17       1.0  0.9043200000000001  0.6154800000000001  0.9917099999999999  1.0000
  N   N18       1.0  0.9140100000000001  0.59752  0.0225  1.0000
  N   N19       1.0  0.91645  0.62586  0.04947  1.0000
  N   N20       1.0  0.9089  0.66329  0.03602  1.0000
  N   N21       1.0  0.9626  0.57648  0.0758  1.0000
  N   N22       1.0  0.9624000000000003  0.54441  0.05245  1.0000
  N   N23       1.0  0.99472  0.53249  0.04008  1.0000
  N   N24       1.0  0.017320000000000002  0.55835  0.05367  1.0000
  N   N25       1.0  0.9565500000000001  0.41676  0.00716  1.0000
  N   N26       1.0  0.9608700000000001  0.45814  0.010839999999999997  1.0000
  N   N27       1.0  0.9300200000000001  0.47356  0.02288  1.0000
  N   N28       1.0  0.9042500000000001  0.4431  0.027749999999999993  1.0000
  N   N29       1.0  0.9885400000000001  0.5321500000000002  0.9588  1.0000
  N   N30       1.0  0.95624  0.54468  0.97009  1.0000
  N   N31       1.0  0.9468900000000001  0.5644499999999999  0.93991  1.0000
  N   N32       1.0  0.97292  0.5668900000000003  0.9077799999999998  1.0000
  Cl  Cl1       1.0  0.13192  0.43561  0.006279999999999999  1.0000
  Cl  Cl2       1.0  0.87966  0.52693  0.9885  1.0000
  C   C5        1.0  0.9015400000000001  0.6563300000000003  0.9998899999999998  1.0000
  C   C6        1.0  0.99661  0.58524  0.07634  1.0000
  C   C7        1.0  0.9212900000000002  0.40794  0.01819  1.0000
  C   C8        1.0  0.9989  0.54702  0.91969  1.0000
  Mn  Mn6       1.0  0.56412  0.9516700000000002  0.12359  1.0000
  Mn  Mn7       1.0  0.5454100000000001  0.03133  0.06307  1.0000
  Mn  Mn8       1.0  0.42874  0.017700000000000004  0.85352  1.0000
  Mn  Mn9       1.0  0.46321  0.94533  0.90942  1.0000
  Mn  Mn10      1.0  0.5057699999999999  0.9912699999999999  0.9830999999999999  1.0000
  C   C9        1.0  0.6291900000000002  0.01364  0.10934999999999997  1.0000
  N   N33       1.0  0.60151  0.9969300000000002  0.09583  1.0000
  N   N34       1.0  0.5957700000000001  0.02491  0.06869  1.0000
  N   N35       1.0  0.62032  0.05671  0.06328  1.0000
  N   N36       1.0  0.6416400000000002  0.05039  0.08793  1.0000
  N   N37       1.0  0.5910300000000002  0.07302000000000002  0.9903499999999998  1.0000
  N   N38       1.0  0.5606600000000002  0.05122  0.00461  1.0000
  N   N39       1.0  0.5475700000000002  0.035820000000000005  0.97485  1.0000
  N   N40       1.0  0.57038  0.04562  0.94029  1.0000
  C   C10       1.0  0.59655  0.07016  0.95043  1.0000
  C   C11       1.0  0.44384000000000007  0.05425  0.07327999999999997  1.0000
  N   N41       1.0  0.49564  0.03566  0.06024999999999999  1.0000
  N   N42       1.0  0.4738300000000001  0.05619000000000001  0.08646999999999998  1.0000
  N   N43       1.0  0.53049  0.95579  0.01858  1.0000
  N   N44       1.0  0.54266  0.97134  0.04846  1.0000
  N   N45       1.0  0.55216  0.9409000000000002  0.07009  1.0000
  N   N46       1.0  0.5477100000000001  0.90393  0.05452  1.0000
  N   N47       1.0  0.48026  0.021360000000000046  0.03213  1.0000
  N   N48       1.0  0.44715  0.032019999999999944  0.03958  1.0000
  C   C12       1.0  0.5346700000000001  0.91344  0.0219  1.0000
  N   N49       1.0  0.3975900000000001  0.9738300000000001  0.8922399999999998  1.0000
  N   N50       1.0  0.4105100000000001  0.94474  0.91235  1.0000
  N   N51       1.0  0.38448  0.9215  0.93672  1.0000
  N   N52       1.0  0.35386  0.93533  0.93277  1.0000
  N   N53       1.0  0.43009000000000003  0.89489  0.98502  1.0000
  N   N54       1.0  0.4538199999999998  0.9256000000000002  0.9674899999999999  1.0000
  N   N55       1.0  0.46601000000000004  0.94629  0.99465  1.0000
  N   N56       1.0  0.45098  0.9301  0.03105  1.0000
  N   N57       1.0  0.53313  0.95774  0.8934099999999998  1.0000
  N   N58       1.0  0.5323200000000001  0.96052  0.93425  1.0000
  N   N59       1.0  0.5165700000000001  0.9521100000000002  0.9053399999999998  1.0000
  N   N60       1.0  0.53556  0.95365  0.8712  1.0000
  N   N61       1.0  0.47982000000000014  0.025699999999999997  0.94672  1.0000
  N   N62       1.0  0.4635  0.006349999999999999  0.92147  1.0000
  N   N63       1.0  0.45221000000000006  0.03399  0.89843  1.0000
  N   N64       1.0  0.45958  0.07268000000000001  0.9081699999999998  1.0000
  Cl  Cl3       1.0  0.52816  0.005679999999999909  0.12781999999999993  1.0000
  Cl  Cl4       1.0  0.46878000000000014  0.9680900000000001  0.8441899999999998  1.0000
  C   C13       1.0  0.36237000000000014  0.96821  0.90511  1.0000
  C   C14       1.0  0.42866  0.8981300000000002  0.024610000000000017  1.0000
  C   C15       1.0  0.5688700000000002  0.96114  0.8684099999999998  1.0000
  C   C16       1.0  0.47639  0.06778  0.93852  1.0000
  Mn  Mn11      1.0  0.11971  0.08219  0.51953  1.0000
  Mn  Mn12      1.0  0.07566  0.99004  0.4995299999999999  1.0000
  Mn  Mn13      1.0  0.8536000000000001  0.9298  0.45915  1.0000
  Mn  Mn14      1.0  0.8958900000000001  0.02155  0.4824  1.0000
  Mn  Mn15      1.0  0.9858700000000001  0.006530000000000001  0.49117  1.0000
  C   C17       1.0  0.12324000000000011  0.021430000000000008  0.5898499999999998  1.0000
  N   N65       1.0  0.11076  0.03041  0.55735  1.0000
  N   N66       1.0  0.09367000000000007  0.9951300000000004  0.5504799999999997  1.0000
  N   N67       1.0  0.09536  0.96503  0.57774  1.0000
  N   N68       1.0  0.11379  0.9807  0.60308  1.0000
  N   N69       1.0  0.03175  0.9182600000000002  0.55063  1.0000
  N   N70       1.0  0.03212000000000001  0.95368  0.52857  1.0000
  N   N71       1.0  0.9997500000000001  0.9610100000000001  0.52609  1.0000
  N   N72       1.0  0.9771  0.93096  0.54641  1.0000
  C   C18       1.0  0.9970600000000002  0.9048800000000002  0.56218  1.0000
  C   C19       1.0  0.05545  0.9844900000000001  0.38766  1.0000
  N   N73       1.0  0.05837  0.9878600000000002  0.44819  1.0000
  N   N74       1.0  0.07791000000000002  0.98119  0.4124599999999999  1.0000
  N   N75       1.0  0.018179999999999995  0.05004000000000001  0.51139  1.0000
  N   N76       1.0  0.05107000000000003  0.04333000000000001  0.5121099999999997  1.0000
  N   N77       1.0  0.06742000000000004  0.07784000000000003  0.52174  1.0000
  N   N78       1.0  0.045520000000000005  0.10814  0.52935  1.0000
  N   N79       1.0  0.026050000000000018  0.9953300000000002  0.44524  1.0000
  N   N80       1.0  0.02309000000000002  0.9932100000000001  0.40763999999999995  1.0000
  C   C20       1.0  0.014700000000000008  0.09052000000000003  0.52296  1.0000
  N   N81       1.0  0.86439  0.9816800000000002  0.42121  1.0000
  N   N82       1.0  0.87961  0.017310000000000002  0.4302399999999999  1.0000
  N   N83       1.0  0.88923  0.04332  0.39794  1.0000
  N   N84       1.0  0.8806200000000001  0.024530000000000003  0.36697999999999986  1.0000
  N   N85       1.0  0.9379600000000002  0.09400000000000006  0.4333  1.0000
  N   N86       1.0  0.93887  0.05900000000000001  0.4551199999999999  1.0000
  N   N87       1.0  0.97172  0.052430000000000004  0.4563899999999999  1.0000
  N   N88       1.0  0.9936000000000001  0.08286  0.43511  1.0000
  N   N89       1.0  0.9484900000000002  0.022429999999999957  0.5743099999999998  1.0000
  N   N90       1.0  0.94528  0.017430000000000057  0.53709  1.0000
  N   N91       1.0  0.9127200000000001  0.02357000000000001  0.53398  1.0000
  N   N92       1.0  0.89355  0.03323  0.56894  1.0000
  N   N93       1.0  0.9539400000000001  0.9626  0.47095  1.0000
  N   N94       1.0  0.9211300000000001  0.96883  0.46965  1.0000
  N   N95       1.0  0.9053500000000002  0.93412  0.4596099999999999  1.0000
  N   N96       1.0  0.9276100000000003  0.90415  0.4522799999999999  1.0000
  Cl  Cl5       1.0  0.12331  0.03456  0.47008  1.0000
  Cl  Cl6       1.0  0.84835  0.97623  0.50988  1.0000
  C   C21       1.0  0.8654800000000001  0.98586  0.38179  1.0000
  C   C22       1.0  0.9721300000000002  0.10827000000000002  0.4208499999999999  1.0000
  C   C23       1.0  0.9161700000000002  0.032170000000000004  0.5936499999999999  1.0000
  C   C24       1.0  0.9579900000000001  0.9221400000000001  0.45951  1.0000
  C   C25       1.0  0.9818900000000002  0.11386  0.52932  1.0000
  S   S1        1.0  0.99305  0.16776000000000002  0.5056199999999997  1.0000
  C   C26       1.0  0.9872600000000001  0.19465  0.55224  1.0000
  N   N97       1.0  0.9569799999999999  0.19117  0.58068  1.0000
  N   N98       1.0  0.9627100000000001  0.21333  0.61109  1.0000
  C   C27       1.0  0.9964300000000001  0.23009  0.60089  1.0000
  C   C28       1.0  0.013420000000000001  0.25605  0.6283  1.0000
  C   C29       1.0  0.02125000000000002  0.30245  0.6125299999999999  1.0000
  C   C30       1.0  0.027880000000000002  0.33046000000000003  0.6451  1.0000
  N   N99       1.0  0.004640000000000031  0.33281  0.6804899999999998  1.0000
  N   N100      1.0  0.01776000000000001  0.36275  0.70043  1.0000
  C   C31       1.0  0.04877000000000004  0.37851  0.67686  1.0000
  S   S2        1.0  0.0762100000000001  0.42247  0.6887599999999998  1.0000
  C   C32       1.0  0.03994000000000009  0.45046  0.7188099999999997  1.0000
  C   C33       1.0  0.032049999999999995  0.44141  0.7641  1.0000
  C   C34       1.0  0.051520000000000045  0.41325  0.7814999999999998  1.0000
  C   C35       1.0  0.04656999999999999  0.40784  0.82288  1.0000
  C   C36       1.0  0.021530000000000032  0.42953  0.8489199999999998  1.0000
  C   C37       1.0  0.99833  0.45416  0.8322099999999998  1.0000
  C   C38       1.0  0.96899  0.47207  0.85588  1.0000
  N   N101      1.0  0.94928  0.49753000000000003  0.83857  1.0000
  N   N102      1.0  0.9564100000000001  0.50605  0.79914  1.0000
  C   C39       1.0  0.98325  0.48883999999999994  0.7742  1.0000
  C   C40       1.0  0.004680000000000055  0.46145  0.7897699999999997  1.0000
  N   N103      1.0  0.05586  0.35859  0.64237  1.0000
  N   N104      1.0  0.08434  0.36871  0.6095  1.0000
  N   N105      1.0  0.012319999999999998  0.21903  0.56407  1.0000
  N   N106      1.0  0.04812000000000004  0.22781  0.54467  1.0000
  H   H1        1.0  0.96123  0.09789000000000002  0.51644  1.0000
  H   H2        1.0  0.9712400000000001  0.11443999999999999  0.56215  1.0000
  H   H3        1.0  0.03810999999999999  0.24221000000000012  0.63193  1.0000
  H   H4        1.0  0.9949500000000001  0.25429  0.65825  1.0000
  H   H5        1.0  0.044320000000000005  0.30507  0.58664  1.0000
  H   H6        1.0  0.9982500000000001  0.31368  0.60193  1.0000
  H   H7        1.0  0.047580000000000004  0.48486999999999997  0.71244  1.0000
  H   H8        1.0  0.01561000000000001  0.44358  0.70763  1.0000
  H   H9        1.0  0.07176000000000005  0.39595  0.7635499999999997  1.0000
  H   H10       1.0  0.06371000000000004  0.38755  0.8346299999999998  1.0000
  H   H11       1.0  0.9602500000000002  0.4652400000000002  0.88766  1.0000
  H   H12       1.0  0.9874500000000002  0.4970100000000002  0.74248  1.0000
  H   H13       1.0  0.07394999999999999  0.37805  0.5851  1.0000
  H   H14       1.0  0.09715  0.34103  0.60256  1.0000
  H   H15       1.0  0.06299000000000002  0.21077  0.56085  1.0000
  H   H16       1.0  0.05237  0.21582  0.51608  1.0000
  C   C41       1.0  0.8576700000000002  0.94967  0.35717  1.0000
  S   S3        1.0  0.87685  0.9604900000000002  0.30317  1.0000
  C   C42       1.0  0.8444500000000001  0.9963900000000002  0.29562999999999995  1.0000
  N   N107      1.0  0.8519700000000001  0.03801999999999994  0.28536  1.0000
  N   N108      1.0  0.82188  0.05403000000000024  0.28249  1.0000
  C   C43       1.0  0.7964900000000003  0.021840000000000078  0.29092  1.0000
  C   C44       1.0  0.75865  0.02626000000000017  0.28986  1.0000
  C   C45       1.0  0.7355000000000003  0.02463  0.33252  1.0000
  C   C46       1.0  0.6971300000000002  0.020830000000000005  0.3318299999999999  1.0000
  N   N109      1.0  0.67598  0.05285000000000001  0.34034  1.0000
  N   N110      1.0  0.6443199999999999  0.03899  0.3357  1.0000
  C   C47       1.0  0.64655  0.9987400000000001  0.32441  1.0000
  S   S4        1.0  0.61142  0.96731  0.30994  1.0000
  C   C48       1.0  0.5971400000000001  0.0103  0.28071  1.0000
  C   C49       1.0  0.6135300000000001  0.0077200000000000055  0.23643999999999996  1.0000
  C   C50       1.0  0.59975  0.97512  0.21652  1.0000
  C   C51       1.0  0.61012  0.97299  0.1751  1.0000
  C   C52       1.0  0.63288  0.005050000000000001  0.15164  1.0000
  C   C53       1.0  0.65178  0.03385  0.17167  1.0000
  C   C54       1.0  0.68075  0.060649999999999996  0.15071  1.0000
  N   N111      1.0  0.69705  0.08907999999999999  0.17059  1.0000
  N   N112      1.0  0.6865900000000001  0.09232000000000001  0.21005  1.0000
  C   C55       1.0  0.6594900000000002  0.06688  0.23246  1.0000
  C   C56       1.0  0.64144  0.03612  0.21416999999999994  1.0000
  N   N113      1.0  0.6790800000000001  0.98624  0.32241  1.0000
  N   N114      1.0  0.69061  0.94587  0.31298  1.0000
  N   N115      1.0  0.8100500000000003  0.98536  0.29906  1.0000
  N   N116      1.0  0.7937100000000001  0.944  0.3034499999999999  1.0000
  H   H17       1.0  0.87002  0.92163  0.36686999999999986  1.0000
  H   H18       1.0  0.8288  0.94158  0.36302  1.0000
  H   H19       1.0  0.7500300000000001  0.0007999999999999125  0.27192  1.0000
  H   H20       1.0  0.75635  0.05716000000000032  0.27442  1.0000
  H   H21       1.0  0.7411  0.9980099999999998  0.35156  1.0000
  H   H22       1.0  0.74138  0.054540000000000005  0.3467199999999999  1.0000
  H   H23       1.0  0.56796  0.0058800000000000015  0.28542  1.0000
  H   H24       1.0  0.60152  0.04193  0.29204  1.0000
  H   H25       1.0  0.5793300000000001  0.9522  0.23299999999999996  1.0000
  H   H26       1.0  0.59826  0.94749  0.16135  1.0000
  H   H27       1.0  0.6916  0.058190000000000006  0.11903999999999998  1.0000
  H   H28       1.0  0.65302  0.0709  0.26421  1.0000
  H   H29       1.0  0.70752  0.9378700000000002  0.3314999999999999  1.0000
  H   H30       1.0  0.70497  0.9477000000000002  0.28327  1.0000
  H   H31       1.0  0.78415  0.9385  0.2776899999999999  1.0000
  H   H32       1.0  0.77211  0.94277  0.3278299999999999  1.0000
  C   C57       1.0  0.9917200000000005  0.9006200000000002  0.45138  1.0000
  S   S5        1.0  0.9831300000000002  0.84447  0.4690999999999999  1.0000
  C   C58       1.0  0.9996400000000001  0.8249800000000003  0.4200699999999999  1.0000
  N   N117      1.0  0.034119999999999935  0.82711  0.40173  1.0000
  N   N118      1.0  0.036089999999999955  0.81329  0.36519  1.0000
  C   C59       1.0  0.0027600000000003186  0.8033  0.36161  1.0000
  C   C60       1.0  0.99393  0.7864  0.32436  1.0000
  C   C61       1.0  0.0027200000000002747  0.82058  0.29008  1.0000
  C   C62       1.0  0.0030000000000001198  0.8015000000000002  0.25058  1.0000
  N   N119      1.0  0.031660000000000015  0.7859500000000003  0.22765  1.0000
  N   N120      1.0  0.02253000000000017  0.77311  0.19459999999999994  1.0000
  C   C63       1.0  0.9884900000000003  0.78124  0.19763  1.0000
  S   S6        1.0  0.9629900000000001  0.7695400000000002  0.16035999999999995  1.0000
  C   C64       1.0  0.00019999999999997987  0.75926  0.11862  1.0000
  C   C65       1.0  0.005190000000000038  0.7128500000000002  0.11048999999999998  1.0000
  C   C66       1.0  0.9868200000000003  0.6802  0.13749  1.0000
  C   C67       1.0  0.9878300000000001  0.63802  0.12741  1.0000
  C   C68       1.0  0.007910000000000085  0.62648  0.09063  1.0000
  C   C69       1.0  0.02970000000000006  0.65844  0.06474  1.0000
  C   C70       1.0  0.05193  0.64924  0.02826  1.0000
  N   N121      1.0  0.07098000000000002  0.68093  0.0035299999999999993  1.0000
  N   N122      1.0  0.0696  0.72132  0.01276  1.0000
  C   C71       1.0  0.04898000000000002  0.7327800000000002  0.04743  1.0000
  C   C72       1.0  0.028149999999999897  0.70167  0.07463  1.0000
  N   N123      1.0  0.97568  0.79876  0.23246999999999995  1.0000
  N   N124      1.0  0.94162  0.8122  0.24604  1.0000
  N   N125      1.0  0.97943  0.81043  0.39567  1.0000
  N   N126      1.0  0.94238  0.80709  0.40333  1.0000
  H   H33       1.0  0.01129000000000003  0.9155000000000002  0.46647  1.0000
  H   H34       1.0  0.002999999999999886  0.90415  0.41855  1.0000
  H   H35       1.0  0.9655400000000001  0.77539  0.32996  1.0000
  H   H36       1.0  0.009549999999999951  0.75859  0.31621  1.0000
  H   H37       1.0  0.9830900000000001  0.84484  0.29569  1.0000
  H   H38       1.0  0.029180000000000025  0.83691  0.2883999999999999  1.0000
  H   H39       1.0  0.99405  0.77496  0.09167  1.0000
  H   H40       1.0  0.025479999999999944  0.77495  0.12231  1.0000
  H   H41       1.0  0.97017  0.6868600000000001  0.16596999999999995  1.0000
  H   H42       1.0  0.97064  0.61436  0.14744999999999994  1.0000
  H   H43       1.0  0.05509000000000001  0.61733  0.019319999999999993  1.0000
  H   H44       1.0  0.04922  0.76613  0.053139999999999986  1.0000
  H   H45       1.0  0.9442800000000002  0.84476  0.24995  1.0000
  H   H46       1.0  0.93111  0.79715  0.27427  1.0000
  H   H47       1.0  0.9342500000000004  0.77552  0.40015  1.0000
  H   H48       1.0  0.93486  0.82575  0.38121  1.0000
  C   C73       1.0  0.06502000000000004  0.97935  0.3435499999999999  1.0000
  S   S7        1.0  0.08099000000000002  0.92655  0.3338799999999999  1.0000
  C   C74       1.0  0.12711000000000006  0.9450400000000001  0.32132  1.0000
  N   N127      1.0  0.15025000000000005  0.9348900000000002  0.34352  1.0000
  N   N128      1.0  0.18141000000000002  0.9537600000000003  0.32535  1.0000
  C   C75       1.0  0.17685  0.97497  0.29216  1.0000
  C   C76       1.0  0.20619  0.9994999999999999  0.26282  1.0000
  C   C77       1.0  0.21683000000000002  0.04088  0.28033  1.0000
  C   C78       1.0  0.24574000000000001  0.06546  0.25046  1.0000
  N   N129      1.0  0.28041000000000005  0.06275  0.24895  1.0000
  N   N130      1.0  0.29797  0.08570000000000003  0.21657  1.0000
  C   C79       1.0  0.2738  0.10205  0.19874  1.0000
  S   S8        1.0  0.28398  0.13166  0.15074  1.0000
  C   C80       1.0  0.32898  0.15278  0.1524  1.0000
  C   C81       1.0  0.35906000000000005  0.12811000000000006  0.13020999999999996  1.0000
  C   C82       1.0  0.3532500000000001  0.08492  0.12307  1.0000
  C   C83       1.0  0.38049  0.06202000000000002  0.10254  1.0000
  C   C84       1.0  0.41470999999999986  0.08103  0.08949  1.0000
  C   C85       1.0  0.42151000000000005  0.12451000000000001  0.09651999999999997  1.0000
  C   C86       1.0  0.45524000000000003  0.14589  0.08276  1.0000
  N   N131      1.0  0.4610400000000001  0.18695  0.09093  1.0000
  N   N132      1.0  0.4355000000000001  0.20833  0.11181  1.0000
  C   C87       1.0  0.40225  0.19033  0.12534  1.0000
  C   C88       1.0  0.39386  0.14783  0.11746999999999998  1.0000
  N   N133      1.0  0.24098000000000006  0.08978000000000001  0.21933999999999995  1.0000
  N   N134      1.0  0.20903000000000005  0.10157000000000002  0.21111  1.0000
  N   N135      1.0  0.14302000000000004  0.97004  0.289  1.0000
  N   N136      1.0  0.12754000000000001  0.98595  0.25859  1.0000
  H   H49       1.0  0.04137  0.98193  0.33075  1.0000
  H   H50       1.0  0.08478000000000002  0.005390000000000004  0.3293899999999999  1.0000
  H   H51       1.0  0.19795000000000001  0.0062400000000000025  0.23432999999999995  1.0000
  H   H52       1.0  0.22910000000000005  0.9797300000000001  0.25585999999999987  1.0000
  H   H53       1.0  0.19376000000000002  0.06031000000000001  0.2881799999999999  1.0000
  H   H54       1.0  0.22617  0.03386000000000001  0.30814  1.0000
  H   H55       1.0  0.33088  0.18485  0.13756  1.0000
  H   H56       1.0  0.33165000000000006  0.15711000000000003  0.18372  1.0000
  H   H57       1.0  0.32772  0.06806  0.13431  1.0000
  H   H58       1.0  0.37509  0.02868  0.09835  1.0000
  H   H59       1.0  0.47696000000000005  0.13091  0.06471  1.0000
  H   H60       1.0  0.38303000000000004  0.20965  0.14233999999999994  1.0000
  H   H61       1.0  0.19600999999999996  0.11728000000000002  0.23582999999999996  1.0000
  H   H62       1.0  0.19343000000000002  0.07385  0.20947  1.0000
  H   H63       1.0  0.14109  0.9752500000000001  0.23132  1.0000
  H   H64       1.0  0.1314  0.01903  0.2573  1.0000
  C   C89       1.0  0.98417  0.14778  0.3951  1.0000
  S   S9        1.0  0.96972  0.14277000000000004  0.3477  1.0000
  C   C90       1.0  0.9810900000000001  0.19736  0.32881  1.0000
  N   N137      1.0  6.000000000000593e-05  0.22638000000000005  0.34492  1.0000
  N   N138      1.0  0.001309999999999997  0.26279  0.32388  1.0000
  C   C91       1.0  0.9833100000000002  0.25549  0.29503  1.0000
  C   C92       1.0  0.9747000000000003  0.28971  0.2680799999999999  1.0000
  C   C93       1.0  0.9378200000000001  0.30351  0.28587  1.0000
  C   C94       1.0  0.92777  0.33771  0.25989  1.0000
  N   N139      1.0  0.94532  0.37631  0.25149  1.0000
  N   N140      1.0  0.9272600000000001  0.39913  0.2308  1.0000
  C   C95       1.0  0.89887  0.37421  0.22691  1.0000
  S   S10       1.0  0.8639800000000002  0.39048  0.20342  1.0000
  C   C96       1.0  0.88185  0.44558  0.18790999999999997  1.0000
  C   C97       1.0  0.9164599999999999  0.44833  0.1566  1.0000
  C   C98       1.0  0.9204800000000002  0.419  0.12636  1.0000
  C   C99       1.0  0.95256  0.41693  0.09939  1.0000
  C   C100      1.0  0.9810500000000001  0.44592  0.09951  1.0000
  C   C101      1.0  0.97802  0.47583  0.12952  1.0000
  C   C102      1.0  0.007060000000000068  0.50295  0.13316  1.0000
  N   N141      1.0  0.0030600000000000718  0.53223  0.16141999999999995  1.0000
  N   N142      1.0  0.9720200000000001  0.53608  0.18625  1.0000
  C   C103      1.0  0.94302  0.5104200000000002  0.18504999999999996  1.0000
  C   C104      1.0  0.9453  0.47823  0.15737  1.0000
  N   N143      1.0  0.8987100000000001  0.33571  0.24467  1.0000
  N   N144      1.0  0.8731100000000002  0.3017000000000001  0.24743999999999997  1.0000
  N   N145      1.0  0.97047  0.21483  0.2975  1.0000
  N   N146      1.0  0.9487300000000003  0.19593  0.2742  1.0000
  H   H65       1.0  0.013339999999999902  0.15319  0.389  1.0000
  H   H66       1.0  0.9720299999999998  0.17481  0.41127  1.0000
  H   H67       1.0  0.9760000000000001  0.27783  0.23762  1.0000
  H   H68       1.0  0.9944600000000002  0.31726  0.26556  1.0000
  H   H69       1.0  0.9183200000000001  0.2756  0.28975  1.0000
  H   H70       1.0  0.9371900000000002  0.3159  0.3160099999999999  1.0000
  H   H71       1.0  0.8621  0.46169  0.17501  1.0000
  H   H72       1.0  0.8840700000000001  0.46085  0.21588  1.0000
  H   H73       1.0  0.89913  0.39604  0.12449  1.0000
  H   H74       1.0  0.95558  0.39123  0.07919  1.0000
  H   H75       1.0  0.03278000000000001  0.50153  0.11345999999999998  1.0000
  H   H76       1.0  0.91865  0.51617  0.20545  1.0000
  H   H77       1.0  0.8627500000000002  0.29376  0.2779099999999999  1.0000
  H   H78       1.0  0.8860100000000001  0.27588  0.23463999999999993  1.0000
  H   H79       1.0  0.9607100000000001  0.16933  0.26193  1.0000
  H   H80       1.0  0.92479  0.18531000000000003  0.2935699999999999  1.0000
  C   C105      1.0  0.5254199999999999  0.88041  0.99456  1.0000
  S   S11       1.0  0.54355  0.8292400000000002  0.0025800000000000267  1.0000
  C   C106      1.0  0.58987  0.84566  0.98236  1.0000
  N   N147      1.0  0.60287  0.8853  0.96852  1.0000
  N   N148      1.0  0.63778  0.88496  0.95862  1.0000
  C   C107      1.0  0.6457000000000002  0.84504  0.96624  1.0000
  C   C108      1.0  0.6827500000000004  0.83187  0.96136  1.0000
  C   C109      1.0  0.70524  0.8451  0.9194399999999998  1.0000
  C   C110      1.0  0.74194  0.83088  0.9149299999999998  1.0000
  N   N149      1.0  0.7649800000000002  0.84554  0.9364  1.0000
  N   N150      1.0  0.79408  0.82519  0.9253399999999998  1.0000
  C   C111      1.0  0.78857  0.7984900000000003  0.89709  1.0000
  S   S12       1.0  0.81892  0.76073  0.8735  1.0000
  C   C112      1.0  0.85883  0.7785400000000001  0.8913099999999999  1.0000
  C   C113      1.0  0.8700800000000004  0.74765  0.9205399999999998  1.0000
  C   C114      1.0  0.84835  0.71114  0.93707  1.0000
  C   C115      1.0  0.8593  0.6818800000000003  0.9622699999999998  1.0000
  C   C116      1.0  0.89163  0.6886800000000002  0.97319  1.0000
  C   C117      1.0  0.9137899999999998  0.72551  0.95799  1.0000
  C   C118      1.0  0.9469700000000002  0.7333000000000002  0.96738  1.0000
  N   N151      1.0  0.9676800000000001  0.76867  0.95184  1.0000
  N   N152      1.0  0.95755  0.7966700000000002  0.92748  1.0000
  C   C119      1.0  0.9260800000000002  0.79114  0.9168299999999998  1.0000
  C   C120      1.0  0.9030600000000002  0.75506  0.9316  1.0000
  N   N153      1.0  0.7562500000000002  0.8015000000000002  0.89009  1.0000
  N   N154      1.0  0.7411800000000003  0.77832  0.86303  1.0000
  N   N155      1.0  0.61609  0.81991  0.98106  1.0000
  N   N156      1.0  0.61286  0.77783  0.9968099999999999  1.0000
  H   H81       1.0  0.4964900000000001  0.87434  0.0006099999999999994  1.0000
  H   H82       1.0  0.5352500000000003  0.8907400000000002  0.9627099999999998  1.0000
  H   H83       1.0  0.68235  0.79693  0.96641  1.0000
  H   H84       1.0  0.6946500000000001  0.8471  0.98451  1.0000
  H   H85       1.0  0.6925200000000004  0.8312100000000002  0.8963  1.0000
  H   H86       1.0  0.70706  0.88019  0.9146799999999998  1.0000
  H   H87       1.0  0.8802100000000003  0.7826500000000002  0.8636799999999998  1.0000
  H   H88       1.0  0.8563300000000001  0.80989  0.90454  1.0000
  H   H89       1.0  0.82257  0.70455  0.9308799999999998  1.0000
  H   H90       1.0  0.84209  0.65377  0.9738099999999998  1.0000
  H   H91       1.0  0.9568600000000003  0.71153  0.98661  1.0000
  H   H92       1.0  0.9195500000000001  0.81508  0.89691  1.0000
  H   H93       1.0  0.73474  0.80001  0.84247  1.0000
  H   H94       1.0  0.7179100000000002  0.76202  0.8792899999999998  1.0000
  H   H95       1.0  0.62701  0.77687  0.01946000000000003  1.0000
  H   H96       1.0  0.62479  0.759  0.97394  1.0000
  C   C121      1.0  0.90316  0.36488  0.01896  1.0000
  S   S13       1.0  0.8895000000000001  0.35869  0.97118  1.0000
  C   C122      1.0  0.8483900000000001  0.3264400000000001  0.99012  1.0000
  N   N157      1.0  0.8381400000000001  0.30718  0.02712  1.0000
  N   N158      1.0  0.80642  0.28768  0.029599999999999994  1.0000
  C   C123      1.0  0.79777  0.2949400000000001  0.99397  1.0000
  C   C124      1.0  0.76271  0.28077  0.98529  1.0000
  C   C125      1.0  0.75526  0.23229  0.99021  1.0000
  C   C126      1.0  0.7650500000000003  0.21207  0.95068  1.0000
  N   N159      1.0  0.79431  0.19099  0.93929  1.0000
  N   N160      1.0  0.7936900000000001  0.17616  0.9036099999999998  1.0000
  C   C127      1.0  0.76406  0.18838  0.8937299999999998  1.0000
  S   S14       1.0  0.7501300000000001  0.17362  0.84871  1.0000
  C   C128      1.0  0.7410000000000001  0.11668  0.8644099999999998  1.0000
  C   C129      1.0  0.70284  0.10335  0.88515  1.0000
  C   C130      1.0  0.67612  0.13179000000000002  0.8871899999999998  1.0000
  C   C131      1.0  0.6413900000000002  0.12006  0.90698  1.0000
  C   C132      1.0  0.63196  0.07939000000000002  0.92479  1.0000
  C   C133      1.0  0.65791  0.04982  0.92279  1.0000
  C   C134      1.0  0.64942  0.008490000000000008  0.9405099999999998  1.0000
  N   N161      1.0  0.6747900000000001  0.98078  0.93791  1.0000
  N   N162      1.0  0.7080300000000003  0.9915700000000001  0.9188999999999998  1.0000
  C   C135      1.0  0.71817  0.03080000000000001  0.9011699999999998  1.0000
  C   C136      1.0  0.69334  0.06155  0.90267  1.0000
  N   N163      1.0  0.7456800000000001  0.21095000000000008  0.92252  1.0000
  N   N164      1.0  0.7116899999999999  0.22453999999999996  0.92477  1.0000
  N   N165      1.0  0.8236400000000001  0.31901  0.96885  1.0000
  N   N166      1.0  0.82447  0.3330300000000001  0.92921  1.0000
  H   H97       1.0  0.92156  0.34035  0.022359999999999994  1.0000
  H   H98       1.0  0.8804700000000003  0.3617000000000001  0.045239999999999725  1.0000
  H   H99       1.0  0.76147  0.29258  0.95463  1.0000
  H   H100      1.0  0.7418900000000002  0.2958  0.006699999999999705  1.0000
  H   H101      1.0  0.7700000000000001  0.21835000000000002  0.011319999999999997  1.0000
  H   H102      1.0  0.72676  0.22423000000000007  0.003489999999999993  1.0000
  H   H103      1.0  0.7483900000000001  0.09818999999999999  0.83728  1.0000
  H   H104      1.0  0.7584900000000001  0.10824  0.88466  1.0000
  H   H105      1.0  0.68153  0.16348  0.87349  1.0000
  H   H106      1.0  0.62186  0.14318  0.9088299999999998  1.0000
  H   H107      1.0  0.6227400000000001  0.9976900000000002  0.95574  1.0000
  H   H108      1.0  0.7455400000000001  0.03724  0.88604  1.0000
  H   H109      1.0  0.7129000000000001  0.25727  0.9279299999999998  1.0000
  H   H110      1.0  0.6950600000000001  0.21012  0.95072  1.0000
  H   H111      1.0  0.8285200000000001  0.36609  0.92741  1.0000
  H   H112      1.0  0.8464300000000001  0.32109  0.91079  1.0000
  C   C137      1.0  0.3368000000000001  0.99686  0.8929999999999998  1.0000
  S   S15       1.0  0.2915800000000001  0.9843400000000002  0.92338  1.0000
  C   C138      1.0  0.27044  0.9831  0.88135  1.0000
  N   N167      1.0  0.2594700000000001  0.94708  0.8664599999999998  1.0000
  N   N168      1.0  0.2453  0.95836  0.83606  1.0000
  C   C139      1.0  0.24776000000000012  0.0011000000000000133  0.8329199999999998  1.0000
  C   C140      1.0  0.23462000000000008  0.02660000000000002  0.8023099999999997  1.0000
  C   C141      1.0  0.26551  0.04942  0.77161  1.0000
  C   C142      1.0  0.25233  0.07149000000000001  0.7389  1.0000
  N   N169      1.0  0.25416000000000005  0.05616000000000001  0.7022699999999998  1.0000
  N   N170      1.0  0.23871  0.08279  0.68192  1.0000
  C   C143      1.0  0.22755000000000006  0.11393  0.7064199999999998  1.0000
  S   S16       1.0  0.20482000000000003  0.1589  0.69367  1.0000
  C   C144      1.0  0.21229  0.15387000000000003  0.63889  1.0000
  C   C145      1.0  0.19185000000000008  0.11531000000000001  0.6276799999999998  1.0000
  C   C146      1.0  0.1552  0.11184999999999999  0.64316  1.0000
  C   C147      1.0  0.13355  0.07996  0.63205  1.0000
  C   C148      1.0  0.14778999999999998  0.05038000000000002  0.60499  1.0000
  C   C149      1.0  0.18468000000000004  0.05194000000000002  0.58967  1.0000
  C   C150      1.0  0.19995000000000004  0.021569999999999995  0.56351  1.0000
  N   N171      1.0  0.23532000000000003  0.024150000000000015  0.5488199999999998  1.0000
  N   N172      1.0  0.25635  0.05497  0.55859  1.0000
  C   C151      1.0  0.24353000000000005  0.08524  0.58373  1.0000
  C   C152      1.0  0.20702  0.08475  0.60057  1.0000
  N   N173      1.0  0.23554000000000005  0.10750999999999998  0.74224  1.0000
  N   N174      1.0  0.22954000000000002  0.13456  0.77437  1.0000
  N   N175      1.0  0.26320000000000005  0.01737000000000001  0.8610399999999998  1.0000
  N   N176      1.0  0.26805  0.06038  0.86888  1.0000
  H   H113      1.0  0.34498000000000006  0.030020000000000012  0.8984099999999998  1.0000
  H   H114      1.0  0.33804999999999996  0.9947  0.86035  1.0000
  H   H115      1.0  0.21693  0.0495  0.81822  1.0000
  H   H116      1.0  0.2187700000000001  0.005420000000000013  0.7866199999999998  1.0000
  H   H117      1.0  0.28045  0.07265  0.78637  1.0000
  H   H118      1.0  0.28392000000000006  0.025730000000000003  0.75807  1.0000
  H   H119      1.0  0.20213  0.18244  0.62686  1.0000
  H   H120      1.0  0.24096000000000006  0.15642000000000006  0.62604  1.0000
  H   H121      1.0  0.14302999999999996  0.13468  0.66367  1.0000
  H   H122      1.0  0.10530000000000005  0.07900000000000001  0.6440199999999999  1.0000
  H   H123      1.0  0.18396000000000004  0.9956  0.55507  1.0000
  H   H124      1.0  0.26253  0.10863  0.59005  1.0000
  H   H125      1.0  0.25403  0.14715  0.77807  1.0000
  H   H126      1.0  0.21724000000000004  0.11652000000000001  0.8003999999999999  1.0000
  H   H127      1.0  0.25437000000000004  0.06443000000000002  0.8982699999999998  1.0000
  H   H128      1.0  0.29491000000000006  0.06745999999999999  0.86727  1.0000
  C   C153      1.0  0.03418  0.54488  0.89235  1.0000
  S   S17       1.0  0.05653000000000006  0.5985700000000002  0.8843099999999999  1.0000
  C   C154      1.0  0.03142999999999999  0.6214499999999998  0.85159  1.0000
  N   N177      1.0  0.016789999999999996  0.65868  0.85813  1.0000
  N   N178      1.0  0.006260000000000041  0.67002  0.8251899999999998  1.0000
  C   C155      1.0  0.015040000000000005  0.6398  0.79874  1.0000
  C   C156      1.0  0.011749999999999712  0.6439600000000002  0.7559  1.0000
  C   C157      1.0  0.97296  0.64333  0.75304  1.0000
  C   C158      1.0  0.9691100000000001  0.6697300000000004  0.71711  1.0000
  N   N179      1.0  0.9562100000000002  0.70832  0.71927  1.0000
  N   N180      1.0  0.9553300000000001  0.72129  0.68216  1.0000
  C   C159      1.0  0.9676800000000001  0.69044  0.6578299999999998  1.0000
  S   S18       1.0  0.96961  0.69074  0.6043099999999999  1.0000
  C   C160      1.0  0.93816  0.73178  0.60298  1.0000
  C   C161      1.0  0.9538400000000001  0.7776  0.59965  1.0000
  C   C162      1.0  0.9901500000000002  0.7871  0.58356  1.0000
  C   C163      1.0  0.004309999999999986  0.8288200000000002  0.57479  1.0000
  C   C164      1.0  0.98287  0.8627500000000002  0.5817499999999998  1.0000
  C   C165      1.0  0.9468100000000002  0.8544200000000002  0.60147  1.0000
  C   C166      1.0  0.92484  0.8873900000000001  0.61371  1.0000
  N   N181      1.0  0.8901900000000006  0.87835  0.63072  1.0000
  N   N182      1.0  0.87589  0.83867  0.6362899999999998  1.0000
  C   C167      1.0  0.8954000000000004  0.80523  0.62598  1.0000
  C   C168      1.0  0.93198  0.81185  0.60925  1.0000
  N   N183      1.0  0.9767800000000001  0.65812  0.6789  1.0000
  N   N184      1.0  0.98895  0.61968  0.6642199999999998  1.0000
  N   N185      1.0  0.030770000000000016  0.60892  0.81468  1.0000
  N   N186      1.0  0.04750000000000005  0.57482  0.7955499999999998  1.0000
  H   H129      1.0  0.05039999999999999  0.52371  0.90572  1.0000
  H   H130      1.0  0.031179999999999986  0.5317  0.8636299999999998  1.0000
  H   H131      1.0  0.02447000000000002  0.6180400000000003  0.73851  1.0000
  H   H132      1.0  0.026320000000000003  0.6744  0.74275  1.0000
  H   H133      1.0  0.96241  0.61016  0.7511  1.0000
  H   H134      1.0  0.9565700000000001  0.65606  0.78027  1.0000
  H   H135      1.0  0.9262200000000003  0.7266  0.57674  1.0000
  H   H136      1.0  0.91673  0.7252900000000002  0.63014  1.0000
  H   H137      1.0  0.00785000000000015  0.76232  0.57555  1.0000
  H   H138      1.0  0.03191999999999998  0.83436  0.56001  1.0000
  H   H139      1.0  0.93484  0.92025  0.6107999999999998  1.0000
  H   H140      1.0  0.88176  0.7741000000000002  0.63108  1.0000
  H   H141      1.0  0.9713300000000001  0.5951600000000001  0.6796599999999998  1.0000
  H   H142      1.0  0.013390000000000006  0.61647  0.67142  1.0000
  H   H143      1.0  0.06706000000000005  0.5872  0.7710599999999997  1.0000
  H   H144      1.0  0.02864000000000005  0.5567900000000002  0.78454  1.0000
  C   C169      1.0  0.90755  0.04451000000000001  0.63603  1.0000
  S   S19       1.0  0.9083500000000001  0.9983300000000002  0.67002  1.0000
  C   C170      1.0  0.8612100000000001  0.9857200000000002  0.6805599999999999  1.0000
  N   N187      1.0  0.8457600000000001  0.9526  0.66557  1.0000
  N   N188      1.0  0.8111000000000003  0.95483  0.6773399999999999  1.0000
  C   C171      1.0  0.8059400000000001  0.98929  0.6993699999999998  1.0000
  C   C172      1.0  0.7705100000000001  0.004809999999999999  0.71644  1.0000
  C   C173      1.0  0.7652700000000003  0.04485999999999999  0.69251  1.0000
  C   C174      1.0  0.73164  0.06325  0.71185  1.0000
  N   N189      1.0  0.6995  0.047630000000000006  0.70824  1.0000
  N   N190      1.0  0.67598  0.07019000000000003  0.73087  1.0000
  C   C175      1.0  0.69406  0.09918000000000005  0.74814  1.0000
  S   S20       1.0  0.67448  0.13654  0.78403  1.0000
  C   C176      1.0  0.6280200000000001  0.12117000000000003  0.7837199999999998  1.0000
  C   C177      1.0  0.61436  0.07654000000000001  0.8011599999999998  1.0000
  C   C178      1.0  0.6309700000000001  0.055560000000000005  0.8281099999999999  1.0000
  C   C179      1.0  0.61703  0.01641000000000001  0.8468199999999998  1.0000
  C   C180      1.0  0.5864300000000001  0.9963500000000001  0.8390899999999998  1.0000
  C   C181      1.0  0.57252  0.013690000000000003  0.80742  1.0000
  C   C182      1.0  0.5476500000000002  0.99065  0.7908899999999998  1.0000
  N   N191      1.0  0.5320700000000002  0.009840000000000073  0.7640599999999997  1.0000
  N   N192      1.0  0.5403900000000001  0.05041  0.75197  1.0000
  C   C183      1.0  0.56601  0.07390000000000001  0.7644499999999997  1.0000
  C   C184      1.0  0.58449  0.05528000000000001  0.79093  1.0000
  N   N193      1.0  0.72882  0.09562000000000001  0.73658  1.0000
  N   N194      1.0  0.7556500000000004  0.11924  0.7496399999999999  1.0000
  N   N195      1.0  0.8368400000000001  0.009060000000000002  0.70195  1.0000
  N   N196      1.0  0.84193  0.04370000000000003  0.7251799999999998  1.0000
  H   H145      1.0  0.92746  0.06963  0.64021  1.0000
  H   H146      1.0  0.8814900000000002  0.05809  0.64194  1.0000
  H   H147      1.0  0.7687999999999999  0.011520000000000002  0.74849  1.0000
  H   H148      1.0  0.7495500000000002  0.9796700000000002  0.71499  1.0000
  H   H149      1.0  0.78775  0.06889  0.6905  1.0000
  H   H150      1.0  0.76419  0.03674000000000001  0.6613899999999998  1.0000
  H   H151      1.0  0.61117  0.14416  0.80108  1.0000
  H   H152      1.0  0.6262500000000002  0.12518000000000007  0.75182  1.0000
  H   H153      1.0  0.6542100000000001  0.06999000000000005  0.8360899999999998  1.0000
  H   H154      1.0  0.62943  0.002529999999999997  0.86899  1.0000
  H   H155      1.0  0.5409400000000001  0.95739  0.79841  1.0000
  H   H156      1.0  0.57154  0.1068  0.75353  1.0000
  H   H157      1.0  0.77328  0.13341  0.72426  1.0000
  H   H158      1.0  0.7689400000000001  0.09806  0.7640599999999997  1.0000
  H   H159      1.0  0.858  0.03463  0.74432  1.0000
  H   H160      1.0  0.8556000000000001  0.06861000000000006  0.70599  1.0000
  C   C185      1.0  0.40306000000000003  0.87277  0.05750000000000011  1.0000
  S   S21       1.0  0.35771000000000003  0.88013  0.05258000000000007  1.0000
  C   C186      1.0  0.35133  0.83447  0.02367000000000008  1.0000
  N   N197      1.0  0.37708  0.81172  0.0036999999999999993  1.0000
  N   N198      1.0  0.3615500000000001  0.78109  0.98663  1.0000
  C   C187      1.0  0.32647000000000004  0.7857  0.9961799999999998  1.0000
  C   C188      1.0  0.2991  0.75652  0.9839099999999998  1.0000
  C   C189      1.0  0.30857000000000007  0.74941  0.9387599999999998  1.0000
  C   C190      1.0  0.27658000000000005  0.73414  0.92421  1.0000
  N   N199      1.0  0.26903  0.69347  0.9167  1.0000
  N   N200      1.0  0.24066000000000007  0.69269  0.9011199999999998  1.0000
  C   C191      1.0  0.23135000000000006  0.73291  0.8991  1.0000
  S   S22       1.0  0.19616000000000006  0.75002  0.87655  1.0000
  C   C192      1.0  0.18915000000000004  0.7007  0.8510899999999998  1.0000
  C   C193      1.0  0.16767999999999997  0.66389  0.87721  1.0000
  C   C194      1.0  0.15413000000000004  0.66762  0.9186  1.0000
  C   C195      1.0  0.13349  0.6345200000000001  0.94219  1.0000
  C   C196      1.0  0.12535  0.59678  0.92545  1.0000
  C   C197      1.0  0.13939999999999997  0.59135  0.88404  1.0000
  C   C198      1.0  0.13204000000000002  0.55373  0.8654599999999998  1.0000
  N   N201      1.0  0.14459  0.55053  0.82554  1.0000
  N   N202      1.0  0.16437000000000007  0.5820700000000002  0.8029  1.0000
  C   C199      1.0  0.17283000000000004  0.61901  0.81861  1.0000
  C   C200      1.0  0.16034  0.62509  0.85984  1.0000
  N   N203      1.0  0.25321000000000005  0.7593  0.91367  1.0000
  N   N204      1.0  0.2537700000000001  0.80373  0.9132399999999998  1.0000
  N   N205      1.0  0.31973000000000007  0.8191  0.01923000000000008  1.0000
  N   N206      1.0  0.28716  0.83549  0.0351699999999997  1.0000
  H   H161      1.0  0.4057000000000001  0.88493  0.08688999999999991  1.0000
  H   H162      1.0  0.4086300000000001  0.8388000000000002  0.058130000000000015  1.0000
  H   H163      1.0  0.2728900000000001  0.76976  0.99239  1.0000
  H   H164      1.0  0.29725  0.72557  0.0009500000000000064  1.0000
  H   H165      1.0  0.3205400000000001  0.77901  0.9212199999999998  1.0000
  H   H166      1.0  0.3284500000000001  0.72542  0.9328299999999998  1.0000
  H   H167      1.0  0.17521000000000003  0.70911  0.8271899999999998  1.0000
  H   H168      1.0  0.21538  0.69062  0.8360399999999998  1.0000
  H   H169      1.0  0.15930000000000002  0.6960400000000001  0.9334899999999998  1.0000
  H   H170      1.0  0.12438000000000005  0.63805  0.9740499999999999  1.0000
  H   H171      1.0  0.11563  0.52718  0.88182  1.0000
  H   H172      1.0  0.18907000000000004  0.64321  0.7984799999999997  1.0000
  H   H173      1.0  0.27784999999999993  0.81582  0.89503  1.0000
  H   H174      1.0  0.25324  0.81281  0.9424199999999998  1.0000
  H   H175      1.0  0.27105000000000007  0.81174  0.0537099999999997  1.0000
  H   H176      1.0  0.27561000000000013  0.84292  0.011260000000000046  1.0000
  C   C201      1.0  0.10236000000000003  0.2739600000000001  0.01587000000000005  1.0000
  S   S23       1.0  0.12646000000000002  0.23578000000000002  0.98255  1.0000
  C   C202      1.0  0.16933000000000004  0.2416  0.99546  1.0000
  N   N207      1.0  0.17744  0.26565  0.02439  1.0000
  N   N208      1.0  0.21104  0.26099  0.02466  1.0000
  C   C203      1.0  0.22312  0.23417999999999997  0.99588  1.0000
  C   C204      1.0  0.26036000000000004  0.22106  0.9863499999999998  1.0000
  C   C205      1.0  0.2834400000000001  0.24857000000000004  0.9510799999999998  1.0000
  C   C206      1.0  0.32136000000000003  0.25374  0.95455  1.0000
  N   N209      1.0  0.33452999999999994  0.28605  0.97289  1.0000
  N   N210      1.0  0.36872000000000016  0.28137  0.96929  1.0000
  C   C207      1.0  0.37603000000000003  0.24619999999999997  0.94889  1.0000
  S   S24       1.0  0.4201000000000001  0.22868000000000002  0.9326099999999998  1.0000
  C   C208      1.0  0.43099  0.22364999999999996  0.98241  1.0000
  C   C209      1.0  0.44991  0.18351000000000006  0.9838  1.0000
  C   C210      1.0  0.42905  0.1464  0.99905  1.0000
  C   C211      1.0  0.44101000000000007  0.10687999999999999  0.98944  1.0000
  C   C212      1.0  0.4748800000000001  0.1026  0.96596  1.0000
  C   C213      1.0  0.4978900000000001  0.13955  0.95448  1.0000
  C   C214      1.0  0.53219  0.13732  0.93141  1.0000
  N   N211      1.0  0.5535200000000002  0.17321  0.9198299999999998  1.0000
  N   N212      1.0  0.54227  0.2113200000000001  0.92852  1.0000
  C   C215      1.0  0.5088700000000002  0.21611  0.9490999999999998  1.0000
  C   C216      1.0  0.48552  0.1802  0.9631999999999998  1.0000
  N   N213      1.0  0.34698999999999997  0.22859  0.9389  1.0000
  N   N214      1.0  0.34389  0.19044  0.91975  1.0000
  N   N215      1.0  0.19754  0.22172000000000003  0.97718  1.0000
  N   N216      1.0  0.20015000000000002  0.19498  0.9449299999999998  1.0000
  H   H177      1.0  0.07685000000000003  0.2578100000000001  0.032340000000000035  1.0000
  H   H178      1.0  0.11657000000000008  0.28579  0.03845999999999972  1.0000
  H   H179      1.0  0.26032  0.1870700000000001  0.9791499999999999  1.0000
  H   H180      1.0  0.27111  0.22418999999999997  0.013740000000000084  1.0000
  H   H181      1.0  0.28174  0.23433  0.9223  1.0000
  H   H182      1.0  0.27361  0.28075  0.95018  1.0000
  H   H183      1.0  0.4471100000000001  0.25199  0.9878799999999999  1.0000
  H   H184      1.0  0.40642000000000006  0.22187000000000007  0.006389999999999674  1.0000
  H   H185      1.0  0.40186000000000005  0.14785  0.015009999999999968  1.0000
  H   H186      1.0  0.42162  0.07994000000000001  0.99534  1.0000
  H   H187      1.0  0.54196  0.10740000000000004  0.9222899999999999  1.0000
  H   H188      1.0  0.50119  0.24790999999999996  0.95426  1.0000
  H   H189      1.0  0.33476999999999996  0.1971  0.89381  1.0000
  H   H190      1.0  0.32459  0.17027  0.9390299999999998  1.0000
  H   H191      1.0  0.1806  0.17007  0.95352  1.0000
  H   H192      1.0  0.19407  0.2123  0.92103  1.0000
