data_image0
_chemical_formula_structural       Mn5CN8C2N8CN16Cl2C4Mn5CN8C2N8CN16Cl2C4Mn5CN8C2N8CN16Cl2C13ClC3ClC6H12C9ClC3ClC6H12C9ClC3ClC6H12C9ClC3ClC6H12C9ClC3ClC6H12C9ClC3ClC6H12C9ClC3ClC6H12C9ClC3ClC6H12C9ClC3ClC6H12C9ClC3ClC6H12C9ClC3ClC6H12C9ClC3ClC6H12
_chemical_formula_sum              "Mn15 C240 N96 Cl30 H144"
_cell_length_a       30.6762
_cell_length_b       22.9947
_cell_length_c       26.946500000000004
_cell_angle_alpha    88.99669999999999
_cell_angle_beta     81.65939999999999
_cell_angle_gamma    95.2252

_symmetry_space_group_name_H-M    'P 1'
_symmetry_Int_Tables_number       1

loop_
  _symmetry_equiv_pos_as_xyz
  'x,y,z'

loop_
  _atom_site_type_symbol
  _atom_site_label
  _atom_site_symmetry_multiplicity
  _atom_site_fract_x
  _atom_site_fract_y
  _atom_site_fract_z
  _atom_site_occupancy
  Mn  Mn1       1.0  0.16099999999999998  0.41895000000000004  0.06369  1.0000
  Mn  Mn2       1.0  0.10533999999999999  0.43625  0.96315  1.0000
  Mn  Mn3       1.0  0.8270799999999996  0.55955  0.9605800000000002  1.0000
  Mn  Mn4       1.0  0.8854599999999998  0.52186  0.054290000000000005  1.0000
  Mn  Mn5       1.0  0.9944599999999999  0.47750000000000004  0.005550000000000002  1.0000
  C   C1        1.0  0.18181  0.3166  0.0014899999999999913  1.0000
  N   N1        1.0  0.15203  0.35467  0.015039999999999944  1.0000
  N   N2        1.0  0.12824999999999995  0.35815  0.9779400000000001  1.0000
  N   N3        1.0  0.14149999999999996  0.32113  0.9431500000000003  1.0000
  N   N4        1.0  0.17473999999999998  0.29444  0.9568700000000002  1.0000
  N   N5        1.0  0.051769999999999955  0.37444  0.8944900000000002  1.0000
  N   N6        1.0  0.05007999999999999  0.40141  0.93753  1.0000
  N   N7        1.0  0.01046999999999998  0.4205  0.9497400000000001  1.0000
  N   N8        1.0  0.98509  0.4051100000000001  0.9156  1.0000
  C   C2        1.0  0.010900000000000002  0.37582  0.8816600000000002  1.0000
  C   C3        1.0  0.09649999999999995  0.60614  0.95528  1.0000
  N   N9        1.0  0.08548  0.51457  0.95185  1.0000
  N   N10       1.0  0.11500999999999993  0.55881  0.9370200000000002  1.0000
  N   N11       1.0  0.03214  0.43607  0.04904  1.0000
  N   N12       1.0  0.07459999999999997  0.43402000000000013  0.03397  1.0000
  N   N13       1.0  0.09529  0.42466  0.07233  1.0000
  N   N14       1.0  0.06666999999999997  0.4171  0.11403  1.0000
  N   N15       1.0  0.04968999999999998  0.53303  0.9774400000000001  1.0000
  N   N16       1.0  0.05605999999999997  0.59055  0.9822600000000001  1.0000
  C   C4        1.0  0.026999999999999996  0.42459  0.09949000000000001  1.0000
  N   N17       1.0  0.84371  0.6166600000000001  0.012320000000000003  1.0000
  N   N18       1.0  0.8674599999999998  0.6038200000000001  0.04726  1.0000
  N   N19       1.0  0.8704199999999997  0.64785  0.07793000000000003  1.0000
  N   N20       1.0  0.8482999999999998  0.69049  0.06291  1.0000
  N   N21       1.0  0.94482  0.58767  0.11461  1.0000
  N   N22       1.0  0.9419099999999998  0.5508  0.07806000000000002  1.0000
  N   N23       1.0  0.9810399999999998  0.5337100000000001  0.06143  1.0000
  N   N24       1.0  0.011139999999999926  0.55934  0.08642  1.0000
  N   N25       1.0  0.93233  0.36641  0.023600000000000003  1.0000
  N   N26       1.0  0.9392099999999998  0.42258000000000007  0.03347000000000001  1.0000
  N   N27       1.0  0.9024199999999998  0.44026000000000004  0.05799  1.0000
  N   N28       1.0  0.8713699999999998  0.39638  0.0665  1.0000
  N   N29       1.0  0.9546699999999998  0.51916  0.96303  1.0000
  N   N30       1.0  0.9137299999999998  0.52813  0.98201  1.0000
  N   N31       1.0  0.8915599999999996  0.54422  0.94656  1.0000
  N   N32       1.0  0.9175599999999998  0.54928  0.9029500000000003  1.0000
  Cl  Cl1       1.0  0.16559999999999994  0.4774600000000001  0.9944000000000001  1.0000
  Cl  Cl2       1.0  0.82183  0.49143000000000003  0.024010000000000312  1.0000
  C   C5        1.0  0.8315499999999998  0.67026  0.022060000000000007  1.0000
  C   C6        1.0  0.9881199999999998  0.59266  0.11951000000000003  1.0000
  C   C7        1.0  0.8900999999999998  0.3507  0.04529000000000001  1.0000
  C   C8        1.0  0.9570999999999997  0.53435  0.91328  1.0000
  Mn  Mn6       1.0  0.62652  0.97798  0.14825  1.0000
  Mn  Mn7       1.0  0.55335  0.07004  0.11198  1.0000
  Mn  Mn8       1.0  0.38219999999999993  0.05053  0.8583400000000002  1.0000
  Mn  Mn9       1.0  0.4544699999999999  0.9591300000000003  0.89757  1.0000
  Mn  Mn10      1.0  0.49986999999999987  0.01207  0.00827  1.0000
  C   C9        1.0  0.68764  0.08282  0.0957  1.0000
  N   N33       1.0  0.6472999999999998  0.05689999999999995  0.11427000000000002  1.0000
  N   N34       1.0  0.6192  0.09415000000000003  0.10444  1.0000
  N   N35       1.0  0.64092  0.14206000000000002  0.08205000000000003  1.0000
  N   N36       1.0  0.68393  0.13649000000000003  0.07641000000000002  1.0000
  N   N37       1.0  0.5688199999999999  0.16711000000000004  0.03965000000000001  1.0000
  N   N38       1.0  0.54741  0.11527  0.050310000000000014  1.0000
  N   N39       1.0  0.5328299999999998  0.09335  0.01032  1.0000
  N   N40       1.0  0.5462699999999998  0.12989  0.9712000000000002  1.0000
  C   C10       1.0  0.5679299999999998  0.17622000000000002  0.9906300000000001  1.0000
  C   C11       1.0  0.4270099999999999  0.0034700000000000004  0.15004  1.0000
  N   N41       1.0  0.48897  0.04279  0.11762  1.0000
  N   N42       1.0  0.4633799999999999  0.03424  0.16122  1.0000
  N   N43       1.0  0.5491299999999998  0.97484  0.03675  1.0000
  N   N44       1.0  0.5677999999999997  0.9978500000000002  0.07388  1.0000
  N   N45       1.0  0.5937400000000002  0.9613300000000001  0.08985  1.0000
  N   N46       1.0  0.5932999999999999  0.9133800000000001  0.06385000000000002  1.0000
  N   N47       1.0  0.4693599999999999  0.01916999999999991  0.08102  1.0000
  N   N48       1.0  0.4304399999999999  0.99248  0.10058  1.0000
  C   C12       1.0  0.5660199999999997  0.9220600000000001  0.02994000000000001  1.0000
  N   N49       1.0  0.36155  0.96867  0.88582  1.0000
  N   N50       1.0  0.3898999999999999  0.9329800000000001  0.89767  1.0000
  N   N51       1.0  0.3693199999999999  0.88115  0.9120100000000002  1.0000
  N   N52       1.0  0.32647  0.8824600000000001  0.91093  1.0000
  N   N53       1.0  0.4296399999999999  0.8612500000000001  0.97151  1.0000
  N   N54       1.0  0.4535899999999999  0.91194  0.96185  1.0000
  N   N55       1.0  0.4665299999999999  0.9323100000000001  0.003470000000000306  1.0000
  N   N56       1.0  0.4511199999999999  0.8955000000000001  0.04156  1.0000
  N   N57       1.0  0.57767  0.010570000000000001  0.92975  1.0000
  N   N58       1.0  0.5340199999999996  0.005509999999999999  0.93828  1.0000
  N   N59       1.0  0.51826  0.98636  0.8979700000000002  1.0000
  N   N60       1.0  0.55111  0.97786  0.86202  1.0000
  N   N61       1.0  0.44969999999999977  0.04723000000000001  0.97882  1.0000
  N   N62       1.0  0.4379999999999999  0.030259999999999995  0.9356700000000001  1.0000
  N   N63       1.0  0.40938999999999975  0.06398000000000001  0.92146  1.0000
  N   N64       1.0  0.3990999999999999  0.10203999999999999  0.95616  1.0000
  Cl  Cl3       1.0  0.56321  0.017560000000000024  0.18102  1.0000
  Cl  Cl4       1.0  0.44888999999999984  0.015179999999999989  0.8287500000000002  1.0000
  C   C13       1.0  0.32182  0.93714  0.89508  1.0000
  C   C14       1.0  0.4281699999999999  0.85156  0.021060000000000082  1.0000
  C   C15       1.0  0.58815  0.99347  0.8823200000000002  1.0000
  C   C16       1.0  0.4240299999999999  0.09128000000000003  0.9923300000000003  1.0000
  Mn  Mn11      1.0  0.16215  0.12514  0.56988  1.0000
  Mn  Mn12      1.0  0.11847  0.002909999999999967  0.51557  1.0000
  Mn  Mn13      1.0  0.8380199999999998  0.9102600000000001  0.43441  1.0000
  Mn  Mn14      1.0  0.8897199999999996  0.03295  0.47985  1.0000
  Mn  Mn15      1.0  0.004419999999999993  0.013799999999999998  0.49445000000000006  1.0000
  C   C17       1.0  0.15789999999999996  0.028759999999999994  0.6519800000000002  1.0000
  N   N65       1.0  0.15369999999999998  0.045840000000000006  0.60512  1.0000
  N   N66       1.0  0.13747999999999996  0.99879  0.5843000000000002  1.0000
  N   N67       1.0  0.13212000000000004  0.95371  0.61641  1.0000
  N   N68       1.0  0.14454999999999998  0.97115  0.6593300000000002  1.0000
  N   N69       1.0  0.07084999999999995  0.89468  0.5635600000000001  1.0000
  N   N70       1.0  0.06762  0.94127  0.53567  1.0000
  N   N71       1.0  0.025890000000000017  0.9463800000000001  0.53152  1.0000
  N   N72       1.0  0.0002899999999998956  0.9032200000000001  0.55746  1.0000
  C   C18       1.0  0.028980000000000006  0.8708100000000001  0.57687  1.0000
  C   C19       1.0  0.10132000000000002  0.015390000000000017  0.3698  1.0000
  N   N73       1.0  0.09938999999999998  0.010480000000000043  0.44807000000000013  1.0000
  N   N74       1.0  0.12719999999999998  0.012089999999999934  0.4057900000000001  1.0000
  N   N75       1.0  0.040690000000000004  0.07314000000000002  0.53189  1.0000
  N   N76       1.0  0.08147999999999993  0.0669  0.5393600000000001  1.0000
  N   N77       1.0  0.09790999999999996  0.11311000000000002  0.56106  1.0000
  N   N78       1.0  0.06811999999999999  0.15089000000000002  0.5701500000000002  1.0000
  N   N79       1.0  0.05832  0.012559999999999997  0.43911000000000006  1.0000
  N   N80       1.0  0.058199999999999995  0.01602  0.39002000000000003  1.0000
  C   C20       1.0  0.03216  0.1257  0.55218  1.0000
  N   N81       1.0  0.8514499999999998  0.9863800000000001  0.3940700000000001  1.0000
  N   N82       1.0  0.8665299999999998  0.03518  0.41321000000000013  1.0000
  N   N83       1.0  0.87587  0.07671000000000001  0.37778  1.0000
  N   N84       1.0  0.8686399999999997  0.05436000000000001  0.3343200000000001  1.0000
  N   N85       1.0  0.9417699999999998  0.1371  0.42562  1.0000
  N   N86       1.0  0.9427599999999998  0.08919  0.45319  1.0000
  N   N87       1.0  0.9842199999999998  0.08041000000000001  0.45678000000000013  1.0000
  N   N88       1.0  0.011529999999999978  0.12192  0.4316700000000001  1.0000
  N   N89       1.0  0.9579099999999998  0.012270000000000223  0.59826  1.0000
  N   N90       1.0  0.9533199999999997  0.01662000000000008  0.5505  1.0000
  N   N91       1.0  0.91239  0.027180000000000003  0.54616  1.0000
  N   N92       1.0  0.8887399999999998  0.030089999999999995  0.5911  1.0000
  N   N93       1.0  0.96484  0.95571  0.45901  1.0000
  N   N94       1.0  0.9229899999999998  0.9638  0.45664  1.0000
  N   N95       1.0  0.90247  0.91645  0.4407800000000001  1.0000
  N   N96       1.0  0.9296799999999997  0.8756600000000002  0.4311600000000001  1.0000
  Cl  Cl5       1.0  0.17438999999999996  0.07539000000000001  0.4969900000000001  1.0000
  Cl  Cl6       1.0  0.8313099999999998  0.96567  0.5047  1.0000
  C   C21       1.0  0.8549799999999999  0.99725  0.34443  1.0000
  C   C22       1.0  0.9848199999999998  0.15685  0.41251  1.0000
  C   C23       1.0  0.91781  0.020859999999999993  0.6230200000000001  1.0000
  C   C24       1.0  0.9685199999999998  0.9002500000000001  0.4426400000000001  1.0000
  C   C25       1.0  0.9895799999999999  0.15434  0.55443  1.0000
  C   C26       1.0  0.98951  0.20882  0.5855600000000001  1.0000
  C   C27       1.0  0.9636299999999999  0.2055  0.63297  1.0000
  C   C28       1.0  0.9600399999999999  0.25438  0.6623  1.0000
  C   C29       1.0  0.9823499999999998  0.30875  0.6457800000000002  1.0000
  C   C30       1.0  0.9710499999999999  0.36055000000000004  0.67801  1.0000
  C   C31       1.0  0.9821399999999999  0.3549100000000001  0.7308500000000002  1.0000
  C   C32       1.0  0.9475499999999999  0.34968  0.7714700000000002  1.0000
  C   C33       1.0  0.9561399999999999  0.35355  0.82097  1.0000
  Cl  Cl7       1.0  0.91048  0.3486600000000001  0.8689700000000002  1.0000
  C   C34       1.0  0.0001399999999999747  0.36195  0.8309200000000002  1.0000
  C   C35       1.0  0.03479999999999997  0.36316  0.79043  1.0000
  C   C36       1.0  0.026169999999999947  0.36032000000000003  0.7408400000000003  1.0000
  Cl  Cl8       1.0  0.07158  0.36773  0.69241  1.0000
  C   C37       1.0  0.010240000000000003  0.3132400000000001  0.59829  1.0000
  C   C38       1.0  0.034869999999999984  0.36623  0.5796500000000001  1.0000
  C   C39       1.0  0.06145  0.36956  0.53294  1.0000
  C   C40       1.0  0.06412999999999998  0.3207  0.5035  1.0000
  C   C41       1.0  0.040429999999999994  0.2679000000000001  0.52057  1.0000
  C   C42       1.0  0.013500000000000005  0.2628400000000001  0.56798  1.0000
  H   H1        1.0  0.9617899999999998  0.12279000000000001  0.5706800000000001  1.0000
  H   H2        1.0  0.9830799999999997  0.16631  0.51656  1.0000
  H   H3        1.0  0.94521  0.16473000000000002  0.64722  1.0000
  H   H4        1.0  0.93841  0.25005  0.6979800000000002  1.0000
  H   H5        1.0  0.9861399999999998  0.40334000000000003  0.66195  1.0000
  H   H6        1.0  0.9349099999999999  0.36359999999999987  0.67941  1.0000
  H   H7        1.0  0.91347  0.34472  0.7646900000000001  1.0000
  H   H8        1.0  0.06889999999999996  0.3696400000000001  0.7970000000000003  1.0000
  H   H9        1.0  0.03515999999999998  0.40572000000000014  0.6005000000000001  1.0000
  H   H10       1.0  0.08027  0.4103900000000001  0.51956  1.0000
  H   H11       1.0  0.08490999999999994  0.32368  0.4673000000000001  1.0000
  H   H12       1.0  0.04384999999999998  0.23121000000000003  0.4962600000000001  1.0000
  C   C43       1.0  0.8641299999999997  0.9497599999999999  0.30765  1.0000
  C   C44       1.0  0.86356  0.96609  0.25278  1.0000
  C   C45       1.0  0.8304799999999998  0.9368300000000002  0.22944  1.0000
  C   C46       1.0  0.8301999999999998  0.94368  0.17831000000000005  1.0000
  C   C47       1.0  0.8623599999999998  0.98115  0.14799  1.0000
  C   C48       1.0  0.85669  0.9875600000000001  0.09308000000000002  1.0000
  C   C49       1.0  0.81388  0.01362  0.08923000000000003  1.0000
  C   C50       1.0  0.77652  0.9764200000000001  0.08283  1.0000
  C   C51       1.0  0.73506  0.99744  0.08522000000000003  1.0000
  Cl  Cl9       1.0  0.6915599999999997  0.9471400000000001  0.07413  1.0000
  C   C52       1.0  0.7302999999999997  0.057130000000000014  0.09372000000000001  1.0000
  C   C53       1.0  0.7682199999999998  0.09486000000000001  0.09743  1.0000
  C   C54       1.0  0.80964  0.07363000000000001  0.09549  1.0000
  Cl  Cl10      1.0  0.8552699999999998  0.12379  0.10066000000000003  1.0000
  C   C55       1.0  0.8970199999999998  0.01105  0.17017  1.0000
  C   C56       1.0  0.9315899999999998  0.04775000000000001  0.14157  1.0000
  C   C57       1.0  0.9647999999999998  0.07722  0.16416000000000006  1.0000
  C   C58       1.0  0.9650699999999998  0.06995  0.21526000000000003  1.0000
  C   C59       1.0  0.9323099999999998  0.03284  0.24421  1.0000
  C   C60       1.0  0.8974899999999998  0.003430000000000001  0.22295  1.0000
  H   H13       1.0  0.8398099999999997  0.9116000000000001  0.3200000000000001  1.0000
  H   H14       1.0  0.8969999999999998  0.9348600000000001  0.31139  1.0000
  H   H15       1.0  0.8048299999999999  0.9071200000000001  0.25085  1.0000
  H   H16       1.0  0.8041299999999998  0.91926  0.16220000000000007  1.0000
  H   H17       1.0  0.8837199999999997  0.01355  0.06873000000000001  1.0000
  H   H18       1.0  0.8561799999999998  0.94329  0.07708000000000001  1.0000
  H   H19       1.0  0.7794199999999998  0.93031  0.07705  1.0000
  H   H20       1.0  0.7655899999999998  0.14115  0.10239000000000001  1.0000
  H   H21       1.0  0.9341599999999998  0.05475  0.10165  1.0000
  H   H22       1.0  0.9907299999999999  0.10549000000000001  0.14173000000000002  1.0000
  H   H23       1.0  0.9912899999999999  0.09249000000000002  0.23242  1.0000
  H   H24       1.0  0.9348799999999998  0.02734  0.28337000000000007  1.0000
  C   C61       1.0  0.010329999999999728  0.8719000000000001  0.42997  1.0000
  C   C62       1.0  0.014059999999999954  0.8443700000000001  0.3782700000000001  1.0000
  C   C63       1.0  0.020850000000000028  0.78488  0.37588  1.0000
  C   C64       1.0  0.034809999999999786  0.75974  0.33034  1.0000
  C   C65       1.0  0.04269999999999996  0.79306  0.28543  1.0000
  C   C66       1.0  0.06858999999999993  0.7671200000000002  0.24014  1.0000
  C   C67       1.0  0.043630000000000044  0.7182200000000001  0.21552000000000004  1.0000
  C   C68       1.0  0.06668999999999997  0.67003  0.19969000000000003  1.0000
  C   C69       1.0  0.049179999999999995  0.6276400000000001  0.16957  1.0000
  Cl  Cl11      1.0  0.08157999999999999  0.5700400000000001  0.15107000000000007  1.0000
  C   C70       1.0  0.007479999999999925  0.63286  0.15448000000000003  1.0000
  C   C71       1.0  0.9835399999999997  0.6792800000000001  0.17208000000000004  1.0000
  C   C72       1.0  0.0010599999999998378  0.72191  0.20178000000000004  1.0000
  Cl  Cl12      1.0  0.9675299999999998  0.7783700000000001  0.21934  1.0000
  C   C73       1.0  0.031199999999999894  0.8515500000000001  0.28568  1.0000
  C   C74       1.0  0.034269999999999995  0.88544  0.24064000000000005  1.0000
  C   C75       1.0  0.023989999999999997  0.94308  0.24147000000000002  1.0000
  C   C76       1.0  0.010220000000000017  0.9680400000000001  0.28681  1.0000
  C   C77       1.0  0.004979999999999984  0.9351900000000001  0.33134000000000013  1.0000
  C   C78       1.0  0.016019999999999913  0.87704  0.3323000000000001  1.0000
  H   H25       1.0  0.010999999999999906  0.8380900000000002  0.45978  1.0000
  H   H26       1.0  0.039099999999999906  0.9039100000000001  0.43149  1.0000
  H   H27       1.0  0.01829999999999998  0.75832  0.40995000000000004  1.0000
  H   H28       1.0  0.04251999999999966  0.7147  0.3305300000000001  1.0000
  H   H29       1.0  0.08345000000000023  0.80022  0.21083  1.0000
  H   H30       1.0  0.09811  0.7506900000000002  0.25332  1.0000
  H   H31       1.0  0.09953999999999998  0.66635  0.20912  1.0000
  H   H32       1.0  0.9512999999999998  0.68375  0.16119000000000003  1.0000
  H   H33       1.0  0.04340999999999997  0.86798  0.20408000000000007  1.0000
  H   H34       1.0  0.027139999999999997  0.9687100000000001  0.20685000000000003  1.0000
  H   H35       1.0  0.005269999999999992  0.013859999999999985  0.28805  1.0000
  H   H36       1.0  0.9931999999999997  0.9572800000000002  0.36449  1.0000
  C   C79       1.0  0.11710999999999996  0.00461  0.31537  1.0000
  C   C80       1.0  0.15868999999999994  0.9723  0.30823000000000006  1.0000
  C   C81       1.0  0.19522999999999993  0.9963300000000002  0.2747200000000001  1.0000
  C   C82       1.0  0.23498  0.97073  0.26922  1.0000
  C   C83       1.0  0.24091999999999997  0.9227900000000001  0.30012  1.0000
  C   C84       1.0  0.2861499999999999  0.9002  0.3002500000000001  1.0000
  C   C85       1.0  0.32363000000000003  0.92831  0.26238  1.0000
  C   C86       1.0  0.34523999999999994  0.893  0.22656000000000007  1.0000
  C   C87       1.0  0.3804599999999999  0.91669  0.19144  1.0000
  Cl  Cl13      1.0  0.4144699999999999  0.8686700000000002  0.15824  1.0000
  C   C88       1.0  0.3918299999999999  0.97725  0.18859  1.0000
  C   C89       1.0  0.37252999999999986  0.012219999999999996  0.22613000000000005  1.0000
  C   C90       1.0  0.33986  0.9876500000000001  0.26423  1.0000
  Cl  Cl14      1.0  0.3203399999999999  0.0322  0.3135800000000001  1.0000
  C   C91       1.0  0.20358999999999997  0.8957800000000002  0.3323800000000001  1.0000
  C   C92       1.0  0.20660999999999993  0.8458300000000002  0.36280000000000007  1.0000
  C   C93       1.0  0.16933  0.81838  0.3927  1.0000
  C   C94       1.0  0.12841999999999998  0.8396000000000001  0.3928100000000001  1.0000
  C   C95       1.0  0.12469999999999998  0.8887900000000002  0.36348000000000014  1.0000
  C   C96       1.0  0.16192  0.9189200000000002  0.33434  1.0000
  H   H37       1.0  0.09145999999999997  0.9773100000000001  0.29968000000000006  1.0000
  H   H38       1.0  0.12212999999999995  0.04723000000000001  0.29429000000000005  1.0000
  H   H39       1.0  0.19312  0.03552  0.25259  1.0000
  H   H40       1.0  0.2613599999999999  0.9905200000000001  0.24155000000000004  1.0000
  H   H41       1.0  0.2958399999999999  0.9052700000000001  0.33821000000000007  1.0000
  H   H42       1.0  0.2822999999999999  0.8526100000000002  0.29335  1.0000
  H   H43       1.0  0.33621999999999985  0.84629  0.22740000000000005  1.0000
  H   H44       1.0  0.3835199999999999  0.058380000000000015  0.22627  1.0000
  H   H45       1.0  0.23749999999999996  0.8271300000000001  0.36401000000000006  1.0000
  H   H46       1.0  0.17215999999999995  0.7802200000000002  0.4156800000000001  1.0000
  H   H47       1.0  0.09955000000000001  0.8180600000000001  0.41601  1.0000
  H   H48       1.0  0.09260999999999998  0.90363  0.3640900000000001  1.0000
  C   C97       1.0  0.0018899999999999425  0.20995  0.38012  1.0000
  C   C98       1.0  0.9694699999999998  0.22655  0.34611000000000003  1.0000
  C   C99       1.0  0.9747599999999997  0.20601  0.29727000000000003  1.0000
  C   C100      1.0  0.94909  0.22375  0.26246  1.0000
  C   C101      1.0  0.9176199999999998  0.26382  0.27456  1.0000
  C   C102      1.0  0.8931399999999998  0.28214000000000006  0.23247000000000007  1.0000
  C   C103      1.0  0.92379  0.32177000000000006  0.19453000000000006  1.0000
  C   C104      1.0  0.9375699999999998  0.37831  0.20841  1.0000
  C   C105      1.0  0.9692699999999997  0.4145500000000001  0.17659000000000002  1.0000
  Cl  Cl15      1.0  0.9888599999999999  0.4814  0.1995  1.0000
  C   C106      1.0  0.9864899999999998  0.39545000000000013  0.12899  1.0000
  C   C107      1.0  0.9723599999999998  0.33923000000000003  0.11501  1.0000
  C   C108      1.0  0.9413399999999997  0.30255000000000004  0.14698  1.0000
  Cl  Cl16      1.0  0.9287899999999998  0.23133  0.12722  1.0000
  C   C109      1.0  0.9109299999999998  0.28493  0.32433  1.0000
  C   C110      1.0  0.8803599999999998  0.32615  0.33914  1.0000
  C   C111      1.0  0.8736999999999998  0.34484  0.3884100000000001  1.0000
  C   C112      1.0  0.8971199999999998  0.32324  0.4240000000000001  1.0000
  C   C113      1.0  0.9281999999999998  0.28369000000000005  0.41044  1.0000
  C   C114      1.0  0.9363299999999998  0.26472  0.36062  1.0000
  H   H49       1.0  0.011349999999999742  0.24674  0.40372000000000013  1.0000
  H   H50       1.0  0.033409999999999926  0.20068000000000003  0.3569200000000001  1.0000
  H   H51       1.0  0.9996099999999999  0.17646  0.28569  1.0000
  H   H52       1.0  0.9545799999999998  0.20675  0.22509000000000007  1.0000
  H   H53       1.0  0.8801299999999997  0.24207  0.21505  1.0000
  H   H54       1.0  0.8631599999999998  0.30409  0.24527  1.0000
  H   H55       1.0  0.92507  0.3933  0.24517000000000005  1.0000
  H   H56       1.0  0.9875599999999998  0.32238  0.08001000000000003  1.0000
  H   H57       1.0  0.8614999999999998  0.3454000000000001  0.31348  1.0000
  H   H58       1.0  0.8500099999999998  0.37617  0.39916000000000007  1.0000
  H   H59       1.0  0.8914699999999998  0.3376700000000001  0.4622600000000001  1.0000
  H   H60       1.0  0.94531  0.26789  0.4396100000000001  1.0000
  C   C115      1.0  0.5528699999999998  0.8753200000000001  0.99462  1.0000
  C   C116      1.0  0.59114  0.8430700000000001  0.9688700000000002  1.0000
  C   C117      1.0  0.6186199999999997  0.81759  0.99877  1.0000
  C   C118      1.0  0.65686  0.79375  0.9777400000000003  1.0000
  C   C119      1.0  0.66859  0.79199  0.9255000000000001  1.0000
  C   C120      1.0  0.71219  0.7696  0.9026100000000002  1.0000
  C   C121      1.0  0.73952  0.74475  0.939  1.0000
  C   C122      1.0  0.7714  0.7817600000000002  0.95875  1.0000
  C   C123      1.0  0.8009499999999998  0.7589500000000002  0.9874200000000002  1.0000
  Cl  Cl17      1.0  0.8412399999999998  0.80782  0.008860000000000092  1.0000
  C   C124      1.0  0.7992199999999998  0.6980200000000002  0.99599  1.0000
  C   C125      1.0  0.7661499999999998  0.66153  0.97797  1.0000
  C   C126      1.0  0.7362499999999997  0.6842699999999999  0.9502200000000002  1.0000
  Cl  Cl18      1.0  0.6954699999999998  0.63516  0.9297900000000001  1.0000
  C   C127      1.0  0.6385299999999997  0.8107300000000001  0.8943100000000003  1.0000
  C   C128      1.0  0.6464599999999998  0.8047  0.84168  1.0000
  C   C129      1.0  0.6154999999999998  0.8187500000000001  0.81157  1.0000
  C   C130      1.0  0.5759300000000003  0.8386600000000002  0.83297  1.0000
  C   C131      1.0  0.5673699999999998  0.84609  0.88455  1.0000
  C   C132      1.0  0.5988499999999998  0.8344800000000001  0.91613  1.0000
  H   H61       1.0  0.5281999999999998  0.84254  0.01621  1.0000
  H   H62       1.0  0.53692  0.89731  0.9668900000000001  1.0000
  H   H63       1.0  0.61082  0.8161800000000001  0.0392  1.0000
  H   H64       1.0  0.6773999999999998  0.7771600000000002  0.003110000000000001  1.0000
  H   H65       1.0  0.7054999999999998  0.7353500000000002  0.8755100000000002  1.0000
  H   H66       1.0  0.7326299999999997  0.8059099999999999  0.8801800000000002  1.0000
  H   H67       1.0  0.7739799999999998  0.82841  0.9507600000000002  1.0000
  H   H68       1.0  0.76351  0.61479  0.9854500000000002  1.0000
  H   H69       1.0  0.6761899999999997  0.78834  0.8229100000000001  1.0000
  H   H70       1.0  0.62202  0.8133600000000001  0.77142  1.0000
  H   H71       1.0  0.5515699999999999  0.8482  0.8094300000000002  1.0000
  H   H72       1.0  0.53509  0.8589800000000001  0.8986600000000001  1.0000
  C   C133      1.0  0.8638599999999997  0.29364  0.03876000000000001  1.0000
  C   C134      1.0  0.8220899999999999  0.30457  0.01668  1.0000
  C   C135      1.0  0.8231999999999998  0.29892  0.9649200000000001  1.0000
  C   C136      1.0  0.78835  0.31369  0.9408799999999999  1.0000
  C   C137      1.0  0.7500099999999997  0.33301  0.9678400000000001  1.0000
  C   C138      1.0  0.7140499999999997  0.35054000000000013  0.9384000000000001  1.0000
  C   C139      1.0  0.67361  0.30624  0.9447000000000001  1.0000
  C   C140      1.0  0.6793199999999996  0.24713000000000002  0.93624  1.0000
  C   C141      1.0  0.6435899999999998  0.20415000000000003  0.94546  1.0000
  Cl  Cl19      1.0  0.6546299999999998  0.13055  0.94089  1.0000
  C   C142      1.0  0.6007799999999998  0.21977000000000005  0.96242  1.0000
  C   C143      1.0  0.5944099999999998  0.27908  0.9675100000000001  1.0000
  C   C144      1.0  0.6301499999999997  0.3223  0.9581600000000001  1.0000
  Cl  Cl20      1.0  0.61874  0.39556  0.96563  1.0000
  C   C145      1.0  0.7469399999999998  0.33697000000000005  0.02081  1.0000
  C   C146      1.0  0.7087799999999997  0.3551500000000001  0.04994  1.0000
  C   C147      1.0  0.70624  0.3597800000000001  0.10174000000000002  1.0000
  C   C148      1.0  0.74159  0.34701  0.12562  1.0000
  C   C149      1.0  0.77971  0.32883  0.09799000000000001  1.0000
  C   C150      1.0  0.7832799999999996  0.32318  0.0454  1.0000
  H   H73       1.0  0.8850099999999997  0.26607  0.013850000000000003  1.0000
  H   H74       1.0  0.8553299999999998  0.26899  0.07511  1.0000
  H   H75       1.0  0.8519099999999997  0.28385  0.9425500000000001  1.0000
  H   H76       1.0  0.7916  0.31018  0.90051  1.0000
  H   H77       1.0  0.7058199999999998  0.395  0.94923  1.0000
  H   H78       1.0  0.72697  0.35455  0.89764  1.0000
  H   H79       1.0  0.71212  0.23384  0.9248800000000001  1.0000
  H   H80       1.0  0.56186  0.29168999999999995  0.9815500000000001  1.0000
  H   H81       1.0  0.6804899999999998  0.36599  0.03335  1.0000
  H   H82       1.0  0.67667  0.3735900000000001  0.12348000000000003  1.0000
  H   H83       1.0  0.7394399999999998  0.35128  0.16586  1.0000
  H   H84       1.0  0.8061499999999998  0.31967  0.11852000000000003  1.0000
  C   C151      1.0  0.27748999999999996  0.9570400000000002  0.8915800000000002  1.0000
  C   C152      1.0  0.27773  0.020219999999999905  0.8759700000000001  1.0000
  C   C153      1.0  0.28652999999999995  0.0342199999999997  0.8246900000000003  1.0000
  C   C154      1.0  0.27216  0.08443  0.8058400000000001  1.0000
  C   C155      1.0  0.2462199999999999  0.12021  0.83734  1.0000
  C   C156      1.0  0.21949  0.1624  0.81292  1.0000
  C   C157      1.0  0.19818999999999992  0.13326000000000002  0.7712  1.0000
  C   C158      1.0  0.21480999999999997  0.14971  0.72114  1.0000
  C   C159      1.0  0.2020599999999999  0.11680000000000001  0.6815700000000002  1.0000
  Cl  Cl21      1.0  0.23000000000000004  0.13566000000000003  0.62088  1.0000
  C   C160      1.0  0.17093999999999998  0.06732  0.6917600000000003  1.0000
  C   C161      1.0  0.15266999999999997  0.05269999999999997  0.74178  1.0000
  C   C162      1.0  0.16582999999999998  0.08525  0.78128  1.0000
  Cl  Cl22      1.0  0.14262999999999995  0.06272999999999997  0.84304  1.0000
  C   C163      1.0  0.24349999999999994  0.11196000000000002  0.8901700000000002  1.0000
  C   C164      1.0  0.2245999999999999  0.15182  0.9242800000000002  1.0000
  C   C165      1.0  0.22279  0.14284  0.9758800000000001  1.0000
  C   C166      1.0  0.24097999999999997  0.0953  0.9945600000000002  1.0000
  C   C167      1.0  0.25955  0.055029999999999996  0.9618100000000002  1.0000
  C   C168      1.0  0.26044999999999996  0.06199  0.9095200000000002  1.0000
  H   H85       1.0  0.26181  0.92924  0.8646  1.0000
  H   H86       1.0  0.2558899999999999  0.9466999999999999  0.9278100000000002  1.0000
  H   H87       1.0  0.3014599999999999  0.003770000000000048  0.7986500000000002  1.0000
  H   H88       1.0  0.27734999999999993  0.09179000000000001  0.7656200000000002  1.0000
  H   H89       1.0  0.19242999999999996  0.17801  0.8395500000000002  1.0000
  H   H90       1.0  0.24205999999999994  0.20135  0.7982  1.0000
  H   H91       1.0  0.24009999999999992  0.1860400000000001  0.71296  1.0000
  H   H92       1.0  0.12847999999999996  0.015120000000000019  0.7503500000000002  1.0000
  H   H93       1.0  0.21225999999999998  0.1911  0.91188  1.0000
  H   H94       1.0  0.2079999999999999  0.17366000000000004  0.0014799999999999258  1.0000
  H   H95       1.0  0.24090999999999996  0.08975  0.03456  1.0000
  H   H96       1.0  0.2742399999999999  0.019460000000000005  0.9777  1.0000
  C   C169      1.0  0.99861  0.54982  0.87677  1.0000
  C   C170      1.0  0.9985099999999996  0.61072  0.8526700000000002  1.0000
  C   C171      1.0  0.00022000000000010553  0.61535  0.80035  1.0000
  C   C172      1.0  0.9994999999999996  0.66918  0.7758000000000002  1.0000
  C   C173      1.0  0.99776  0.72102  0.80251  1.0000
  C   C174      1.0  0.9967099999999999  0.78004  0.77626  1.0000
  C   C175      1.0  0.9992599999999999  0.7828  0.71959  1.0000
  C   C176      1.0  0.040049999999999975  0.7769200000000002  0.6898800000000002  1.0000
  C   C177      1.0  0.04870999999999997  0.79844  0.64014  1.0000
  Cl  Cl23      1.0  0.10119999999999998  0.78995  0.60607  1.0000
  C   C178      1.0  0.016499999999999987  0.82796  0.61977  1.0000
  C   C179      1.0  0.9737499999999998  0.82548  0.64693  1.0000
  C   C180      1.0  0.9648499999999998  0.80334  0.6965000000000002  1.0000
  Cl  Cl24      1.0  0.9113099999999998  0.8072900000000002  0.7296600000000001  1.0000
  C   C181      1.0  0.9962299999999998  0.71786  0.85554  1.0000
  C   C182      1.0  0.9942700000000001  0.76882  0.8844000000000002  1.0000
  C   C183      1.0  0.9917899999999997  0.7656000000000002  0.9363600000000002  1.0000
  C   C184      1.0  0.99084  0.7119600000000001  0.9609  1.0000
  C   C185      1.0  0.9926299999999998  0.6612800000000001  0.9335800000000002  1.0000
  C   C186      1.0  0.99607  0.66268  0.88075  1.0000
  H   H97       1.0  0.0003999999999999556  0.51591  0.8478500000000001  1.0000
  H   H98       1.0  0.0284099999999998  0.54869  0.8948600000000002  1.0000
  H   H99       1.0  0.001810000000000083  0.57667  0.7780200000000003  1.0000
  H   H100      1.0  0.0002399999999997953  0.66978  0.73556  1.0000
  H   H101      1.0  0.9666499999999998  0.79932  0.7939300000000001  1.0000
  H   H102      1.0  0.02526999999999997  0.8093400000000001  0.7851100000000002  1.0000
  H   H103      1.0  0.06637999999999997  0.75947  0.7065900000000003  1.0000
  H   H104      1.0  0.9481199999999999  0.8450700000000001  0.6310200000000002  1.0000
  H   H105      1.0  0.9944399999999999  0.81187  0.86762  1.0000
  H   H106      1.0  0.9901699999999999  0.80494  0.9577300000000002  1.0000
  H   H107      1.0  0.98842  0.70943  0.00140000000000029  1.0000
  H   H108      1.0  0.9905799999999996  0.62133  0.95486  1.0000
  C   C187      1.0  0.9077599999999998  0.01599999999999999  0.6789800000000003  1.0000
  C   C188      1.0  0.8622899999999998  0.98703  0.70043  1.0000
  C   C189      1.0  0.83826  0.015930000000000007  0.73909  1.0000
  C   C190      1.0  0.8009299999999999  0.98809  0.7682100000000002  1.0000
  C   C191      1.0  0.7845799999999998  0.93122  0.7584400000000002  1.0000
  C   C192      1.0  0.75089  0.8994000000000001  0.7991100000000001  1.0000
  C   C193      1.0  0.7120999999999997  0.9334  0.81784  1.0000
  C   C194      1.0  0.70515  0.94724  0.8686300000000002  1.0000
  C   C195      1.0  0.6664500000000001  0.9702900000000002  0.88989  1.0000
  Cl  Cl25      1.0  0.6608399999999998  0.9811700000000001  0.9549600000000003  1.0000
  C   C196      1.0  0.6331799999999997  0.9799000000000001  0.86003  1.0000
  C   C197      1.0  0.6415199999999996  0.96948  0.8084100000000002  1.0000
  C   C198      1.0  0.6804299999999998  0.9462300000000001  0.78729  1.0000
  Cl  Cl26      1.0  0.6868099999999998  0.9298700000000001  0.7232500000000002  1.0000
  C   C199      1.0  0.8054099999999997  0.90297  0.71595  1.0000
  C   C200      1.0  0.7881599999999997  0.84782  0.7010200000000001  1.0000
  C   C201      1.0  0.8108099999999998  0.81886  0.6618  1.0000
  C   C202      1.0  0.8509699999999998  0.8437700000000001  0.63666  1.0000
  C   C203      1.0  0.8684099999999997  0.8984100000000002  0.6497400000000002  1.0000
  C   C204      1.0  0.84569  0.9299600000000001  0.6882200000000003  1.0000
  H   H109      1.0  0.9326799999999997  0.9903100000000001  0.69291  1.0000
  H   H110      1.0  0.9133299999999998  0.06072000000000011  0.69311  1.0000
  H   H111      1.0  0.8502299999999998  0.0592  0.74945  1.0000
  H   H112      1.0  0.7858999999999998  0.010330000000000169  0.8004500000000002  1.0000
  H   H113      1.0  0.7371599999999996  0.85625  0.7886300000000003  1.0000
  H   H114      1.0  0.76929  0.8899900000000001  0.83053  1.0000
  H   H115      1.0  0.72911  0.93748  0.89273  1.0000
  H   H116      1.0  0.6167799999999998  0.9769700000000001  0.7847000000000001  1.0000
  H   H117      1.0  0.75667  0.82657  0.71786  1.0000
  H   H118      1.0  0.79722  0.7765800000000002  0.6510500000000001  1.0000
  H   H119      1.0  0.8688399999999997  0.82055  0.60685  1.0000
  H   H120      1.0  0.8999699999999997  0.9146600000000003  0.6293300000000001  1.0000
  C   C205      1.0  0.39797  0.8049200000000001  0.0515699999999999  1.0000
  C   C206      1.0  0.36689999999999995  0.7688900000000001  0.022310000000000052  1.0000
  C   C207      1.0  0.3281599999999999  0.79275  0.013190000000000037  1.0000
  C   C208      1.0  0.29310999999999987  0.75808  0.99783  1.0000
  C   C209      1.0  0.29527  0.6978600000000001  0.9919900000000003  1.0000
  C   C210      1.0  0.25550999999999996  0.65839  0.9809400000000003  1.0000
  C   C211      1.0  0.2137  0.6852100000000001  0.9718800000000002  1.0000
  C   C212      1.0  0.17960999999999994  0.68792  0.01255  1.0000
  C   C213      1.0  0.13512999999999994  0.6780100000000001  0.005360000000000001  1.0000
  Cl  Cl27      1.0  0.09337999999999996  0.67788  0.05714000000000002  1.0000
  C   C214      1.0  0.12512  0.66107  0.95814  1.0000
  C   C215      1.0  0.15794999999999995  0.6744  0.9164300000000002  1.0000
  C   C216      1.0  0.2023  0.68638  0.92303  1.0000
  Cl  Cl28      1.0  0.2431199999999999  0.6921000000000002  0.8695700000000002  1.0000
  C   C217      1.0  0.33525999999999995  0.67331  0.9982900000000002  1.0000
  C   C218      1.0  0.33970999999999996  0.61295  0.99228  1.0000
  C   C219      1.0  0.3792899999999999  0.58962  0.9971700000000002  1.0000
  C   C220      1.0  0.41543999999999986  0.6256700000000001  0.0076499999999999355  1.0000
  C   C221      1.0  0.41189999999999993  0.6850199999999999  0.014700000000000159  1.0000
  C   C222      1.0  0.37172000000000005  0.7095100000000001  0.011740000000000085  1.0000
  H   H121      1.0  0.41762  0.77762  0.07237000000000005  1.0000
  H   H122      1.0  0.37676  0.82685  0.08091000000000005  1.0000
  H   H123      1.0  0.3242599999999999  0.83835  0.020280000000000076  1.0000
  H   H124      1.0  0.2635099999999999  0.7783000000000001  0.9927700000000003  1.0000
  H   H125      1.0  0.26638999999999996  0.63248  0.9478200000000002  1.0000
  H   H126      1.0  0.24636999999999995  0.62591  0.012730000000000002  1.0000
  H   H127      1.0  0.18751  0.69084  0.05036  1.0000
  H   H128      1.0  0.15048999999999993  0.66504  0.87912  1.0000
  H   H129      1.0  0.3128799999999998  0.58279  0.9839500000000002  1.0000
  H   H130      1.0  0.3820399999999998  0.54337  0.9923400000000002  1.0000
  H   H131      1.0  0.4463599999999998  0.6075200000000001  0.010470000000000203  1.0000
  H   H132      1.0  0.4412699999999997  0.7115  0.02132000000000001  1.0000
  C   C223      1.0  0.22750999999999993  0.32670000000000005  0.016000000000000236  1.0000
  C   C224      1.0  0.24089999999999995  0.28105  0.050810000000000015  1.0000
  C   C225      1.0  0.27597000000000005  0.24933  0.031390000000000036  1.0000
  C   C226      1.0  0.29718  0.21623000000000003  0.062370000000000016  1.0000
  C   C227      1.0  0.2848799999999999  0.21382  0.11489  1.0000
  C   C228      1.0  0.3115799999999999  0.18182000000000006  0.14900000000000002  1.0000
  C   C229      1.0  0.34913999999999984  0.15164  0.12076000000000003  1.0000
  C   C230      1.0  0.3396  0.09454  0.1055  1.0000
  C   C231      1.0  0.3673899999999999  0.07118  0.06692  1.0000
  Cl  Cl29      1.0  0.3488399999999999  0.0036  0.04335  1.0000
  C   C232      1.0  0.4064899999999999  0.10414000000000001  0.044130000000000016  1.0000
  C   C233      1.0  0.41854  0.15873000000000004  0.06297  1.0000
  C   C234      1.0  0.39014999999999994  0.18269  0.10117000000000002  1.0000
  Cl  Cl30      1.0  0.4042699999999999  0.2546  0.11861000000000001  1.0000
  C   C235      1.0  0.24768  0.24298000000000003  0.13540000000000002  1.0000
  C   C236      1.0  0.23227999999999993  0.24013000000000007  0.18752000000000005  1.0000
  C   C237      1.0  0.19606  0.26911000000000007  0.20750000000000002  1.0000
  C   C238      1.0  0.17480999999999997  0.30211  0.17633000000000004  1.0000
  C   C239      1.0  0.18947999999999998  0.30627  0.12484000000000003  1.0000
  C   C240      1.0  0.22558999999999996  0.27671000000000007  0.10327000000000003  1.0000
  H   H133      1.0  0.2514299999999999  0.3318  0.98064  1.0000
  H   H134      1.0  0.23110999999999993  0.36982000000000004  0.03380000000000006  1.0000
  H   H135      1.0  0.2884599999999999  0.25189  0.9916  1.0000
  H   H136      1.0  0.3244  0.19401000000000004  0.04422999999999999  1.0000
  H   H137      1.0  0.32486000000000004  0.21319000000000005  0.17522  1.0000
  H   H138      1.0  0.2887599999999999  0.14838000000000004  0.17246  1.0000
  H   H139      1.0  0.30827  0.07024  0.12011000000000001  1.0000
  H   H140      1.0  0.4477199999999999  0.18515  0.04465000000000008  1.0000
  H   H141      1.0  0.24777  0.21546000000000007  0.21349000000000007  1.0000
  H   H142      1.0  0.1845399999999999  0.26611  0.24747  1.0000
  H   H143      1.0  0.14675999999999995  0.32464  0.19213  1.0000
  H   H144      1.0  0.17193999999999998  0.33239  0.10236  1.0000
