data_image0
_chemical_formula_structural       COC3OC3OC14H19COC3OC3OC14H19COC3OC3OC14H19COC3OC3OC14H19COC3OC3OC14H19COC3OC3OC14H19COC3OC3OC14H19COC3OC3OC14H19COC3OC3OC14H19COC3OC3OC14H19COC3OC3OC14H19COC3OC3OC14H19COC3OC3OC14H19COC3OC3OC14H19COC3OC3OC14H19COC3OC3OC14H19O2CoC2CoO4CoO7C4O2CoC2CoO4CoO7C4O2CoC2CoO4CoO7C4O2CoC2CoO4CoO7C4O2CoC2CoO4CoO7C4O2CoC2CoO4CoO7C4O2CoC2CoO4CoO7C4O2CoC2CoO4CoO7C4
_chemical_formula_sum              "C384 O152 H304 Co24"
_cell_length_a       38.315
_cell_length_b       37.5609
_cell_length_c       18.175
_cell_angle_alpha    93.89179999999999
_cell_angle_beta     92.1442
_cell_angle_gamma    88.99849999999999

_space_group_name_H-M_alt    "P 1"
_space_group_IT_number       1

loop_
  _space_group_symop_operation_xyz
  'x, y, z'

loop_
  _atom_site_type_symbol
  _atom_site_label
  _atom_site_symmetry_multiplicity
  _atom_site_fract_x
  _atom_site_fract_y
  _atom_site_fract_z
  _atom_site_occupancy
  C   C1        1.0  0.18163  0.16818000000000002  0.33081  1.0000
  O   O1        1.0  0.14439  0.17139  0.31994  1.0000
  C   C2        1.0  0.12543  0.19066  0.37511  1.0000
  C   C3        1.0  0.13647  0.19338000000000008  0.45001  1.0000
  C   C4        1.0  0.12031000000000001  0.21814  0.50035  1.0000
  O   O2        1.0  0.13307  0.22548000000000004  0.57361  1.0000
  C   C5        1.0  0.16856  0.21555  0.59048  1.0000
  C   C6        1.0  0.09127  0.23778000000000005  0.4760400000000001  1.0000
  C   C7        1.0  0.07915  0.23464  0.40221  1.0000
  O   O3        1.0  0.05181000000000001  0.25781  0.38097  1.0000
  C   C8        1.0  0.03782  0.25371  0.30676  1.0000
  C   C9        1.0  0.010349999999999996  0.28288  0.29335999999999995  1.0000
  C   C10       1.0  0.9797500000000001  0.28581  0.3449  1.0000
  C   C11       1.0  0.9741500000000001  0.25942  0.39443  1.0000
  C   C12       1.0  0.94679  0.26242000000000004  0.44263  1.0000
  C   C13       1.0  0.92362  0.2916  0.44316000000000005  1.0000
  C   C14       1.0  0.8921899999999999  0.2911  0.49168  1.0000
  C   C15       1.0  0.9283  0.31867  0.39357  1.0000
  C   C16       1.0  0.90545  0.34858000000000006  0.39171  1.0000
  C   C17       1.0  0.9094100000000002  0.37425  0.34091  1.0000
  C   C18       1.0  0.93607  0.3707900000000001  0.29107  1.0000
  C   C19       1.0  0.9591899999999999  0.34179  0.29201  1.0000
  C   C20       1.0  0.9561  0.31539  0.34332  1.0000
  C   C21       1.0  0.09632  0.21042  0.3523  1.0000
  H   H1        1.0  0.19236  0.15416000000000005  0.28073  1.0000
  H   H2        1.0  0.1883  0.15134  0.37741  1.0000
  H   H3        1.0  0.15806  0.17706  0.46846000000000004  1.0000
  H   H4        1.0  0.18551  0.22059  0.54393  1.0000
  H   H5        1.0  0.17033  0.18681  0.60141  1.0000
  H   H6        1.0  0.07865  0.25675  0.5145299999999999  1.0000
  H   H7        1.0  0.05886  0.25713  0.26742  1.0000
  H   H8        1.0  0.026190000000000005  0.22687000000000002  0.29529  1.0000
  H   H9        1.0  0.99981  0.27862  0.23566000000000004  1.0000
  H   H10       1.0  0.02448  0.30858  0.29836  1.0000
  H   H11       1.0  0.99044  0.23571  0.3958  1.0000
  H   H12       1.0  0.9432000000000001  0.24111000000000002  0.4787699999999999  1.0000
  H   H13       1.0  0.89543  0.27031  0.53224  1.0000
  H   H14       1.0  0.88985  0.31702  0.52451  1.0000
  H   H15       1.0  0.8841  0.35241000000000006  0.42875  1.0000
  H   H16       1.0  0.8915300000000002  0.3968400000000001  0.33984  1.0000
  H   H17       1.0  0.9388100000000001  0.39065  0.25125  1.0000
  H   H18       1.0  0.97908  0.34021  0.2513  1.0000
  H   H19       1.0  0.08861  0.20785  0.29443  1.0000
  C   C22       1.0  0.80858  0.17196  0.37495  1.0000
  O   O4        1.0  0.77439  0.1589  0.35515  1.0000
  C   C23       1.0  0.75758  0.13929  0.40637  1.0000
  C   C24       1.0  0.75574  0.15100000000000005  0.48139  1.0000
  C   C25       1.0  0.73506  0.13267000000000007  0.52905  1.0000
  O   O5        1.0  0.72935  0.14418000000000006  0.60331  1.0000
  C   C26       1.0  0.7467  0.17550000000000002  0.63382  1.0000
  C   C27       1.0  0.71763  0.10199  0.5009  1.0000
  C   C28       1.0  0.71948  0.08968  0.42677  1.0000
  O   O6        1.0  0.70073  0.05868000000000001  0.40361  1.0000
  C   C29       1.0  0.70265  0.04501  0.32842  1.0000
  C   C30       1.0  0.68082  0.01117  0.31585  1.0000
  C   C31       1.0  0.69206  0.97944  0.3601  1.0000
  C   C32       1.0  0.72334  0.9799400000000003  0.40326  1.0000
  C   C33       1.0  0.73324  0.9515  0.4448500000000001  1.0000
  C   C34       1.0  0.71224  0.9215000000000001  0.44652  1.0000
  C   C35       1.0  0.7249  0.8918500000000001  0.49438000000000004  1.0000
  C   C36       1.0  0.68039  0.92003  0.40374  1.0000
  C   C37       1.0  0.65783  0.89069  0.40437  1.0000
  C   C38       1.0  0.62767  0.8885600000000001  0.35912  1.0000
  C   C39       1.0  0.61904  0.91571  0.31317  1.0000
  C   C40       1.0  0.64011  0.94557  0.31317  1.0000
  C   C41       1.0  0.67084  0.9486200000000001  0.35864  1.0000
  C   C42       1.0  0.73915  0.10906  0.37947  1.0000
  H   H20       1.0  0.8267  0.1603  0.33313  1.0000
  H   H21       1.0  0.81884  0.16378  0.42948  1.0000
  H   H22       1.0  0.76936  0.17490000000000006  0.50095  1.0000
  H   H23       1.0  0.74089  0.19821000000000005  0.59888  1.0000
  H   H24       1.0  0.7753100000000002  0.17028  0.63761  1.0000
  H   H25       1.0  0.70194  0.08769000000000002  0.53718  1.0000
  H   H26       1.0  0.69159  0.06512000000000001  0.29145  1.0000
  H   H27       1.0  0.73013  0.03896  0.31368  1.0000
  H   H28       1.0  0.68101  0.0025099999999999996  0.25615  1.0000
  H   H29       1.0  0.65358  0.01897  0.32961  1.0000
  H   H30       1.0  0.74078  0.0022900000000000017  0.40561  1.0000
  H   H31       1.0  0.75772  0.95315  0.4765499999999999  1.0000
  H   H32       1.0  0.74967  0.89906  0.52515  1.0000
  H   H33       1.0  0.70517  0.8881900000000001  0.53647  1.0000
  H   H34       1.0  0.66309  0.8691000000000001  0.43968  1.0000
  H   H35       1.0  0.61092  0.86567  0.35956  1.0000
  H   H36       1.0  0.59575  0.9137600000000001  0.27762  1.0000
  H   H37       1.0  0.63199  0.96596  0.27672  1.0000
  H   H38       1.0  0.74044  0.10117  0.32137  1.0000
  C   C43       1.0  0.18831  0.7474  0.85706  1.0000
  O   O7        1.0  0.16001  0.7723100000000002  0.84679  1.0000
  C   C44       1.0  0.13579  0.77733  0.90301  1.0000
  C   C45       1.0  0.14531  0.77479  0.9777400000000002  1.0000
  C   C46       1.0  0.12005  0.7777400000000002  0.03167  1.0000
  O   O8        1.0  0.12869  0.77163  0.10544  1.0000
  C   C47       1.0  0.14541  0.73778  0.11499000000000001  1.0000
  C   C48       1.0  0.08582  0.7875600000000001  0.01174  1.0000
  C   C49       1.0  0.07612  0.79278  0.93815  1.0000
  O   O9        1.0  0.04128  0.80344  0.9229100000000001  1.0000
  C   C50       1.0  0.03272  0.81677  0.85244  1.0000
  C   C51       1.0  0.995  0.83119  0.85113  1.0000
  C   C52       1.0  0.96678  0.80477  0.86701  1.0000
  C   C53       1.0  0.97318  0.7677800000000002  0.85773  1.0000
  C   C54       1.0  0.9489900000000001  0.74348  0.87798  1.0000
  C   C55       1.0  0.91742  0.75486  0.90859  1.0000
  C   C56       1.0  0.8944500000000001  0.7266  0.93661  1.0000
  C   C57       1.0  0.90922  0.7919900000000002  0.91527  1.0000
  C   C58       1.0  0.87756  0.80507  0.94517  1.0000
  C   C59       1.0  0.86923  0.84138  0.94858  1.0000
  C   C60       1.0  0.89212  0.86546  0.92247  1.0000
  C   C61       1.0  0.9239500000000002  0.8535500000000001  0.8944899999999999  1.0000
  C   C62       1.0  0.9335600000000001  0.81695  0.89188  1.0000
  C   C63       1.0  0.10138  0.7870000000000003  0.88368  1.0000
  H   H39       1.0  0.18898  0.72851  0.8073  1.0000
  H   H40       1.0  0.18528  0.73052  0.9043900000000001  1.0000
  H   H41       1.0  0.17241  0.77111  0.99432  1.0000
  H   H42       1.0  0.16887  0.7336900000000002  0.08132  1.0000
  H   H43       1.0  0.12678  0.71597  0.0986  1.0000
  H   H44       1.0  0.06656  0.79117  0.05375  1.0000
  H   H45       1.0  0.05024  0.83923  0.84309  1.0000
  H   H46       1.0  0.03607  0.79579  0.8071  1.0000
  H   H47       1.0  0.98877  0.84214  0.79686  1.0000
  H   H48       1.0  0.9947500000000001  0.85369  0.89408  1.0000
  H   H49       1.0  0.99722  0.75703  0.83561  1.0000
  H   H50       1.0  0.95541  0.71527  0.87105  1.0000
  H   H51       1.0  0.9102199999999999  0.70217  0.94702  1.0000
  H   H52       1.0  0.88434  0.7357500000000002  0.99124  1.0000
  H   H53       1.0  0.8587299999999999  0.7876300000000002  0.96601  1.0000
  H   H54       1.0  0.8447699999999999  0.85085  0.9712399999999999  1.0000
  H   H55       1.0  0.8852300000000001  0.8935600000000001  0.92422  1.0000
  H   H56       1.0  0.9405599999999998  0.8733900000000001  0.8742  1.0000
  H   H57       1.0  0.09486  0.78991  0.82608  1.0000
  C   C64       1.0  0.3085  0.67213  0.87476  1.0000
  O   O10       1.0  0.27433  0.65905  0.85471  1.0000
  C   C65       1.0  0.25748  0.63945  0.90592  1.0000
  C   C66       1.0  0.25563  0.65123  0.9808999999999999  1.0000
  C   C67       1.0  0.23505000000000004  0.63285  0.028700000000000003  1.0000
  O   O11       1.0  0.22942  0.64435  0.10296  1.0000
  C   C68       1.0  0.24691000000000002  0.67552  0.13353  1.0000
  C   C69       1.0  0.21764  0.60215  0.00066  1.0000
  C   C70       1.0  0.21949000000000002  0.58979  0.92658  1.0000
  O   O12       1.0  0.20068999999999998  0.5588000000000002  0.9036400000000001  1.0000
  C   C71       1.0  0.20305000000000004  0.54462  0.82891  1.0000
  C   C72       1.0  0.18112  0.51081  0.81687  1.0000
  C   C73       1.0  0.19193  0.47944000000000003  0.86256  1.0000
  C   C74       1.0  0.22285999999999997  0.48025000000000007  0.90686  1.0000
  C   C75       1.0  0.23251999999999995  0.4520400000000001  0.94929  1.0000
  C   C76       1.0  0.21166  0.42192  0.95047  1.0000
  C   C77       1.0  0.2245  0.39213000000000003  0.99779  1.0000
  C   C78       1.0  0.18008  0.42018  0.90674  1.0000
  C   C79       1.0  0.15769  0.39067000000000013  0.90677  1.0000
  C   C80       1.0  0.12778999999999993  0.3883300000000001  0.86072  1.0000
  C   C81       1.0  0.11927000000000001  0.4154100000000001  0.81455  1.0000
  C   C82       1.0  0.14022  0.44537  0.8149  1.0000
  C   C83       1.0  0.17072  0.44862  0.8610899999999999  1.0000
  C   C84       1.0  0.23913  0.60913  0.87914  1.0000
  H   H58       1.0  0.3267  0.66045  0.83312  1.0000
  H   H59       1.0  0.31871  0.66396  0.9293299999999999  1.0000
  H   H60       1.0  0.26917  0.6752  0.00035  1.0000
  H   H61       1.0  0.24111  0.69834  0.09882  1.0000
  H   H62       1.0  0.27554  0.67021  0.13698  1.0000
  H   H63       1.0  0.20201  0.58783  0.03704  1.0000
  H   H64       1.0  0.19228999999999996  0.5644700000000001  0.79102  1.0000
  H   H65       1.0  0.23062000000000002  0.5383600000000001  0.81515  1.0000
  H   H66       1.0  0.18169  0.50168  0.75746  1.0000
  H   H67       1.0  0.15381  0.51884  0.82958  1.0000
  H   H68       1.0  0.24029  0.5026  0.9092900000000002  1.0000
  H   H69       1.0  0.2568  0.45386  0.98166  1.0000
  H   H70       1.0  0.24902  0.39947  0.029330000000000078  1.0000
  H   H71       1.0  0.20459999999999998  0.38779  0.03916000000000008  1.0000
  H   H72       1.0  0.1629  0.36911000000000005  0.94216  1.0000
  H   H73       1.0  0.11117  0.36531000000000013  0.86072  1.0000
  H   H74       1.0  0.09616  0.4133100000000001  0.77847  1.0000
  H   H75       1.0  0.13223000000000001  0.46566  0.77813  1.0000
  H   H76       1.0  0.24043000000000006  0.60115  0.82107  1.0000
  C   C85       1.0  0.68734  0.24805  0.35586  1.0000
  O   O13       1.0  0.65931  0.27337  0.34662  1.0000
  C   C86       1.0  0.63508  0.2779800000000001  0.40286  1.0000
  C   C87       1.0  0.64462  0.2751100000000001  0.4775  1.0000
  C   C88       1.0  0.61934  0.27781  0.53144  1.0000
  O   O14       1.0  0.62798  0.27161  0.60515  1.0000
  C   C89       1.0  0.64485  0.23784000000000002  0.61456  1.0000
  C   C90       1.0  0.5851  0.28764000000000006  0.51166  1.0000
  C   C91       1.0  0.5754  0.29312000000000005  0.4382  1.0000
  O   O15       1.0  0.54056  0.30379  0.42315  1.0000
  C   C92       1.0  0.53192  0.3170900000000001  0.35272  1.0000
  C   C93       1.0  0.49421000000000004  0.33146000000000003  0.35181  1.0000
  C   C94       1.0  0.4661600000000001  0.30506  0.36868  1.0000
  C   C95       1.0  0.4727  0.26807000000000003  0.36024  1.0000
  C   C96       1.0  0.44866000000000006  0.24381000000000003  0.38126  1.0000
  C   C97       1.0  0.41705999999999993  0.25523000000000007  0.41163  1.0000
  C   C98       1.0  0.3939  0.22697000000000003  0.43893  1.0000
  C   C99       1.0  0.40876  0.29236  0.41772  1.0000
  C   C100      1.0  0.37708  0.30546  0.44752000000000003  1.0000
  C   C101      1.0  0.36872999999999995  0.34176000000000006  0.45066999999999996  1.0000
  C   C102      1.0  0.39156  0.3658  0.42425  1.0000
  C   C103      1.0  0.42334  0.3538600000000001  0.39609  1.0000
  C   C104      1.0  0.43299000000000004  0.31727  0.39379  1.0000
  C   C105      1.0  0.60065  0.28762  0.38369  1.0000
  H   H77       1.0  0.68767  0.22943  0.30568  1.0000
  H   H78       1.0  0.68425  0.23095000000000002  0.40281  1.0000
  H   H79       1.0  0.67175  0.27138  0.49395  1.0000
  H   H80       1.0  0.66835  0.23393000000000005  0.58095  1.0000
  H   H81       1.0  0.62634  0.21594  0.59801  1.0000
  H   H82       1.0  0.56582  0.2910800000000001  0.55366  1.0000
  H   H83       1.0  0.5494  0.33954000000000006  0.34317  1.0000
  H   H84       1.0  0.53517  0.2960600000000001  0.30741  1.0000
  H   H85       1.0  0.48773  0.3422  0.29745  1.0000
  H   H86       1.0  0.4941  0.35408  0.39448  1.0000
  H   H87       1.0  0.49672  0.25728  0.33812  1.0000
  H   H88       1.0  0.45515  0.21561000000000002  0.37481  1.0000
  H   H89       1.0  0.40956  0.20250000000000004  0.44963  1.0000
  H   H90       1.0  0.38338  0.23605  0.49322  1.0000
  H   H91       1.0  0.35827  0.28805  0.46853  1.0000
  H   H92       1.0  0.34431  0.35125  0.47343  1.0000
  H   H93       1.0  0.38467000000000007  0.39390000000000003  0.42589  1.0000
  H   H94       1.0  0.43988999999999995  0.37366  0.37548  1.0000
  H   H95       1.0  0.59414  0.29075  0.32616  1.0000
  C   C106      1.0  0.65296  0.3741200000000001  0.8899799999999999  1.0000
  O   O16       1.0  0.67992  0.39337  0.85823  1.0000
  C   C107      1.0  0.71368  0.39471  0.89231  1.0000
  C   C108      1.0  0.72165  0.38411  0.9640800000000002  1.0000
  C   C109      1.0  0.75614  0.3861  0.9939499999999999  1.0000
  O   O17       1.0  0.76656  0.37446  0.06360999999999999  1.0000
  C   C110      1.0  0.74039  0.3636300000000001  0.11110999999999999  1.0000
  C   C111      1.0  0.78204  0.39992  0.9524900000000001  1.0000
  C   C112      1.0  0.7747  0.41146  0.88204  1.0000
  O   O18       1.0  0.8023700000000001  0.4272000000000001  0.84744  1.0000
  C   C113      1.0  0.79866  0.43605000000000005  0.77219  1.0000
  C   C114      1.0  0.82482  0.4651100000000001  0.75897  1.0000
  C   C115      1.0  0.81649  0.49930999999999987  0.8051  1.0000
  C   C116      1.0  0.83807  0.5083100000000003  0.86738  1.0000
  C   C117      1.0  0.8311800000000001  0.53854  0.9135400000000001  1.0000
  C   C118      1.0  0.80157  0.5601000000000002  0.9012399999999999  1.0000
  C   C119      1.0  0.79734  0.5945800000000001  0.94959  1.0000
  C   C120      1.0  0.77787  0.5500700000000002  0.84156  1.0000
  C   C121      1.0  0.74585  0.56852  0.83095  1.0000
  C   C122      1.0  0.72439  0.5607100000000003  0.76856  1.0000
  C   C123      1.0  0.73426  0.53433  0.71571  1.0000
  C   C124      1.0  0.76491  0.51454  0.72641  1.0000
  C   C125      1.0  0.78656  0.521  0.7905  1.0000
  C   C126      1.0  0.74031  0.40813  0.85196  1.0000
  H   H96       1.0  0.6282  0.37886  0.85834  1.0000
  H   H97       1.0  0.64856  0.3844300000000001  0.9477499999999999  1.0000
  H   H98       1.0  0.7013099999999999  0.3744700000000001  0.99637  1.0000
  H   H99       1.0  0.72478  0.34156  0.08356  1.0000
  H   H100      1.0  0.72318  0.38674  0.12742  1.0000
  H   H101      1.0  0.80844  0.40189000000000014  0.9757799999999999  1.0000
  H   H102      1.0  0.80393  0.41187  0.73539  1.0000
  H   H103      1.0  0.7723600000000002  0.44651  0.7583299999999998  1.0000
  H   H104      1.0  0.82485  0.47023000000000004  0.69952  1.0000
  H   H105      1.0  0.85152  0.45495  0.77319  1.0000
  H   H106      1.0  0.8606  0.49176  0.88051  1.0000
  H   H107      1.0  0.84925  0.54505  0.95954  1.0000
  H   H108      1.0  0.77342  0.59313  0.9818900000000002  1.0000
  H   H109      1.0  0.81974  0.5983400000000001  0.9898400000000002  1.0000
  H   H110      1.0  0.73681  0.58877  0.87107  1.0000
  H   H111      1.0  0.70008  0.5753500000000001  0.76109  1.0000
  H   H112      1.0  0.71784  0.5288500000000002  0.66659  1.0000
  H   H113      1.0  0.77128  0.49427  0.68379  1.0000
  H   H114      1.0  0.73313  0.41586  0.79745  1.0000
  C   C127      1.0  0.68024  0.6707200000000002  0.83248  1.0000
  O   O19       1.0  0.64357  0.67576  0.81642  1.0000
  C   C128      1.0  0.62346  0.69564  0.86881  1.0000
  C   C129      1.0  0.63253  0.69901  0.94495  1.0000
  C   C130      1.0  0.61434  0.7234  0.99279  1.0000
  O   O20       1.0  0.62418  0.73135  0.06778  1.0000
  C   C131      1.0  0.65651  0.7173000000000002  0.09651  1.0000
  C   C132      1.0  0.58558  0.74214  0.96427  1.0000
  C   C133      1.0  0.57552  0.7383700000000002  0.8893300000000001  1.0000
  O   O21       1.0  0.54797  0.7604300000000002  0.86483  1.0000
  C   C134      1.0  0.53435  0.7546100000000002  0.79064  1.0000
  C   C135      1.0  0.50542  0.78221  0.77595  1.0000
  C   C136      1.0  0.47627  0.7855700000000001  0.83115  1.0000
  C   C137      1.0  0.47162000000000004  0.7589700000000003  0.88068  1.0000
  C   C138      1.0  0.44614  0.7624200000000002  0.93318  1.0000
  C   C139      1.0  0.42378  0.7922200000000003  0.93791  1.0000
  C   C140      1.0  0.39326  0.7914500000000002  0.98883  1.0000
  C   C141      1.0  0.42731  0.8194300000000001  0.88808  1.0000
  C   C142      1.0  0.40499  0.84981  0.88997  1.0000
  C   C143      1.0  0.40746  0.8754300000000003  0.83851  1.0000
  C   C144      1.0  0.43206  0.8714000000000001  0.78421  1.0000
  C   C145      1.0  0.45465000000000005  0.84192  0.78137  1.0000
  C   C146      1.0  0.45314000000000004  0.81565  0.83338  1.0000
  C   C147      1.0  0.5946  0.71466  0.84203  1.0000
  H   H115      1.0  0.69179  0.65576  0.7843699999999999  1.0000
  H   H116      1.0  0.68451  0.6539600000000002  0.88009  1.0000
  H   H117      1.0  0.65381  0.68315  0.96615  1.0000
  H   H118      1.0  0.67745  0.71755  0.055929999999999994  1.0000
  H   H119      1.0  0.65273  0.68956  0.11208  1.0000
  H   H120      1.0  0.57122  0.76064  0.00069  1.0000
  H   H121      1.0  0.55523  0.7584500000000001  0.75118  1.0000
  H   H122      1.0  0.52398  0.72713  0.78065  1.0000
  H   H123      1.0  0.49366  0.7762100000000002  0.71973  1.0000
  H   H124      1.0  0.51875  0.80828  0.77657  1.0000
  H   H125      1.0  0.48719  0.7347100000000001  0.87864  1.0000
  H   H126      1.0  0.44314000000000003  0.74086  0.9690100000000001  1.0000
  H   H127      1.0  0.39732  0.77065  0.0291300000000001  1.0000
  H   H128      1.0  0.39113  0.8172800000000001  0.02204000000000006  1.0000
  H   H129      1.0  0.38513  0.85406  0.93041  1.0000
  H   H130      1.0  0.38997  0.8983800000000001  0.84036  1.0000
  H   H131      1.0  0.43351000000000006  0.8911400000000002  0.74372  1.0000
  H   H132      1.0  0.47268999999999994  0.8397900000000003  0.73699  1.0000
  H   H133      1.0  0.58838  0.71174  0.78347  1.0000
  C   C148      1.0  0.33356  0.2935300000000001  0.86601  1.0000
  O   O22       1.0  0.34063  0.25665000000000004  0.84548  1.0000
  C   C149      1.0  0.35983  0.23692000000000005  0.89675  1.0000
  C   C150      1.0  0.35173  0.23809000000000002  0.9719499999999999  1.0000
  C   C151      1.0  0.37078  0.21678  0.0211  1.0000
  O   O23       1.0  0.36323  0.21452000000000002  0.09613  1.0000
  C   C152      1.0  0.33621  0.2367  0.12785  1.0000
  C   C153      1.0  0.39831  0.19534  0.99404  1.0000
  C   C154      1.0  0.40641000000000005  0.19332  0.91942  1.0000
  O   O24       1.0  0.43529  0.17162  0.89843  1.0000
  C   C155      1.0  0.43965000000000004  0.16166  0.82184  1.0000
  C   C156      1.0  0.47272  0.13833  0.81329  1.0000
  C   C157      1.0  0.50547  0.16022  0.82884  1.0000
  C   C158      1.0  0.52276  0.15809  0.89766  1.0000
  C   C159      1.0  0.55106  0.17966  0.9181999999999999  1.0000
  C   C160      1.0  0.5629  0.20470000000000005  0.87144  1.0000
  C   C161      1.0  0.58966  0.23139000000000004  0.90373  1.0000
  C   C162      1.0  0.5472  0.20602  0.79941  1.0000
  C   C163      1.0  0.55917  0.22931000000000004  0.74828  1.0000
  C   C164      1.0  0.54438  0.22931000000000004  0.67703  1.0000
  C   C165      1.0  0.5165  0.20728  0.65603  1.0000
  C   C166      1.0  0.5033  0.18485  0.70592  1.0000
  C   C167      1.0  0.51842  0.1834  0.77784  1.0000
  C   C168      1.0  0.38628  0.21373000000000003  0.8705299999999999  1.0000
  H   H134      1.0  0.34439  0.30971  0.82358  1.0000
  H   H135      1.0  0.34634  0.30294  0.91968  1.0000
  H   H136      1.0  0.33031  0.25492  0.99078  1.0000
  H   H137      1.0  0.31155  0.23364  0.09401  1.0000
  H   H138      1.0  0.34423  0.26505  0.13127  1.0000
  H   H139      1.0  0.41352  0.17951  0.03166  1.0000
  H   H140      1.0  0.41677000000000003  0.14606000000000002  0.79945  1.0000
  H   H141      1.0  0.44209000000000004  0.1856  0.78997  1.0000
  H   H142      1.0  0.47314000000000006  0.12431000000000003  0.7576  1.0000
  H   H143      1.0  0.47167  0.11675000000000002  0.85203  1.0000
  H   H144      1.0  0.51377  0.14013  0.9368900000000001  1.0000
  H   H145      1.0  0.56289  0.17771  0.97282  1.0000
  H   H146      1.0  0.57838  0.25880000000000003  0.90142  1.0000
  H   H147      1.0  0.59547  0.22743  0.96309  1.0000
  H   H148      1.0  0.58029  0.24743  0.76185  1.0000
  H   H149      1.0  0.55451  0.24662000000000003  0.63799  1.0000
  H   H150      1.0  0.50491  0.20762  0.60081  1.0000
  H   H151      1.0  0.48144  0.16854  0.68674  1.0000
  H   H152      1.0  0.39122  0.21264  0.81225  1.0000
  C   C169      1.0  0.77447  0.6893300000000002  0.34512  1.0000
  O   O25       1.0  0.75594  0.6569  0.3276  1.0000
  C   C170      1.0  0.75048  0.63386  0.38404  1.0000
  C   C171      1.0  0.75357  0.64451  0.45966  1.0000
  C   C172      1.0  0.74817  0.61998  0.5134199999999999  1.0000
  O   O26       1.0  0.75356  0.62802  0.58971  1.0000
  C   C173      1.0  0.76409  0.66332  0.61312  1.0000
  C   C174      1.0  0.73687  0.58573  0.4908  1.0000
  C   C175      1.0  0.73148  0.57525  0.41612  1.0000
  O   O27       1.0  0.71623  0.54176  0.39889  1.0000
  C   C176      1.0  0.70727  0.5316900000000001  0.32341  1.0000
  C   C177      1.0  0.68573  0.49762  0.31894  1.0000
  C   C178      1.0  0.70181  0.46588  0.35701  1.0000
  C   C179      1.0  0.73748  0.46517  0.37839  1.0000
  C   C180      1.0  0.7517100000000001  0.43770000000000003  0.41797  1.0000
  C   C181      1.0  0.73129  0.40939  0.43679  1.0000
  C   C182      1.0  0.74827  0.38156000000000007  0.48417  1.0000
  C   C183      1.0  0.69578  0.40797  0.41179  1.0000
  C   C184      1.0  0.67456  0.37902000000000013  0.42607  1.0000
  C   C185      1.0  0.6395  0.37833  0.40284  1.0000
  C   C186      1.0  0.62499  0.4058400000000001  0.36386  1.0000
  C   C187      1.0  0.64541  0.43444000000000005  0.34786  1.0000
  C   C188      1.0  0.68095  0.43635  0.37176  1.0000
  C   C189      1.0  0.73963  0.59921  0.36291  1.0000
  H   H153      1.0  0.7902  0.69458  0.297  1.0000
  H   H154      1.0  0.7938  0.6874200000000003  0.39193  1.0000
  H   H155      1.0  0.75971  0.6717900000000002  0.47644000000000003  1.0000
  H   H156      1.0  0.74276  0.6826600000000003  0.60028  1.0000
  H   H157      1.0  0.78835  0.67022  0.58603  1.0000
  H   H158      1.0  0.73128  0.5673000000000002  0.53207  1.0000
  H   H159      1.0  0.69068  0.55287  0.29925  1.0000
  H   H160      1.0  0.73118  0.5276200000000002  0.29089  1.0000
  H   H161      1.0  0.67973  0.48943  0.26001  1.0000
  H   H162      1.0  0.6608  0.50539  0.34545  1.0000
  H   H163      1.0  0.75486  0.48610000000000003  0.36564  1.0000
  H   H164      1.0  0.77912  0.43873000000000006  0.43455  1.0000
  H   H165      1.0  0.77266  0.3923  0.51178  1.0000
  H   H166      1.0  0.73092  0.37588  0.52942  1.0000
  H   H167      1.0  0.6847  0.35663  0.45505000000000007  1.0000
  H   H168      1.0  0.62348  0.35629  0.41502  1.0000
  H   H169      1.0  0.59773  0.40501  0.34581  1.0000
  H   H170      1.0  0.6329  0.4547900000000001  0.31641  1.0000
  H   H171      1.0  0.73689  0.5917500000000001  0.30459  1.0000
  C   C190      1.0  0.34223  0.77479  0.33058  1.0000
  O   O28       1.0  0.36391  0.74323  0.32792  1.0000
  C   C191      1.0  0.38969  0.73986  0.38445  1.0000
  C   C192      1.0  0.38368  0.7502  0.4587899999999999  1.0000
  C   C193      1.0  0.40929  0.7440400000000001  0.51487  1.0000
  O   O29       1.0  0.40461  0.75313  0.59085  1.0000
  C   C194      1.0  0.3735  0.7726200000000001  0.61016  1.0000
  C   C195      1.0  0.4406900000000001  0.72705  0.49475  1.0000
  C   C196      1.0  0.44701  0.71603  0.42114  1.0000
  O   O30       1.0  0.47888  0.69796  0.40669  1.0000
  C   C197      1.0  0.48735  0.68905  0.33152  1.0000
  C   C198      1.0  0.52213  0.6682700000000003  0.3286  1.0000
  C   C199      1.0  0.55403  0.6866600000000002  0.36585  1.0000
  C   C200      1.0  0.5527799999999999  0.7230400000000002  0.38992  1.0000
  C   C201      1.0  0.58109  0.73934  0.42756  1.0000
  C   C202      1.0  0.61199  0.7202900000000002  0.44224  1.0000
  C   C203      1.0  0.64095  0.73947  0.4873199999999999  1.0000
  C   C204      1.0  0.61475  0.68395  0.41622  1.0000
  C   C205      1.0  0.64564  0.6638300000000001  0.42855  1.0000
  C   C206      1.0  0.64803  0.62817  0.40266  1.0000
  C   C207      1.0  0.6202  0.6118700000000004  0.3634  1.0000
  C   C208      1.0  0.5894  0.6310400000000002  0.35046  1.0000
  C   C209      1.0  0.58578  0.66715  0.3771  1.0000
  C   C210      1.0  0.42110000000000003  0.7225900000000002  0.36622  1.0000
  H   H172      1.0  0.34457  0.78745  0.2776  1.0000
  H   H173      1.0  0.35047  0.79502  0.37499999999999994  1.0000
  H   H174      1.0  0.35849  0.76155  0.47231  1.0000
  H   H175      1.0  0.35005  0.75674  0.59269  1.0000
  H   H176      1.0  0.37245  0.7981100000000002  0.5824  1.0000
  H   H177      1.0  0.4604  0.72194  0.53714  1.0000
  H   H178      1.0  0.46704  0.6713500000000001  0.30432  1.0000
  H   H179      1.0  0.48885  0.71345  0.30041  1.0000
  H   H180      1.0  0.52777  0.6611600000000001  0.26983  1.0000
  H   H181      1.0  0.51785  0.6431500000000001  0.35572  1.0000
  H   H182      1.0  0.52982  0.73946  0.38046  1.0000
  H   H183      1.0  0.57869  0.76729  0.44589999999999996  1.0000
  H   H184      1.0  0.63028  0.76414  0.51616  1.0000
  H   H185      1.0  0.65105  0.72287  0.53196  1.0000
  H   H186      1.0  0.66828  0.6752600000000001  0.45794999999999997  1.0000
  H   H187      1.0  0.67163  0.6131  0.413  1.0000
  H   H188      1.0  0.6225  0.5842  0.34286999999999995  1.0000
  H   H189      1.0  0.56869  0.61714  0.31915  1.0000
  H   H190      1.0  0.4247  0.71435  0.30883  1.0000
  C   C211      1.0  0.25305  0.34171  0.33661  1.0000
  O   O31       1.0  0.28395  0.36259000000000013  0.34862  1.0000
  C   C212      1.0  0.28419  0.38861000000000007  0.408  1.0000
  C   C213      1.0  0.27176  0.38183000000000006  0.47731  1.0000
  C   C214      1.0  0.27255  0.4085  0.53609  1.0000
  O   O32       1.0  0.25992  0.40348  0.6068  1.0000
  C   C215      1.0  0.24076  0.37169  0.61476  1.0000
  C   C216      1.0  0.28697  0.44161  0.52425  1.0000
  C   C217      1.0  0.3006  0.44843000000000005  0.45607  1.0000
  O   O33       1.0  0.31475  0.48242  0.44897999999999993  1.0000
  C   C218      1.0  0.33109  0.48892  0.38160999999999995  1.0000
  C   C219      1.0  0.34495  0.52705  0.38598  1.0000
  C   C220      1.0  0.31783  0.55695  0.39816  1.0000
  C   C221      1.0  0.28187  0.5501  0.38899  1.0000
  C   C222      1.0  0.25703  0.57659  0.40442  1.0000
  C   C223      1.0  0.26683  0.61093  0.43075  1.0000
  C   C224      1.0  0.23808999999999997  0.63685  0.45405999999999996  1.0000
  C   C225      1.0  0.30283  0.6192500000000001  0.43843  1.0000
  C   C226      1.0  0.31409  0.6535600000000003  0.46480999999999995  1.0000
  C   C227      1.0  0.34944  0.66142  0.47173  1.0000
  C   C228      1.0  0.37434  0.63577  0.45093  1.0000
  C   C229      1.0  0.36411  0.6016200000000003  0.4251  1.0000
  C   C230      1.0  0.32842999999999994  0.5923600000000001  0.42002  1.0000
  C   C231      1.0  0.29923  0.42142  0.39826  1.0000
  H   H191      1.0  0.24320000000000003  0.34424  0.27902  1.0000
  H   H192      1.0  0.23145  0.35101  0.37285  1.0000
  H   H193      1.0  0.26218  0.35552  0.48460999999999993  1.0000
  H   H194      1.0  0.25757  0.34771  0.60311  1.0000
  H   H195      1.0  0.21758  0.37081  0.57598  1.0000
  H   H196      1.0  0.28764  0.46234  0.5687  1.0000
  H   H197      1.0  0.35358  0.4701200000000001  0.37332  1.0000
  H   H198      1.0  0.31259  0.4850400000000001  0.33327  1.0000
  H   H199      1.0  0.35864  0.53121  0.33445  1.0000
  H   H200      1.0  0.3645  0.5286200000000001  0.43283  1.0000
  H   H201      1.0  0.27221  0.52406  0.37062  1.0000
  H   H202      1.0  0.22967000000000004  0.56985  0.39725  1.0000
  H   H203      1.0  0.21456000000000003  0.6219  0.46737  1.0000
  H   H204      1.0  0.2455  0.65214  0.50648  1.0000
  H   H205      1.0  0.29601  0.6747900000000001  0.48058000000000006  1.0000
  H   H206      1.0  0.35746000000000006  0.6876  0.49338  1.0000
  H   H207      1.0  0.40175  0.64234  0.45515999999999995  1.0000
  H   H208      1.0  0.38453  0.58277  0.40916  1.0000
  H   H209      1.0  0.30931  0.4254  0.34478  1.0000
  C   C232      1.0  0.8341400000000002  0.7932900000000003  0.36828  1.0000
  O   O34       1.0  0.84139  0.7566200000000001  0.34641  1.0000
  C   C233      1.0  0.85979  0.73628  0.39777  1.0000
  C   C234      1.0  0.8508499999999999  0.7367  0.47245000000000004  1.0000
  C   C235      1.0  0.86941  0.7149  0.52146  1.0000
  O   O35       1.0  0.8612300000000002  0.7120100000000003  0.59595  1.0000
  C   C236      1.0  0.83445  0.73444  0.62781  1.0000
  C   C237      1.0  0.8971700000000001  0.69366  0.49479999999999996  1.0000
  C   C238      1.0  0.9059900000000001  0.69235  0.42063  1.0000
  O   O36       1.0  0.93501  0.6708100000000001  0.39985  1.0000
  C   C239      1.0  0.93996  0.6618300000000003  0.32308  1.0000
  C   C240      1.0  0.9729699999999999  0.6384700000000002  0.3143  1.0000
  C   C241      1.0  0.005750000000000001  0.66032  0.32964  1.0000
  C   C242      1.0  0.023079999999999996  0.65822  0.39842  1.0000
  C   C243      1.0  0.05149000000000001  0.67966  0.41871  1.0000
  C   C244      1.0  0.06344  0.70455  0.37173  1.0000
  C   C245      1.0  0.09022999999999999  0.7312400000000002  0.40388999999999997  1.0000
  C   C246      1.0  0.04768  0.70585  0.29973  1.0000
  C   C247      1.0  0.059750000000000004  0.72898  0.24837  1.0000
  C   C248      1.0  0.04483  0.7290300000000002  0.17724  1.0000
  C   C249      1.0  0.01673  0.70722  0.15659  1.0000
  C   C250      1.0  0.0034800000000000005  0.68494  0.20667  1.0000
  C   C251      1.0  0.01874  0.6834  0.27846  1.0000
  C   C252      1.0  0.88639  0.71327  0.37188  1.0000
  H   H210      1.0  0.8450599999999999  0.8100600000000002  0.32698  1.0000
  H   H211      1.0  0.84663  0.80215  0.4226  1.0000
  H   H212      1.0  0.8291900000000001  0.75328  0.49096000000000006  1.0000
  H   H213      1.0  0.80974  0.73161  0.59408  1.0000
  H   H214      1.0  0.84271  0.76272  0.63114  1.0000
  H   H215      1.0  0.91201  0.67749  0.5324  1.0000
  H   H216      1.0  0.91714  0.64662  0.29906  1.0000
  H   H217      1.0  0.9427900000000001  0.68623  0.29278  1.0000
  H   H218      1.0  0.97329  0.62452  0.25853  1.0000
  H   H219      1.0  0.97195  0.61684  0.35294  1.0000
  H   H220      1.0  0.014019999999999918  0.6403900000000001  0.43782  1.0000
  H   H221      1.0  0.06333  0.67775  0.4733399999999999  1.0000
  H   H222      1.0  0.07897  0.75865  0.40145  1.0000
  H   H223      1.0  0.09602  0.72736  0.46329  1.0000
  H   H224      1.0  0.08104  0.74692  0.26168  1.0000
  H   H225      1.0  0.05501000000000002  0.74622  0.13802  1.0000
  H   H226      1.0  0.005019999999999998  0.70763  0.10147  1.0000
  H   H227      1.0  0.9814400000000001  0.6688200000000001  0.18777999999999997  1.0000
  H   H228      1.0  0.89184  0.71275  0.31391  1.0000
  C   C253      1.0  0.15307  0.8738000000000001  0.39062  1.0000
  O   O37       1.0  0.17998  0.8932100000000002  0.35911  1.0000
  C   C254      1.0  0.21374  0.89451  0.39313999999999993  1.0000
  C   C255      1.0  0.22173  0.8839100000000001  0.46488000000000007  1.0000
  C   C256      1.0  0.25622  0.88585  0.49468  1.0000
  O   O38       1.0  0.26663  0.87429  0.5644199999999999  1.0000
  C   C257      1.0  0.24041  0.86376  0.61213  1.0000
  C   C258      1.0  0.28215  0.8995900000000001  0.45309999999999995  1.0000
  C   C259      1.0  0.27477999999999997  0.91116  0.38267  1.0000
  O   O39       1.0  0.30241  0.92695  0.34802  1.0000
  C   C260      1.0  0.29885  0.9352300000000001  0.27237  1.0000
  C   C261      1.0  0.32472  0.96445  0.25848  1.0000
  C   C262      1.0  0.31628  0.99878  0.30409  1.0000
  C   C263      1.0  0.33801  0.00819  0.36591  1.0000
  C   C264      1.0  0.33137  0.03884  0.411  1.0000
  C   C265      1.0  0.30183  0.060430000000000005  0.39814  1.0000
  C   C266      1.0  0.29786  0.09529  0.44532  1.0000
  C   C267      1.0  0.27787  0.0499  0.33932  1.0000
  C   C268      1.0  0.24581000000000003  0.06828000000000002  0.32865  1.0000
  C   C269      1.0  0.22405  0.059900000000000016  0.26702  1.0000
  C   C270      1.0  0.23365000000000002  0.03305  0.21494  1.0000
  C   C271      1.0  0.26436  0.013350000000000002  0.22575  1.0000
  C   C272      1.0  0.2863  0.02036  0.28921  1.0000
  C   C273      1.0  0.24035000000000004  0.90792  0.35275  1.0000
  H   H229      1.0  0.12833  0.87844  0.35884  1.0000
  H   H230      1.0  0.14856  0.88403  0.44839999999999997  1.0000
  H   H231      1.0  0.20139  0.8743100000000001  0.4971900000000001  1.0000
  H   H232      1.0  0.22467000000000004  0.8417100000000002  0.58484  1.0000
  H   H233      1.0  0.22333  0.88701  0.62827  1.0000
  H   H234      1.0  0.30856  0.9015  0.47628999999999994  1.0000
  H   H235      1.0  0.30449  0.91087  0.23636999999999997  1.0000
  H   H236      1.0  0.27252  0.94529  0.2577  1.0000
  H   H237      1.0  0.32455  0.9693500000000003  0.19891  1.0000
  H   H238      1.0  0.35152  0.9545400000000002  0.27257  1.0000
  H   H239      1.0  0.36051  0.99168  0.37942  1.0000
  H   H240      1.0  0.34956  0.04565000000000002  0.45661  1.0000
  H   H241      1.0  0.2741  0.09420000000000002  0.47825999999999996  1.0000
  H   H242      1.0  0.32043  0.09931  0.4850499999999999  1.0000
  H   H243      1.0  0.23698  0.0889  0.36821  1.0000
  H   H244      1.0  0.1997  0.07447  0.25951  1.0000
  H   H245      1.0  0.21701  0.02714  0.16633  1.0000
  H   H246      1.0  0.27054  0.9927300000000001  0.1837  1.0000
  H   H247      1.0  0.23307  0.9157600000000001  0.29838  1.0000
  C   C274      1.0  0.26841  0.18940000000000004  0.83436  1.0000
  O   O40       1.0  0.24766  0.15811000000000003  0.82229  1.0000
  C   C275      1.0  0.24637999999999996  0.13435  0.8788  1.0000
  C   C276      1.0  0.25311  0.14454  0.95383  1.0000
  C   C277      1.0  0.2502  0.1197  0.00806  1.0000
  O   O41       1.0  0.25793  0.12765  0.08369  1.0000
  C   C278      1.0  0.26633  0.16362000000000004  0.10698  1.0000
  C   C279      1.0  0.23847000000000002  0.08538000000000001  0.9867800000000001  1.0000
  C   C280      1.0  0.22982999999999998  0.07528000000000001  0.913  1.0000
  O   O42       1.0  0.21417  0.04178  0.89777  1.0000
  C   C281      1.0  0.20472  0.031020000000000006  0.82278  1.0000
  C   C282      1.0  0.18387000000000003  0.9965000000000002  0.81947  1.0000
  C   C283      1.0  0.20063000000000003  0.9652200000000002  0.85788  1.0000
  C   C284      1.0  0.23636  0.9652100000000002  0.87878  1.0000
  C   C285      1.0  0.25123  0.9380300000000001  0.9183599999999998  1.0000
  C   C286      1.0  0.23138000000000003  0.90941  0.9378599999999999  1.0000
  C   C287      1.0  0.24905  0.8818300000000001  0.9849000000000001  1.0000
  C   C288      1.0  0.19576  0.90743  0.9137899999999999  1.0000
  C   C289      1.0  0.175  0.8783900000000001  0.9295499999999999  1.0000
  C   C290      1.0  0.13983  0.87715  0.90731  1.0000
  C   C291      1.0  0.12481999999999999  0.9040800000000002  0.86738  1.0000
  C   C292      1.0  0.14479  0.93276  0.84989  1.0000
  C   C293      1.0  0.18034  0.9353800000000001  0.87337  1.0000
  C   C294      1.0  0.23505000000000004  0.09976000000000002  0.85899  1.0000
  H   H248      1.0  0.28229  0.19307  0.78287  1.0000
  H   H249      1.0  0.28936  0.18712000000000004  0.87781  1.0000
  H   H250      1.0  0.25981  0.17178000000000004  0.9698500000000001  1.0000
  H   H251      1.0  0.24382  0.18158  0.09421  1.0000
  H   H252      1.0  0.28995  0.17207000000000003  0.07951  1.0000
  H   H253      1.0  0.23501  0.06665  0.028649999999999995  1.0000
  H   H254      1.0  0.18736  0.05161000000000002  0.79871  1.0000
  H   H255      1.0  0.2284  0.02735  0.7894  1.0000
  H   H256      1.0  0.17793  0.9879  0.76069  1.0000
  H   H257      1.0  0.15884999999999996  0.003850000000000132  0.84597  1.0000
  H   H258      1.0  0.25329  0.98644  0.86551  1.0000
  H   H259      1.0  0.27867  0.9395300000000001  0.93438  1.0000
  H   H260      1.0  0.27367  0.8927800000000001  0.011160000000000059  1.0000
  H   H261      1.0  0.23222  0.87623  0.03109000000000006  1.0000
  H   H262      1.0  0.18555  0.85636  0.9590999999999998  1.0000
  H   H263      1.0  0.12413  0.8551300000000001  0.9209599999999999  1.0000
  H   H264      1.0  0.09751  0.90277  0.84992  1.0000
  H   H265      1.0  0.13191  0.9526  0.81768  1.0000
  H   H266      1.0  0.22926000000000002  0.09299  0.80122  1.0000
  C   C295      1.0  0.8412600000000001  0.27545  0.83194  1.0000
  O   O43       1.0  0.86287  0.24387  0.82876  1.0000
  C   C296      1.0  0.8885500000000001  0.24002  0.88528  1.0000
  C   C297      1.0  0.88288  0.25059  0.9597  1.0000
  C   C298      1.0  0.90845  0.24388000000000004  0.015520000000000003  1.0000
  O   O44       1.0  0.90413  0.25302  0.09158  1.0000
  C   C299      1.0  0.8735899999999999  0.2733100000000001  0.11151  1.0000
  C   C300      1.0  0.9394699999999999  0.22623  0.9950799999999999  1.0000
  C   C301      1.0  0.94544  0.21505  0.92143  1.0000
  O   O45       1.0  0.9771  0.19669  0.9065  1.0000
  C   C302      1.0  0.9848900000000002  0.18705  0.83124  1.0000
  C   C303      1.0  0.02007  0.16706  0.82792  1.0000
  C   C304      1.0  0.05181000000000001  0.18681  0.86253  1.0000
  C   C305      1.0  0.04986999999999999  0.22352000000000002  0.8838099999999999  1.0000
  C   C306      1.0  0.07796  0.24105  0.91971  1.0000
  C   C307      1.0  0.10934000000000002  0.22297  0.93521  1.0000
  C   C308      1.0  0.13769  0.24309  0.98038  1.0000
  C   C309      1.0  0.11286  0.18642  0.91128  1.0000
  C   C310      1.0  0.1443  0.16730000000000003  0.9240700000000001  1.0000
  C   C311      1.0  0.14733  0.13132  0.9011399999999999  1.0000
  C   C312      1.0  0.11966  0.11370000000000002  0.86409  1.0000
  C   C313      1.0  0.08834  0.13188  0.85048  1.0000
  C   C314      1.0  0.08407000000000002  0.1683  0.87428  1.0000
  C   C315      1.0  0.91954  0.22201000000000004  0.86681  1.0000
  H   H267      1.0  0.84357  0.28829000000000005  0.77913  1.0000
  H   H268      1.0  0.84954  0.29555  0.87655  1.0000
  H   H269      1.0  0.85797  0.26249  0.9736  1.0000
  H   H270      1.0  0.84969  0.25812  0.09423  1.0000
  H   H271      1.0  0.87314  0.29890000000000005  0.08407  1.0000
  H   H272      1.0  0.9591599999999999  0.22075  0.03726  1.0000
  H   H273      1.0  0.9646199999999999  0.16873  0.80596  1.0000
  H   H274      1.0  0.9855699999999998  0.21103  0.79864  1.0000
  H   H275      1.0  0.02523  0.15916000000000002  0.76924  1.0000
  H   H276      1.0  0.01672  0.14234  0.85706  1.0000
  H   H277      1.0  0.026489999999999906  0.23921000000000003  0.87379  1.0000
  H   H278      1.0  0.07494  0.26912  0.93645  1.0000
  H   H279      1.0  0.1266  0.26793  0.007719999999999948  1.0000
  H   H280      1.0  0.1475  0.22697000000000003  0.026040000000000063  1.0000
  H   H281      1.0  0.16688  0.17978  0.9516900000000001  1.0000
  H   H282      1.0  0.17128999999999997  0.11701000000000002  0.91231  1.0000
  H   H283      1.0  0.12246  0.08576  0.84588  1.0000
  H   H284      1.0  0.06775  0.11695000000000001  0.82107  1.0000
  H   H285      1.0  0.92286  0.21355000000000002  0.80943  1.0000
  C   C316      1.0  0.75334  0.8409500000000002  0.83561  1.0000
  O   O46       1.0  0.78361  0.8626400000000002  0.84847  1.0000
  C   C317      1.0  0.78308  0.8884  0.9081800000000001  1.0000
  C   C318      1.0  0.77017  0.8811100000000002  0.9766900000000001  1.0000
  C   C319      1.0  0.77068  0.9072900000000003  0.03635  1.0000
  O   O47       1.0  0.75785  0.90149  0.10655  1.0000
  C   C320      1.0  0.73917  0.8692300000000002  0.11298  1.0000
  C   C321      1.0  0.7851400000000001  0.9405900000000001  0.02597  1.0000
  C   C322      1.0  0.79908  0.9479900000000001  0.9583599999999999  1.0000
  O   O48       1.0  0.81326  0.98208  0.95245  1.0000
  C   C323      1.0  0.83016  0.9888400000000002  0.88581  1.0000
  C   C324      1.0  0.84412  0.02693  0.891  1.0000
  C   C325      1.0  0.817  0.056940000000000004  0.90146  1.0000
  C   C326      1.0  0.78104  0.05014  0.89192  1.0000
  C   C327      1.0  0.75623  0.07678999999999998  0.9061299999999999  1.0000
  C   C328      1.0  0.76603  0.11124000000000002  0.93175  1.0000
  C   C329      1.0  0.73732  0.1373  0.9545399999999999  1.0000
  C   C330      1.0  0.8020399999999999  0.11950000000000001  0.9395900000000001  1.0000
  C   C331      1.0  0.81332  0.15391000000000005  0.9651699999999999  1.0000
  C   C332      1.0  0.8486800000000001  0.16173  0.97213  1.0000
  C   C333      1.0  0.8735700000000001  0.13591000000000003  0.95227  1.0000
  C   C334      1.0  0.86332  0.10162  0.9274500000000001  1.0000
  C   C335      1.0  0.82762  0.09245000000000002  0.92227  1.0000
  C   C336      1.0  0.79808  0.9213400000000002  0.89982  1.0000
  H   H286      1.0  0.74505  0.8416300000000002  0.77661  1.0000
  H   H287      1.0  0.73064  0.8508900000000003  0.86809  1.0000
  H   H288      1.0  0.76049  0.85473  0.98268  1.0000
  H   H289      1.0  0.7562899999999999  0.8456300000000001  0.09992  1.0000
  H   H290      1.0  0.71588  0.86848  0.07452  1.0000
  H   H291      1.0  0.78565  0.96097  0.07111  1.0000
  H   H292      1.0  0.85267  0.97004  0.87803  1.0000
  H   H293      1.0  0.81202  0.98516  0.83681  1.0000
  H   H294      1.0  0.85847  0.03097  0.84024  1.0000
  H   H295      1.0  0.8631199999999999  0.02856000000000001  0.9388400000000001  1.0000
  H   H296      1.0  0.77138  0.02401000000000009  0.87427  1.0000
  H   H297      1.0  0.72886  0.07010000000000001  0.8987700000000001  1.0000
  H   H298      1.0  0.71373  0.12243  0.9679100000000002  1.0000
  H   H299      1.0  0.7447  0.1527  0.006839999999999957  1.0000
  H   H300      1.0  0.79525  0.17526  0.98027  1.0000
  H   H301      1.0  0.85671  0.18800000000000006  0.9931299999999998  1.0000
  H   H302      1.0  0.9009900000000001  0.14244000000000004  0.9565  1.0000
  H   H303      1.0  0.88373  0.08261  0.9123600000000001  1.0000
  H   H304      1.0  0.80848  0.92566  0.84679  1.0000
  O   O49       1.0  0.22513000000000002  0.32868  0.9806199999999999  1.0000
  O   O50       1.0  0.24258  0.35979  0.88715  1.0000
  Co  Co1       1.0  0.23542  0.32951  0.80517  1.0000
  C   C337      1.0  0.22911999999999996  0.3700300000000001  0.69198  1.0000
  C   C338      1.0  0.29494  0.29993  0.8681  1.0000
  Co  Co2       1.0  0.19175  0.26487  0.79381  1.0000
  O   O51       1.0  0.25344  0.36343  0.74829  1.0000
  O   O52       1.0  0.198  0.37054  0.70453  1.0000
  O   O53       1.0  0.27864  0.30953  0.81074  1.0000
  O   O54       1.0  0.27986  0.29588000000000003  0.9277799999999999  1.0000
  Co  Co3       1.0  0.23520999999999997  0.28355  0.9451199999999998  1.0000
  O   O55       1.0  0.19243  0.27029000000000003  0.9714899999999999  1.0000
  O   O56       1.0  0.16709  0.24671000000000004  0.86621  1.0000
  O   O57       1.0  0.16716  0.2353  0.7252  1.0000
  O   O58       1.0  0.20667  0.25718000000000013  0.65176  1.0000
  O   O59       1.0  0.22543  0.23080000000000003  0.79669  1.0000
  O   O60       1.0  0.24682  0.23782000000000003  0.91306  1.0000
  O   O61       1.0  0.21607000000000004  0.29571  0.8569  1.0000
  C   C339      1.0  0.23138000000000003  0.35803  0.9523299999999999  1.0000
  C   C340      1.0  0.16768  0.2538  0.9359699999999999  1.0000
  C   C341      1.0  0.18199  0.23748000000000002  0.6569  1.0000
  C   C342      1.0  0.2453  0.22135000000000005  0.8493799999999999  1.0000
  O   O62       1.0  0.69571  0.16243  0.87254  1.0000
  O   O63       1.0  0.75043  0.18299  0.87415  1.0000
  Co  Co4       1.0  0.74554  0.22751000000000002  0.83998  1.0000
  C   C343      1.0  0.80368  0.26621  0.8398  1.0000
  C   C344      1.0  0.73391  0.18641000000000005  0.70911  1.0000
  Co  Co5       1.0  0.68006  0.2703  0.8238  1.0000
  O   O64       1.0  0.79389  0.23099  0.84575  1.0000
  O   O65       1.0  0.78127  0.28972  0.8395499999999999  1.0000
  O   O66       1.0  0.74899  0.21248000000000003  0.74429  1.0000
  O   O67       1.0  0.70862  0.17026  0.73454  1.0000
  Co  Co6       1.0  0.67492  0.18588000000000002  0.79889  1.0000
  O   O68       1.0  0.63967  0.19879  0.85951  1.0000
  O   O69       1.0  0.63584  0.25765000000000005  0.84397  1.0000
  O   O70       1.0  0.66361  0.31669  0.81476  1.0000
  O   O71       1.0  0.66454  0.3184  0.9396  1.0000
  O   O72       1.0  0.6727  0.26178000000000007  0.72552  1.0000
  O   O73       1.0  0.65202  0.20656000000000008  0.72275  1.0000
  O   O74       1.0  0.69803  0.22590000000000002  0.83515  1.0000
  C   C345      1.0  0.72737  0.16222  0.8959799999999999  1.0000
  C   C346      1.0  0.62383  0.22887000000000002  0.86635  1.0000
  C   C347      1.0  0.66069  0.33472  0.88397  1.0000
  C   C348      1.0  0.65703  0.23540000000000003  0.69269  1.0000
  O   O75       1.0  0.19632  0.6622200000000001  0.37268  1.0000
  O   O76       1.0  0.2511  0.68261  0.37382  1.0000
  Co  Co7       1.0  0.24628  0.72723  0.33995  1.0000
  C   C349      1.0  0.3046  0.7656500000000002  0.33851  1.0000
  C   C350      1.0  0.23441999999999996  0.68641  0.20898  1.0000
  Co  Co8       1.0  0.18072  0.77013  0.32424  1.0000
  O   O77       1.0  0.29468  0.73054  0.3453  1.0000
  O   O78       1.0  0.28225  0.78921  0.33769  1.0000
  O   O79       1.0  0.24947  0.71235  0.24412  1.0000
  O   O80       1.0  0.20911000000000002  0.6701000000000003  0.23471000000000003  1.0000
  Co  Co9       1.0  0.17555  0.6857500000000001  0.29916  1.0000
  O   O81       1.0  0.14031  0.69863  0.35992  1.0000
  O   O82       1.0  0.13647  0.75747  0.34426  1.0000
  O   O83       1.0  0.16426  0.8165200000000001  0.31527  1.0000
  O   O84       1.0  0.16467  0.8180500000000002  0.44008  1.0000
  O   O85       1.0  0.17339  0.7616600000000002  0.22591000000000003  1.0000
  O   O86       1.0  0.15258  0.70649  0.22317000000000004  1.0000
  O   O87       1.0  0.19870999999999997  0.72571  0.3355  1.0000
  C   C351      1.0  0.22812  0.66194  0.3957899999999999  1.0000
  C   C352      1.0  0.12444000000000001  0.7287100000000002  0.36663  1.0000
  C   C353      1.0  0.16098  0.8344300000000002  0.3845  1.0000
  C   C354      1.0  0.15764  0.73535  0.19309  1.0000
  O   O88       1.0  0.83011  0.28662  0.47912  1.0000
  O   O89       1.0  0.86163  0.27484  0.37752  1.0000
  Co  Co10      1.0  0.82992  0.27104  0.30105  1.0000
  C   C355      1.0  0.87273  0.2811  0.19335  1.0000
  C   C356      1.0  0.80848  0.21175000000000005  0.37361  1.0000
  Co  Co11      1.0  0.76511  0.31375  0.29765  1.0000
  O   O90       1.0  0.86484  0.25419  0.23893  1.0000
  O   O91       1.0  0.87515  0.31181000000000003  0.21952  1.0000
  O   O92       1.0  0.82074  0.22529000000000002  0.31799  1.0000
  O   O93       1.0  0.79616  0.23008000000000006  0.42837  1.0000
  Co  Co12      1.0  0.78521  0.27706  0.4479699999999999  1.0000
  O   O94       1.0  0.77338  0.32308  0.47528  1.0000
  O   O95       1.0  0.75046  0.34468  0.3715  1.0000
  O   O96       1.0  0.73657  0.33790000000000003  0.23332999999999998  1.0000
  O   O97       1.0  0.78899  0.34724000000000005  0.18624  1.0000
  O   O98       1.0  0.72988  0.28363  0.3076  1.0000
  O   O99       1.0  0.7397  0.2663400000000001  0.42254  1.0000
  O   O100      1.0  0.79494  0.28971  0.35648  1.0000
  C   C357      1.0  0.85908  0.2836500000000001  0.44636  1.0000
  C   C358      1.0  0.75782  0.34749  0.4406  1.0000
  C   C359      1.0  0.75723  0.34966  0.17898  1.0000
  C   C360      1.0  0.72123  0.26723  0.36273  1.0000
  O   O101      1.0  0.72519  0.82836  0.4804899999999999  1.0000
  O   O102      1.0  0.74197  0.8580600000000002  0.38448  1.0000
  Co  Co13      1.0  0.73536  0.82627  0.30459  1.0000
  C   C361      1.0  0.72794  0.86623  0.1901  1.0000
  C   C362      1.0  0.79551  0.7992900000000001  0.36985  1.0000
  Co  Co14      1.0  0.6939  0.7596700000000002  0.29827  1.0000
  O   O103      1.0  0.75275  0.8596200000000002  0.24545  1.0000
  O   O104      1.0  0.69691  0.8657200000000002  0.20322  1.0000
  O   O105      1.0  0.77896  0.8072300000000002  0.3115  1.0000
  O   O106      1.0  0.78059  0.79633  0.43007  1.0000
  Co  Co15      1.0  0.73641  0.7830300000000002  0.4484099999999999  1.0000
  O   O107      1.0  0.69417  0.76911  0.47605000000000003  1.0000
  O   O108      1.0  0.67062  0.7415200000000001  0.3729  1.0000
  O   O109      1.0  0.67066  0.7273400000000002  0.23256  1.0000
  O   O110      1.0  0.67843  0.77067  0.15461  1.0000
  O   O111      1.0  0.72958  0.72783  0.30293  1.0000
  O   O112      1.0  0.74927  0.73713  0.42013  1.0000
  O   O113      1.0  0.71674  0.79295  0.3589399999999999  1.0000
  C   C363      1.0  0.73118  0.85725  0.45019  1.0000
  C   C364      1.0  0.67048  0.7504900000000001  0.442  1.0000
  C   C365      1.0  0.66883  0.74039  0.16252  1.0000
  C   C366      1.0  0.74933  0.71996  0.35718  1.0000
  O   O114      1.0  0.3613  0.1842  0.36212  1.0000
  O   O115      1.0  0.34309  0.24204000000000003  0.36637  1.0000
  Co  Co16      1.0  0.29689  0.24065  0.33648  1.0000
  C   C367      1.0  0.26134  0.3031500000000001  0.34592  1.0000
  C   C368      1.0  0.32879  0.2256  0.20354  1.0000
  Co  Co17      1.0  0.25892  0.16777  0.31796  1.0000
  O   O116      1.0  0.29554  0.29023  0.34196  1.0000
  O   O117      1.0  0.23781  0.2826600000000001  0.35505  1.0000
  O   O118      1.0  0.30533  0.24229000000000003  0.23948  1.0000
  O   O119      1.0  0.34522  0.19905000000000006  0.22851999999999997  1.0000
  Co  Co18      1.0  0.33115  0.16602  0.29035  1.0000
  O   O120      1.0  0.31985  0.12996  0.35072  1.0000
  O   O121      1.0  0.26888  0.14733  0.40145999999999993  1.0000
  O   O122      1.0  0.23448  0.20574  0.36245  1.0000
  O   O123      1.0  0.18228  0.23171000000000005  0.33818  1.0000
  O   O124      1.0  0.25385  0.18432000000000007  0.22992  1.0000
  O   O125      1.0  0.30061  0.14903000000000002  0.21445  1.0000
  O   O126      1.0  0.29805  0.19232  0.33443  1.0000
  C   C369      1.0  0.3644  0.21715  0.38514  1.0000
  C   C370      1.0  0.29574  0.12662000000000004  0.39793  1.0000
  C   C371      1.0  0.19903  0.20398  0.34333  1.0000
  C   C372      1.0  0.27409  0.16617000000000004  0.18765  1.0000
  O   O127      1.0  0.8609999999999999  0.6834400000000002  0.86272  1.0000
  O   O128      1.0  0.84318  0.74141  0.86489  1.0000
  Co  Co19      1.0  0.79663  0.74003  0.8373199999999998  1.0000
  C   C373      1.0  0.76214  0.8031000000000003  0.8506  1.0000
  C   C374      1.0  0.8271800000000001  0.72354  0.70375  1.0000
  Co  Co20      1.0  0.75811  0.6675100000000002  0.82419  1.0000
  O   O129      1.0  0.79562  0.7894800000000001  0.8387999999999999  1.0000
  O   O130      1.0  0.73981  0.78391  0.87187  1.0000
  O   O131      1.0  0.8038  0.74032  0.73962  1.0000
  O   O132      1.0  0.8436700000000001  0.69721  0.72927  1.0000
  Co  Co21      1.0  0.82995  0.66493  0.79319  1.0000
  O   O133      1.0  0.81915  0.62945  0.85526  1.0000
  O   O134      1.0  0.76865  0.64716  0.9075599999999999  1.0000
  O   O135      1.0  0.7342  0.70571  0.86924  1.0000
  O   O136      1.0  0.68396  0.73404  0.83863  1.0000
  O   O137      1.0  0.75235  0.6839000000000002  0.73624  1.0000
  O   O138      1.0  0.79835  0.6477400000000002  0.71962  1.0000
  O   O139      1.0  0.79757  0.6918000000000001  0.83868  1.0000
  C   C375      1.0  0.86452  0.71657  0.88404  1.0000
  C   C376      1.0  0.79533  0.62625  0.90313  1.0000
  C   C377      1.0  0.69912  0.70562  0.84649  1.0000
  C   C378      1.0  0.77199  0.66535  0.6935  1.0000
  O   O140      1.0  0.33101  0.78715  0.97871  1.0000
  O   O141      1.0  0.3618  0.7742200000000002  0.87646  1.0000
  Co  Co22      1.0  0.32984  0.77102  0.80048  1.0000
  C   C379      1.0  0.37217  0.7806600000000001  0.69185  1.0000
  C   C380      1.0  0.30849  0.71193  0.87339  1.0000
  Co  Co23      1.0  0.2653  0.8139100000000001  0.79832  1.0000
  O   O142      1.0  0.36432  0.75382  0.73762  1.0000
  O   O143      1.0  0.37393  0.8115  0.71757  1.0000
  O   O144      1.0  0.32003  0.72538  0.81699  1.0000
  O   O145      1.0  0.2971  0.73037  0.9289700000000001  1.0000
  Co  Co24      1.0  0.28603  0.7773600000000002  0.94845  1.0000
  O   O146      1.0  0.27415  0.82335  0.9757799999999999  1.0000
  O   O147      1.0  0.25055999999999995  0.84471  0.87237  1.0000
  O   O148      1.0  0.23653000000000002  0.8378900000000001  0.73419  1.0000
  O   O149      1.0  0.28897  0.8476700000000003  0.68769  1.0000
  O   O150      1.0  0.23039000000000004  0.78345  0.80851  1.0000
  O   O151      1.0  0.24049  0.76647  0.92364  1.0000
  O   O152      1.0  0.29539  0.79006  0.85678  1.0000
  C   C381      1.0  0.35975  0.7837100000000002  0.94514  1.0000
  C   C382      1.0  0.25832  0.8476700000000003  0.9412999999999999  1.0000
  C   C383      1.0  0.2572  0.84987  0.68011  1.0000
  C   C384      1.0  0.22197  0.76704  0.8638  1.0000
