data_image0
_chemical_formula_structural       Mn5CN8C2N8CN16Cl2C4Mn5CN8C2N8CN16Cl2C4Mn5CN8C2N8CN16Cl2C4Mn5CN8C2N8CN16Cl2C13NC5H21C9NC5H21C9NC5H21C9NC5H21C9NC5H21C9NC5H21C9NC5H21C9NC5H21C9NC5H21C9NC5H21C9NC5H21C9NC5H21C9NC5H21C9NC5H21C9NC5H21C9NC5H21
_chemical_formula_sum              "Mn20 C256 N144 Cl8 H336"
_cell_length_a       12.9686
_cell_length_b       29.196700000000003
_cell_length_c       32.3546
_cell_angle_alpha    108.89789999999999
_cell_angle_beta     89.40729999999999
_cell_angle_gamma    88.41480000000001

_space_group_name_H-M_alt    "P 1"
_space_group_IT_number       1

loop_
  _space_group_symop_operation_xyz
  'x, y, z'

loop_
  _atom_site_type_symbol
  _atom_site_label
  _atom_site_symmetry_multiplicity
  _atom_site_fract_x
  _atom_site_fract_y
  _atom_site_fract_z
  _atom_site_occupancy
  Mn  Mn1       1.0  0.90592  0.3687800000000001  0.13236  1.0000
  Mn  Mn2       1.0  0.16362999999999997  0.3397600000000001  0.10882000000000003  1.0000
  Mn  Mn3       1.0  0.4834299999999999  0.12246000000000011  0.8601400000000002  1.0000
  Mn  Mn4       1.0  0.23739  0.15211000000000005  0.90033  1.0000
  Mn  Mn5       1.0  0.21516999999999994  0.24273000000000006  0.00845  1.0000
  C   C1        1.0  0.97159  0.32596  0.20306000000000005  1.0000
  N   N1        1.0  0.99628  0.3429  0.17057  1.0000
  N   N2        1.0  0.09573999999999999  0.33329  0.16289  1.0000
  N   N3        1.0  0.13319  0.31205  0.19018000000000004  1.0000
  N   N4        1.0  0.05697  0.30709  0.21589000000000005  1.0000
  N   N5        1.0  0.30807  0.27551  0.13536000000000006  1.0000
  N   N6        1.0  0.25471  0.28116  0.10282  1.0000
  N   N7        1.0  0.27164  0.24402000000000004  0.06693000000000002  1.0000
  N   N8        1.0  0.33647999999999995  0.2124  0.07503  1.0000
  C   C2        1.0  0.35792  0.23252000000000006  0.11790000000000003  1.0000
  C   C3        1.0  0.2655  0.39417000000000013  0.01745  1.0000
  N   N9        1.0  0.2233  0.3470000000000001  0.05323000000000001  1.0000
  N   N10       1.0  0.22615999999999997  0.38812  0.05177  1.0000
  N   N11       1.0  0.06860999999999998  0.26382  0.03645  1.0000
  N   N12       1.0  0.05547999999999999  0.29968  0.07356  1.0000
  N   N13       1.0  0.95711  0.31105  0.08239000000000003  1.0000
  N   N14       1.0  0.9006  0.28239  0.05213  1.0000
  N   N15       1.0  0.25817  0.31329  0.01914  1.0000
  N   N16       1.0  0.23398999999999998  0.3624600000000001  0.042270000000000016  1.0000
  C   C4        1.0  0.96872  0.25285  0.022990000000000007  1.0000
  N   N17       1.0  0.38111999999999996  0.1510400000000001  0.8283500000000003  1.0000
  N   N18       1.0  0.28710999999999987  0.16303  0.84479  1.0000
  N   N19       1.0  0.23039999999999994  0.17897000000000005  0.81832  1.0000
  N   N20       1.0  0.2874199999999999  0.17842  0.7841  1.0000
  N   N21       1.0  0.11531999999999999  0.23217000000000013  0.8862000000000002  1.0000
  N   N22       1.0  0.15776  0.2147300000000001  0.9150900000000001  1.0000
  N   N23       1.0  0.1565  0.2483800000000001  0.9534900000000002  1.0000
  N   N24       1.0  0.11424999999999999  0.2892700000000001  0.9510400000000002  1.0000
  N   N25       1.0  0.14886  0.15025000000000005  0.023680000000000003  1.0000
  N   N26       1.0  0.17733  0.17155000000000004  0.9948900000000002  1.0000
  N   N27       1.0  0.18891999999999995  0.13876000000000013  0.9557100000000002  1.0000
  N   N28       1.0  0.16839000000000007  0.09519000000000005  0.95763  1.0000
  N   N29       1.0  0.3573299999999999  0.21698000000000012  0.9747700000000002  1.0000
  N   N30       1.0  0.3556199999999999  0.18904  0.93288  1.0000
  N   N31       1.0  0.4490099999999999  0.1791900000000001  0.9153100000000002  1.0000
  N   N32       1.0  0.51682  0.1995300000000001  0.9446300000000002  1.0000
  Cl  Cl1       1.0  0.05048  0.4037700000000002  0.11796000000000002  1.0000
  Cl  Cl2       1.0  0.34561  0.08628000000000005  0.8813  1.0000
  C   C5        1.0  0.38144  0.16097000000000009  0.7903300000000002  1.0000
  C   C6        1.0  0.08688999999999995  0.2782100000000002  0.9091000000000002  1.0000
  C   C7        1.0  0.14210999999999996  0.10260000000000007  0.9999900000000002  1.0000
  C   C8        1.0  0.46189  0.22219000000000014  0.9818700000000002  1.0000
  Mn  Mn6       1.0  0.6187299999999999  0.8849200000000003  0.1908  1.0000
  Mn  Mn7       1.0  0.82716  0.8124900000000004  0.14064000000000004  1.0000
  Mn  Mn8       1.0  0.9244699999999999  0.59713  0.85368  1.0000
  Mn  Mn9       1.0  0.7318099999999997  0.67171  0.9122300000000002  1.0000
  Mn  Mn10      1.0  0.78763  0.74032  0.02605  1.0000
  C   C9        1.0  0.6364699999999998  0.81234  0.24222000000000005  1.0000
  N   N33       1.0  0.66971  0.8304900000000002  0.21126000000000006  1.0000
  N   N34       1.0  0.7484099999999999  0.80193  0.19140000000000004  1.0000
  N   N35       1.0  0.76444  0.7677300000000001  0.20910000000000006  1.0000
  N   N36       1.0  0.69628  0.7734600000000003  0.24138000000000007  1.0000
  N   N37       1.0  0.8937399999999998  0.7172400000000002  0.13878000000000004  1.0000
  N   N38       1.0  0.8619899999999999  0.74237  0.11412000000000003  1.0000
  N   N39       1.0  0.8444799999999998  0.71399  0.07394  1.0000
  N   N40       1.0  0.8597199999999999  0.66818  0.07243  1.0000
  C   C10       1.0  0.8920399999999998  0.6711800000000003  0.11317  1.0000
  C   C11       1.0  0.97744  0.85926  0.05439  1.0000
  N   N41       1.0  0.89746  0.8233000000000003  0.09042  1.0000
  N   N42       1.0  0.9565599999999999  0.8604700000000002  0.09529  1.0000
  N   N43       1.0  0.6685399999999999  0.7788800000000002  0.07020000000000003  1.0000
  N   N44       1.0  0.6934299999999999  0.80763  0.10973  1.0000
  N   N45       1.0  0.6142599999999998  0.83518  0.13021  1.0000
  N   N46       1.0  0.5324199999999999  0.8250300000000003  0.10630000000000003  1.0000
  N   N47       1.0  0.88169  0.7997  0.04863  1.0000
  N   N48       1.0  0.9307  0.8218700000000001  0.024700000000000007  1.0000
  C   C12       1.0  0.56293  0.78956  0.06938000000000002  1.0000
  N   N49       1.0  0.85803  0.6488300000000002  0.8331100000000002  1.0000
  N   N50       1.0  0.7917599999999998  0.6815700000000003  0.8578800000000002  1.0000
  N   N51       1.0  0.74098  0.7030400000000002  0.83366  1.0000
  N   N52       1.0  0.7716099999999999  0.6833500000000002  0.7923000000000002  1.0000
  N   N53       1.0  0.675  0.7723400000000004  0.9188900000000002  1.0000
  N   N54       1.0  0.71082  0.74351  0.9399  1.0000
  N   N55       1.0  0.73262  0.7687800000000001  0.9804800000000002  1.0000
  N   N56       1.0  0.7107  0.81531  0.98741  1.0000
  N   N57       1.0  0.6363099999999999  0.66277  0.030090000000000006  1.0000
  N   N58       1.0  0.6927099999999999  0.6819  0.005520000000000001  1.0000
  N   N59       1.0  0.6772  0.6578700000000002  0.96415  1.0000
  N   N60       1.0  0.6166  0.6215000000000002  0.9603400000000002  1.0000
  N   N61       1.0  0.90206  0.7005600000000003  0.9775700000000003  1.0000
  N   N62       1.0  0.87051  0.67472  0.93778  1.0000
  N   N63       1.0  0.94521  0.64786  0.9131100000000002  1.0000
  N   N64       1.0  0.03190999999999997  0.6560700000000004  0.9338600000000002  1.0000
  Cl  Cl3       1.0  0.7851799999999998  0.8923400000000002  0.17206  1.0000
  Cl  Cl4       1.0  0.7642  0.59102  0.8793600000000003  1.0000
  C   C13       1.0  0.8422099999999998  0.6483900000000002  0.79198  1.0000
  C   C14       1.0  0.6750599999999999  0.8169100000000001  0.9486500000000002  1.0000
  C   C15       1.0  0.58856  0.62484  0.00121  1.0000
  C   C16       1.0  0.007369999999999993  0.68911  0.9730500000000002  1.0000
  Mn  Mn11      1.0  0.95174  0.6355800000000003  0.3960500000000001  1.0000
  Mn  Mn12      1.0  0.20275  0.6519  0.4262600000000001  1.0000
  Mn  Mn13      1.0  0.49641  0.8555800000000002  0.67927  1.0000
  Mn  Mn14      1.0  0.2515499999999999  0.8331  0.6416200000000002  1.0000
  Mn  Mn15      1.0  0.23665  0.74509  0.53225  1.0000
  C   C17       1.0  0.05236999999999997  0.6679200000000001  0.3219700000000001  1.0000
  N   N65       1.0  0.054130000000000005  0.65981  0.36082  1.0000
  N   N66       1.0  0.15197999999999998  0.6623  0.3715500000000001  1.0000
  N   N67       1.0  0.21013  0.66838  0.34016  1.0000
  N   N68       1.0  0.14977999999999997  0.6724100000000002  0.3088400000000001  1.0000
  N   N69       1.0  0.3398599999999999  0.71913  0.405  1.0000
  N   N70       1.0  0.29231999999999997  0.7093000000000003  0.43709000000000003  1.0000
  N   N71       1.0  0.2994799999999999  0.74551  0.4741  1.0000
  N   N72       1.0  0.35105  0.78074  0.4667100000000001  1.0000
  C   C18       1.0  0.3758  0.7635300000000003  0.4234600000000001  1.0000
  C   C19       1.0  0.3058  0.60387  0.5226500000000001  1.0000
  N   N73       1.0  0.25192  0.6395600000000001  0.4798400000000001  1.0000
  N   N74       1.0  0.2718799999999999  0.5958700000000002  0.4818600000000001  1.0000
  N   N75       1.0  0.09446999999999998  0.72841  0.50137  1.0000
  N   N76       1.0  0.08959999999999999  0.6951500000000003  0.4621300000000001  1.0000
  N   N77       1.0  0.9938599999999999  0.68911  0.44919  1.0000
  N   N78       1.0  0.9310699999999997  0.71871  0.47824  1.0000
  N   N79       1.0  0.27397  0.67307  0.51686  1.0000
  N   N80       1.0  0.30873  0.65185  0.5447500000000002  1.0000
  C   C20       1.0  0.99212  0.74353  0.5109900000000003  1.0000
  N   N81       1.0  0.39168  0.8311800000000003  0.71246  1.0000
  N   N82       1.0  0.2987599999999999  0.82087  0.69683  1.0000
  N   N83       1.0  0.23933999999999994  0.8103700000000003  0.7257200000000003  1.0000
  N   N84       1.0  0.29365999999999987  0.81299  0.76077  1.0000
  N   N85       1.0  0.13043  0.7566400000000001  0.6564300000000002  1.0000
  N   N86       1.0  0.16921999999999993  0.7738400000000003  0.6267600000000002  1.0000
  N   N87       1.0  0.16997999999999994  0.7405300000000004  0.5879200000000002  1.0000
  N   N88       1.0  0.13179  0.70015  0.5911700000000002  1.0000
  N   N89       1.0  0.14179  0.8334300000000002  0.52267  1.0000
  N   N90       1.0  0.19896999999999998  0.81596  0.54795  1.0000
  N   N91       1.0  0.20303  0.8479200000000003  0.5875700000000003  1.0000
  N   N92       1.0  0.14690999999999999  0.8871800000000002  0.5894  1.0000
  N   N93       1.0  0.37658  0.76519  0.56572  1.0000
  N   N94       1.0  0.37192  0.79227  0.60789  1.0000
  N   N95       1.0  0.46444999999999986  0.79924  0.62478  1.0000
  N   N96       1.0  0.53401  0.77762  0.5947  1.0000
  Cl  Cl5       1.0  0.08713999999999998  0.59209  0.41239  1.0000
  Cl  Cl6       1.0  0.3596399999999999  0.89559  0.6598900000000002  1.0000
  C   C21       1.0  0.38873  0.8259700000000002  0.7523800000000003  1.0000
  C   C22       1.0  0.10757999999999997  0.7108000000000001  0.6339700000000003  1.0000
  C   C23       1.0  0.10993  0.8778500000000002  0.54864  1.0000
  C   C24       1.0  0.48193999999999987  0.7576300000000005  0.55734  1.0000
  Mn  Mn16      1.0  0.5686899999999999  0.11584000000000005  0.3558100000000001  1.0000
  Mn  Mn17      1.0  0.8020899999999997  0.15713000000000005  0.3980500000000001  1.0000
  Mn  Mn18      1.0  0.016020000000000003  0.3606  0.66173  1.0000
  Mn  Mn19      1.0  0.78103  0.3302800000000001  0.61692  1.0000
  Mn  Mn20      1.0  0.7896399999999998  0.2527800000000001  0.5031700000000001  1.0000
  C   C25       1.0  0.6531799999999999  0.16148000000000012  0.2878300000000001  1.0000
  N   N97       1.0  0.66257  0.14749000000000007  0.32375  1.0000
  N   N98       1.0  0.74886  0.16631  0.34214  1.0000
  N   N99       1.0  0.79069  0.1919000000000001  0.3197600000000001  1.0000
  N   N100      1.0  0.7330299999999998  0.1895  0.28575  1.0000
  N   N101      1.0  0.92705  0.23147000000000004  0.3831500000000001  1.0000
  N   N102      1.0  0.8767499999999998  0.2199900000000001  0.41351  1.0000
  N   N103      1.0  0.86238  0.25847000000000003  0.4485500000000001  1.0000
  N   N104      1.0  0.89841  0.2971500000000002  0.4404800000000001  1.0000
  C   C26       1.0  0.94107  0.27915  0.39948  1.0000
  C   C27       1.0  0.8834099999999998  0.11621  0.50199  1.0000
  N   N105      1.0  0.84772  0.14776  0.45331  1.0000
  N   N106      1.0  0.8688599999999997  0.10541000000000002  0.4586400000000001  1.0000
  N   N107      1.0  0.6577400000000001  0.22769  0.46446  1.0000
  N   N108      1.0  0.67107  0.18992000000000003  0.42814  1.0000
  N   N109      1.0  0.5825499999999998  0.17443000000000003  0.41016000000000014  1.0000
  N   N110      1.0  0.5062  0.20204000000000008  0.43232  1.0000
  N   N111      1.0  0.84755  0.18298000000000006  0.49095  1.0000
  N   N112      1.0  0.8693599999999998  0.16437  0.52251  1.0000
  C   C28       1.0  0.55068  0.23573000000000005  0.46577  1.0000
  N   N113      1.0  0.9201099999999998  0.3223400000000001  0.6849200000000002  1.0000
  N   N114      1.0  0.8283699999999998  0.31069000000000013  0.6686900000000001  1.0000
  N   N115      1.0  0.7923699999999999  0.2760400000000001  0.68237  1.0000
  N   N116      1.0  0.86237  0.26399  0.70702  1.0000
  N   N117      1.0  0.65056  0.24989000000000006  0.61786  1.0000
  N   N118      1.0  0.7057  0.26950000000000013  0.5938700000000001  1.0000
  N   N119      1.0  0.71232  0.24074000000000015  0.5533000000000002  1.0000
  N   N120      1.0  0.6604399999999999  0.2009900000000001  0.5492100000000002  1.0000
  N   N121      1.0  0.67608  0.34537  0.50156  1.0000
  N   N122      1.0  0.7333599999999997  0.3228400000000002  0.5233300000000002  1.0000
  N   N123      1.0  0.7381  0.35056  0.5648  1.0000
  N   N124      1.0  0.68863  0.39202000000000015  0.5705700000000002  1.0000
  N   N125      1.0  0.92323  0.27894  0.54082  1.0000
  N   N126      1.0  0.91088  0.2982400000000001  0.58401  1.0000
  N   N127      1.0  0.0003799999999999813  0.30876000000000015  0.6031000000000002  1.0000
  N   N128      1.0  0.07534999999999997  0.29685  0.57391  1.0000
  Cl  Cl7       1.0  0.7140899999999998  0.08740000000000006  0.37896  1.0000
  Cl  Cl8       1.0  0.87191  0.3979900000000001  0.64603  1.0000
  C   C29       1.0  0.9425899999999998  0.29287  0.70785  1.0000
  C   C30       1.0  0.62167  0.20735000000000012  0.5896800000000002  1.0000
  C   C31       1.0  0.64877  0.3889100000000001  0.5318400000000002  1.0000
  C   C32       1.0  0.030449999999999987  0.28046000000000015  0.5347100000000002  1.0000
  C   C33       1.0  0.52124  0.23292  0.02285  1.0000
  C   C34       1.0  0.57981  0.27605000000000013  0.031630000000000054  1.0000
  C   C35       1.0  0.53511  0.3265100000000001  0.03950000000000032  1.0000
  C   C36       1.0  0.49799  0.33254000000000017  0.9966800000000002  1.0000
  C   C37       1.0  0.45769  0.3410100000000001  0.07731  1.0000
  C   C38       1.0  0.6847699999999998  0.27139  0.020389999999999908  1.0000
  C   C39       1.0  0.7329699999999999  0.22620999999999997  0.004070000000000018  1.0000
  C   C40       1.0  0.8201899999999999  0.2192500000000001  0.97188  1.0000
  C   C41       1.0  0.9279599999999999  0.20925000000000007  0.98733  1.0000
  N   N129      1.0  0.9948199999999999  0.19186000000000006  0.9490100000000001  1.0000
  C   C42       1.0  0.68359  0.18663000000000005  0.0085  1.0000
  C   C43       1.0  0.58051  0.1904  0.02311  1.0000
  C   C44       1.0  0.53406  0.14321000000000006  0.02463  1.0000
  C   C45       1.0  0.50683  0.10911000000000004  0.9792300000000002  1.0000
  C   C46       1.0  0.6078399999999999  0.11607  0.046690000000000016  1.0000
  H   H1        1.0  0.59711  0.3532200000000001  0.0507899999999999  1.0000
  H   H2        1.0  0.5607099999999998  0.3208400000000002  0.9714300000000002  1.0000
  H   H3        1.0  0.42978  0.3112400000000002  0.9838000000000002  1.0000
  H   H4        1.0  0.48005999999999993  0.37085  0.0013300000000000534  1.0000
  H   H5        1.0  0.3991599999999999  0.3135100000000001  0.07195000000000003  1.0000
  H   H6        1.0  0.49722  0.3430400000000001  0.10814  1.0000
  H   H7        1.0  0.42196  0.37713000000000013  0.08122000000000007  1.0000
  H   H8        1.0  0.7258299999999998  0.3025  0.018380000000000063  1.0000
  H   H9        1.0  0.82449  0.2517  0.96151  1.0000
  H   H10       1.0  0.8005599999999998  0.18895000000000015  0.9420500000000003  1.0000
  H   H11       1.0  0.92252  0.18044000000000004  0.0014200000000000005  1.0000
  H   H12       1.0  0.9755299999999999  0.15676999999999994  0.93066  1.0000
  H   H13       1.0  0.9754099999999999  0.21167000000000005  0.9284200000000001  1.0000
  H   H14       1.0  0.7213899999999999  0.1516800000000001  0.9964700000000001  1.0000
  H   H15       1.0  0.4625999999999999  0.1513  0.04436  1.0000
  H   H16       1.0  0.4889999999999999  0.07277  0.9808800000000001  1.0000
  H   H17       1.0  0.57176  0.10472000000000001  0.95543  1.0000
  H   H18       1.0  0.4368999999999999  0.12299000000000007  0.9673700000000001  1.0000
  H   H19       1.0  0.6650199999999998  0.09288000000000002  0.022730000000000007  1.0000
  H   H20       1.0  0.565  0.09201000000000001  0.06045000000000001  1.0000
  H   H21       1.0  0.65055  0.14164  0.07351  1.0000
  C   C47       1.0  0.09473999999999999  0.7082100000000002  0.0014900000000000004  1.0000
  C   C48       1.0  0.14982  0.6765700000000001  0.020830000000000008  1.0000
  C   C49       1.0  0.12251999999999995  0.6242900000000002  0.0195  1.0000
  C   C50       1.0  0.12371999999999996  0.62003  0.06555000000000002  1.0000
  C   C51       1.0  0.02691000000000001  0.59976  0.9949400000000002  1.0000
  C   C52       1.0  0.24655  0.69115  0.03943  1.0000
  C   C53       1.0  0.29048999999999997  0.7341300000000002  0.03958  1.0000
  C   C54       1.0  0.3903  0.7499800000000002  0.0636  1.0000
  C   C55       1.0  0.47374  0.7690800000000001  0.03863000000000001  1.0000
  N   N130      1.0  0.49707  0.73406  0.9959300000000001  1.0000
  C   C56       1.0  0.24064999999999992  0.7623300000000002  0.01819  1.0000
  C   C57       1.0  0.15029999999999993  0.7475000000000003  0.9943600000000001  1.0000
  C   C58       1.0  0.1244  0.7695600000000002  0.95738  1.0000
  C   C59       1.0  0.19326  0.81164  0.9558000000000001  1.0000
  C   C60       1.0  0.13297  0.7314800000000002  0.91129  1.0000
  H   H22       1.0  0.18734999999999993  0.5998600000000002  0.00203  1.0000
  H   H23       1.0  0.07825  0.58915  0.06768000000000003  1.0000
  H   H24       1.0  0.20374  0.61267  0.07433  1.0000
  H   H25       1.0  0.09424  0.65434  0.08975  1.0000
  H   H26       1.0  0.041009999999999984  0.58782  0.9591700000000002  1.0000
  H   H27       1.0  0.01177  0.5655  0.001579999999999915  1.0000
  H   H28       1.0  0.95631  0.6228700000000001  0.004360000000000002  1.0000
  H   H29       1.0  0.2902899999999999  0.6680800000000002  0.053580000000000017  1.0000
  H   H30       1.0  0.42606  0.7197000000000002  0.07275  1.0000
  H   H31       1.0  0.36823  0.77873  0.09464000000000003  1.0000
  H   H32       1.0  0.4404999999999999  0.8014200000000002  0.03214  1.0000
  H   H33       1.0  0.48579999999999995  0.6988800000000001  0.9956600000000001  1.0000
  H   H34       1.0  0.5711599999999998  0.7375700000000002  0.9866100000000001  1.0000
  H   H35       1.0  0.27812999999999993  0.7944400000000003  0.01783  1.0000
  H   H36       1.0  0.04388000000000001  0.78409  0.9620800000000003  1.0000
  H   H37       1.0  0.16675999999999996  0.8271800000000004  0.9304100000000001  1.0000
  H   H38       1.0  0.2747899999999999  0.7986000000000001  0.9479600000000001  1.0000
  H   H39       1.0  0.19233999999999998  0.8415500000000002  0.9867100000000001  1.0000
  H   H40       1.0  0.16625999999999994  0.7460900000000003  0.88646  1.0000
  H   H41       1.0  0.05519999999999998  0.7196800000000002  0.89905  1.0000
  H   H42       1.0  0.18339  0.7001200000000002  0.91123  1.0000
  C   C61       1.0  0.54337  0.7527100000000002  0.5162900000000001  1.0000
  C   C62       1.0  0.6116  0.71056  0.50354  1.0000
  C   C63       1.0  0.5817900000000001  0.65886  0.48022  1.0000
  C   C64       1.0  0.5632899999999998  0.6319200000000003  0.51293  1.0000
  C   C65       1.0  0.4922199999999999  0.6551900000000003  0.44984  1.0000
  C   C66       1.0  0.71291  0.7150000000000002  0.5186  1.0000
  C   C67       1.0  0.75171  0.76019  0.53941  1.0000
  C   C68       1.0  0.84548  0.7645  0.5668400000000002  1.0000
  C   C69       1.0  0.9404999999999998  0.7833400000000003  0.5491300000000002  1.0000
  N   N131      1.0  0.007999999999999988  0.8058100000000001  0.5851600000000002  1.0000
  C   C70       1.0  0.6966299999999997  0.80109  0.53774  1.0000
  C   C71       1.0  0.5961699999999998  0.7971100000000002  0.52073  1.0000
  C   C72       1.0  0.54217  0.84396  0.5195  1.0000
  C   C73       1.0  0.49714  0.8745800000000004  0.5640900000000002  1.0000
  C   C74       1.0  0.61357  0.8749900000000004  0.5017  1.0000
  H   H43       1.0  0.64789  0.63968  0.45861000000000013  1.0000
  H   H44       1.0  0.6349599999999999  0.62976  0.53078  1.0000
  H   H45       1.0  0.5031199999999999  0.6511300000000002  0.53734  1.0000
  H   H46       1.0  0.54068  0.59432  0.4953700000000001  1.0000
  H   H47       1.0  0.5103799999999998  0.6728200000000002  0.42508  1.0000
  H   H48       1.0  0.47494  0.61668  0.43255  1.0000
  H   H49       1.0  0.42529  0.67336  0.46973  1.0000
  H   H50       1.0  0.76042  0.68288  0.51575  1.0000
  H   H51       1.0  0.86701  0.7291300000000001  0.57022  1.0000
  H   H52       1.0  0.8231899999999998  0.7888700000000001  0.60015  1.0000
  H   H53       1.0  0.91243  0.8115100000000002  0.5355300000000002  1.0000
  H   H54       1.0  0.99715  0.79023  0.60963  1.0000
  H   H55       1.0  0.9807999999999998  0.8416100000000002  0.59975  1.0000
  H   H56       1.0  0.7295799999999998  0.8362000000000002  0.55208  1.0000
  H   H57       1.0  0.4779799999999999  0.83513  0.4969500000000001  1.0000
  H   H58       1.0  0.47001  0.91076  0.56335  1.0000
  H   H59       1.0  0.5553700000000001  0.8797000000000003  0.59003  1.0000
  H   H60       1.0  0.42904  0.8569100000000001  0.57209  1.0000
  H   H61       1.0  0.66685  0.8957500000000003  0.52711  1.0000
  H   H62       1.0  0.5668299999999997  0.9015200000000001  0.49114  1.0000
  H   H63       1.0  0.6604  0.8521100000000001  0.47326  1.0000
  C   C75       1.0  0.09489999999999998  0.29119  0.49941000000000013  1.0000
  C   C76       1.0  0.13855999999999996  0.33918000000000004  0.51175  1.0000
  C   C77       1.0  0.08318  0.3870500000000001  0.53814  1.0000
  C   C78       1.0  0.96573  0.38588  0.53837  1.0000
  C   C79       1.0  0.12437000000000001  0.4085100000000001  0.58468  1.0000
  C   C80       1.0  0.24282999999999996  0.34435  0.50086  1.0000
  C   C81       1.0  0.30226  0.30545000000000005  0.4744600000000001  1.0000
  C   C82       1.0  0.42018999999999995  0.30618  0.47183000000000014  1.0000
  C   C83       1.0  0.47644999999999993  0.27382000000000006  0.4962600000000001  1.0000
  N   N132      1.0  0.52239  0.3031000000000001  0.53667  1.0000
  C   C84       1.0  0.25141  0.2640400000000001  0.4520800000000001  1.0000
  C   C85       1.0  0.15636999999999993  0.2533200000000001  0.4683100000000001  1.0000
  C   C86       1.0  0.14773  0.2001900000000001  0.4630700000000001  1.0000
  C   C87       1.0  0.14022  0.16817000000000001  0.4148900000000001  1.0000
  C   C88       1.0  0.24374999999999994  0.18525  0.48461  1.0000
  H   H64       1.0  0.10174000000000001  0.41375  0.52146  1.0000
  H   H65       1.0  0.9309899999999999  0.42241  0.54321  1.0000
  H   H66       1.0  0.93848  0.3609200000000001  0.5075100000000002  1.0000
  H   H67       1.0  0.9368899999999999  0.3741700000000001  0.56494  1.0000
  H   H68       1.0  0.20868  0.41384000000000004  0.5839600000000003  1.0000
  H   H69       1.0  0.08647  0.4445000000000001  0.60133  1.0000
  H   H70       1.0  0.10976000000000007  0.3849300000000001  0.60462  1.0000
  H   H71       1.0  0.27877  0.3790400000000001  0.5136  1.0000
  H   H72       1.0  0.44478  0.34407000000000015  0.4854100000000001  1.0000
  H   H73       1.0  0.44267999999999996  0.2939700000000001  0.4366100000000001  1.0000
  H   H74       1.0  0.4156899999999999  0.2524100000000001  0.50559  1.0000
  H   H75       1.0  0.53268  0.2811200000000001  0.55616  1.0000
  H   H76       1.0  0.4651099999999999  0.3284800000000001  0.5532  1.0000
  H   H77       1.0  0.29799  0.23563  0.42929  1.0000
  H   H78       1.0  0.07633999999999998  0.19506000000000012  0.47943000000000013  1.0000
  H   H79       1.0  0.14468999999999996  0.12928000000000006  0.41193  1.0000
  H   H80       1.0  0.20293  0.17408  0.39384  1.0000
  H   H81       1.0  0.06550999999999996  0.17523000000000005  0.4015800000000001  1.0000
  H   H82       1.0  0.31393  0.18013000000000004  0.4634700000000001  1.0000
  H   H83       1.0  0.23644  0.15149000000000004  0.49119  1.0000
  H   H84       1.0  0.25853999999999994  0.21302  0.51659  1.0000
  C   C89       1.0  0.50851  0.59235  0.010390000000000003  1.0000
  C   C90       1.0  0.5111699999999999  0.5775500000000002  0.04864000000000002  1.0000
  C   C91       1.0  0.59386  0.59146  0.08317000000000002  1.0000
  C   C92       1.0  0.69879  0.5696300000000002  0.06263  1.0000
  C   C93       1.0  0.5928  0.6457400000000002  0.11006000000000003  1.0000
  C   C94       1.0  0.4504099999999999  0.53894  0.05059  1.0000
  C   C95       1.0  0.39749  0.51087  0.014500000000000002  1.0000
  C   C96       1.0  0.37766  0.45851  0.010110000000000065  1.0000
  C   C97       1.0  0.27032  0.4484300000000001  0.02519000000000005  1.0000
  N   N133      1.0  0.19024999999999995  0.46367000000000014  0.000420000000000087  1.0000
  C   C98       1.0  0.3889299999999999  0.52663  0.97836  1.0000
  C   C99       1.0  0.43676  0.56887  0.9767  1.0000
  C   C100      1.0  0.41845  0.58354  0.93567  1.0000
  C   C101      1.0  0.47465999999999986  0.5477300000000002  0.8956200000000001  1.0000
  C   C102      1.0  0.30395  0.58877  0.92592  1.0000
  H   H85       1.0  0.57848  0.57338  0.10802  1.0000
  H   H86       1.0  0.6892599999999998  0.5367300000000002  0.033790000000000014  1.0000
  H   H87       1.0  0.7433499999999998  0.5954000000000003  0.05162000000000001  1.0000
  H   H88       1.0  0.74297  0.5572300000000002  0.0863  1.0000
  H   H89       1.0  0.52729  0.6657900000000002  0.10134000000000001  1.0000
  H   H90       1.0  0.5838199999999999  0.65075  0.14543000000000006  1.0000
  H   H91       1.0  0.6656499999999999  0.6628300000000003  0.10604000000000002  1.0000
  H   H92       1.0  0.45625999999999994  0.5255900000000002  0.07814000000000003  1.0000
  H   H93       1.0  0.4354499999999999  0.4468300000000001  0.030080000000000006  1.0000
  H   H94       1.0  0.3925699999999999  0.43524000000000024  0.9756200000000003  1.0000
  H   H95       1.0  0.25978999999999997  0.47036  0.060440000000000056  1.0000
  H   H96       1.0  0.19574999999999995  0.4418700000000002  0.9676400000000002  1.0000
  H   H97       1.0  0.11816  0.45800000000000013  0.01243  1.0000
  H   H98       1.0  0.34915  0.5040200000000002  0.9501200000000002  1.0000
  H   H99       1.0  0.44641999999999993  0.6202100000000004  0.9402700000000003  1.0000
  H   H100      1.0  0.47623  0.5629100000000002  0.8682400000000002  1.0000
  H   H101      1.0  0.43557  0.5125400000000002  0.8845800000000003  1.0000
  H   H102      1.0  0.55563  0.5408000000000002  0.9033800000000002  1.0000
  H   H103      1.0  0.26059999999999994  0.5558800000000003  0.9237500000000002  1.0000
  H   H104      1.0  0.2958599999999999  0.5961500000000001  0.8945100000000001  1.0000
  H   H105      1.0  0.2689499999999999  0.6205900000000001  0.9512900000000002  1.0000
  C   C103      1.0  0.56277  0.42224000000000017  0.5275400000000002  1.0000
  C   C104      1.0  0.4912  0.44466000000000006  0.5635700000000002  1.0000
  C   C105      1.0  0.5079799999999999  0.45217000000000024  0.6125900000000002  1.0000
  C   C106      1.0  0.4907799999999999  0.40719  0.62626  1.0000
  C   C107      1.0  0.60703  0.47902000000000017  0.6308400000000002  1.0000
  C   C108      1.0  0.39981999999999995  0.4667000000000001  0.55516  1.0000
  C   C109      1.0  0.38490999999999986  0.47508000000000017  0.5158600000000001  1.0000
  C   C110      1.0  0.30702999999999997  0.51348  0.51373  1.0000
  C   C111      1.0  0.34672  0.5646500000000001  0.53943  1.0000
  N   N134      1.0  0.3235  0.57809  0.58626  1.0000
  C   C112      1.0  0.45397  0.45456  0.4812500000000001  1.0000
  C   C113      1.0  0.54403  0.4291100000000001  0.48633  1.0000
  C   C114      1.0  0.62117  0.4133  0.44789  1.0000
  C   C115      1.0  0.5788899999999999  0.37197000000000013  0.4101100000000001  1.0000
  C   C116      1.0  0.6507  0.4559600000000001  0.4324000000000001  1.0000
  H   H106      1.0  0.44560999999999995  0.4776400000000001  0.63148  1.0000
  H   H107      1.0  0.418  0.39026  0.61233  1.0000
  H   H108      1.0  0.55467  0.3798400000000001  0.61662  1.0000
  H   H109      1.0  0.4822  0.41822  0.6624  1.0000
  H   H110      1.0  0.6480299999999999  0.49071000000000015  0.6058200000000002  1.0000
  H   H111      1.0  0.5880700000000001  0.5121300000000001  0.65902  1.0000
  H   H112      1.0  0.6605299999999998  0.45632000000000017  0.6431900000000003  1.0000
  H   H113      1.0  0.3416799999999999  0.4810600000000001  0.5807  1.0000
  H   H114      1.0  0.23085  0.50724  0.52665  1.0000
  H   H115      1.0  0.2956399999999999  0.51003  0.4789  1.0000
  H   H116      1.0  0.4317799999999999  0.56409  0.53508  1.0000
  H   H117      1.0  0.24861999999999998  0.56888  0.59198  1.0000
  H   H118      1.0  0.37598  0.56068  0.6009200000000002  1.0000
  H   H119      1.0  0.43918  0.46029000000000014  0.45040000000000013  1.0000
  H   H120      1.0  0.6942499999999998  0.3998200000000001  0.4576300000000001  1.0000
  H   H121      1.0  0.6355099999999999  0.36024  0.38243  1.0000
  H   H122      1.0  0.50517  0.38308000000000014  0.39833000000000013  1.0000
  H   H123      1.0  0.56559  0.34049  0.42119  1.0000
  H   H124      1.0  0.58453  0.47033000000000014  0.41832  1.0000
  H   H125      1.0  0.71151  0.44403000000000015  0.4063900000000001  1.0000
  H   H126      1.0  0.68068  0.4858000000000002  0.4601900000000001  1.0000
  C   C117      1.0  0.10757999999999997  0.06281  0.017140000000000006  1.0000
  C   C118      1.0  0.00035999999999991545  0.05527  0.023690000000000006  1.0000
  C   C119      1.0  0.9111599999999999  0.08633000000000003  0.01711  1.0000
  C   C120      1.0  0.90573  0.13507  0.054210000000000015  1.0000
  C   C121      1.0  0.9101  0.08599000000000012  0.9697300000000002  1.0000
  C   C122      1.0  0.97072  0.016160000000000008  0.036600000000000014  1.0000
  C   C123      1.0  0.041569999999999975  0.9840000000000002  0.04455  1.0000
  C   C124      1.0  0.9999199999999998  0.9471900000000002  0.06427  1.0000
  C   C125      1.0  0.046640000000000015  0.8954400000000001  0.04471  1.0000
  N   N135      1.0  0.14860000000000004  0.89289  0.06349  1.0000
  C   C126      1.0  0.14675  0.99014  0.03791  1.0000
  C   C127      1.0  0.18117  0.02848  0.02367  1.0000
  C   C128      1.0  0.29649  0.031060000000000008  0.014840000000000004  1.0000
  C   C129      1.0  0.36082  0.03254  0.05475  1.0000
  C   C130      1.0  0.3329399999999999  0.9886900000000002  0.9747800000000001  1.0000
  H   H127      1.0  0.83669  0.06987  0.020640000000000006  1.0000
  H   H128      1.0  0.89327  0.12859000000000004  0.08585000000000002  1.0000
  H   H129      1.0  0.97731  0.15529  0.05692000000000001  1.0000
  H   H130      1.0  0.8392999999999998  0.15788000000000005  0.05071000000000001  1.0000
  H   H131      1.0  0.9777899999999998  0.10278000000000008  0.9615400000000002  1.0000
  H   H132      1.0  0.9105799999999997  0.047970000000000124  0.9473900000000002  1.0000
  H   H133      1.0  0.8409799999999997  0.1043500000000001  0.9624400000000001  1.0000
  H   H134      1.0  0.88955  0.01098  0.04152  1.0000
  H   H135      1.0  0.9147699999999999  0.9450700000000001  0.06003  1.0000
  H   H136      1.0  0.010790000000000074  0.96107  0.10019000000000002  1.0000
  H   H137      1.0  0.05312999999999999  0.8868700000000002  0.008790000000000003  1.0000
  H   H138      1.0  0.1442000000000001  0.9088500000000003  0.09749000000000002  1.0000
  H   H139      1.0  0.17047999999999974  0.8568  0.05835000000000001  1.0000
  H   H140      1.0  0.2023699999999999  0.9647300000000002  0.043420000000000014  1.0000
  H   H141      1.0  0.3131499999999999  0.06466  0.007489999999999997  1.0000
  H   H142      1.0  0.44334  0.03598  0.04756  1.0000
  H   H143      1.0  0.3545099999999999  0.9990300000000001  0.06349  1.0000
  H   H144      1.0  0.33552  0.06398  0.08324  1.0000
  H   H145      1.0  0.32434999999999997  0.9534200000000003  0.9803800000000001  1.0000
  H   H146      1.0  0.4153799999999999  0.9922900000000003  0.9671300000000003  1.0000
  H   H147      1.0  0.28725  0.9888000000000001  0.94604  1.0000
  C   C131      1.0  0.9083699999999998  0.07893000000000008  0.5237300000000003  1.0000
  C   C132      1.0  0.0058899999999999925  0.07748000000000006  0.5435300000000002  1.0000
  C   C133      1.0  0.09772  0.1034  0.53407  1.0000
  C   C134      1.0  0.11572999999999997  0.08559999999999997  0.48395  1.0000
  C   C135      1.0  0.08926999999999996  0.15841  0.55721  1.0000
  C   C136      1.0  0.033399999999999985  0.03797999999999989  0.55714  1.0000
  C   C137      1.0  0.98767  0.99391  0.53778  1.0000
  C   C138      1.0  0.05847000000000001  0.94887  0.5253400000000003  1.0000
  C   C139      1.0  0.01984999999999998  0.9056300000000003  0.53772  1.0000
  N   N136      1.0  0.96268  0.8724900000000002  0.50193  1.0000
  C   C140      1.0  0.8897499999999998  0.9946100000000004  0.5199900000000002  1.0000
  C   C141      1.0  0.84545  0.03796  0.51634  1.0000
  C   C142      1.0  0.7339499999999998  0.038750000000000014  0.50225  1.0000
  C   C143      1.0  0.71962  0.004420000000000028  0.4558100000000001  1.0000
  C   C144      1.0  0.6606899999999998  0.026520000000000137  0.5345000000000002  1.0000
  H   H148      1.0  0.16892  0.09183000000000002  0.54755  1.0000
  H   H149      1.0  0.0807  0.049920000000000055  0.4680700000000001  1.0000
  H   H150      1.0  0.08016999999999999  0.11120000000000005  0.4691500000000001  1.0000
  H   H151      1.0  0.19890999999999992  0.07851000000000005  0.4751200000000001  1.0000
  H   H152      1.0  0.04297999999999999  0.16704000000000008  0.5880100000000003  1.0000
  H   H153      1.0  0.16695999999999997  0.17332000000000006  0.56588  1.0000
  H   H154      1.0  0.052819999999999985  0.17763000000000007  0.53699  1.0000
  H   H155      1.0  0.10712999999999998  0.03767000000000014  0.5725600000000002  1.0000
  H   H156      1.0  0.13472999999999996  0.9587699999999999  0.54067  1.0000
  H   H157      1.0  0.07533999999999995  0.93783  0.48964  1.0000
  H   H158      1.0  0.9682899999999999  0.9188000000000004  0.5671700000000001  1.0000
  H   H159      1.0  0.8911  0.8876500000000003  0.49838  1.0000
  H   H160      1.0  0.004299999999999989  0.8638300000000001  0.47236  1.0000
  H   H161      1.0  0.8487499999999999  0.9616300000000004  0.5075500000000001  1.0000
  H   H162      1.0  0.71052  0.07560000000000004  0.5023000000000001  1.0000
  H   H163      1.0  0.63949  0.008680000000000028  0.44545  1.0000
  H   H164      1.0  0.73336  0.96602  0.45376  1.0000
  H   H165      1.0  0.7733999999999999  0.013140000000000016  0.4327000000000001  1.0000
  H   H166      1.0  0.6776  0.9896100000000002  0.53596  1.0000
  H   H167      1.0  0.57945  0.028159999999999984  0.52439  1.0000
  H   H168      1.0  0.66817  0.05309000000000033  0.5677400000000002  1.0000
  C   C145      1.0  0.58193  0.14370000000000002  0.25018  1.0000
  C   C146      1.0  0.4724499999999999  0.15197  0.25429  1.0000
  C   C147      1.0  0.40833999999999987  0.15249  0.2941  1.0000
  C   C148      1.0  0.41885  0.10373000000000003  0.30252  1.0000
  C   C149      1.0  0.42472999999999994  0.19693000000000002  0.3341800000000001  1.0000
  C   C150      1.0  0.41779999999999995  0.15617000000000003  0.21814  1.0000
  C   C151      1.0  0.467  0.14896000000000006  0.17785  1.0000
  C   C152      1.0  0.41245  0.16152000000000002  0.14170000000000005  1.0000
  C   C153      1.0  0.4358299999999999  0.21353000000000005  0.14293000000000006  1.0000
  N   N137      1.0  0.5397899999999999  0.21635000000000001  0.12597  1.0000
  C   C154      1.0  0.56907  0.13189  0.17196  1.0000
  C   C155      1.0  0.62773  0.12904000000000004  0.20733000000000004  1.0000
  C   C156      1.0  0.7403599999999999  0.11128  0.19842  1.0000
  C   C157      1.0  0.74908  0.05963000000000002  0.16588000000000006  1.0000
  C   C158      1.0  0.80319  0.14632  0.18241000000000004  1.0000
  H   H169      1.0  0.3251599999999999  0.15565000000000007  0.2871200000000001  1.0000
  H   H170      1.0  0.36492  0.07783000000000002  0.28132  1.0000
  H   H171      1.0  0.4972  0.08686000000000003  0.29404  1.0000
  H   H172      1.0  0.39857  0.10755  0.33691  1.0000
  H   H173      1.0  0.4051099999999999  0.2303800000000001  0.32634000000000013  1.0000
  H   H174      1.0  0.37254  0.19594000000000006  0.36116000000000004  1.0000
  H   H175      1.0  0.5042799999999998  0.19941000000000006  0.3457900000000001  1.0000
  H   H176      1.0  0.33609999999999995  0.16552  0.22127000000000005  1.0000
  H   H177      1.0  0.328  0.15828  0.14537  1.0000
  H   H178      1.0  0.43558  0.13516  0.10961  1.0000
  H   H179      1.0  0.43036  0.23767  0.17754  1.0000
  H   H180      1.0  0.54952  0.25150000000000006  0.12507  1.0000
  H   H181      1.0  0.5936199999999999  0.21219000000000007  0.14841000000000004  1.0000
  H   H182      1.0  0.60477  0.12293000000000004  0.13986000000000007  1.0000
  H   H183      1.0  0.77665  0.10887000000000005  0.22857000000000005  1.0000
  H   H184      1.0  0.8297299999999999  0.045200000000000025  0.16449000000000005  1.0000
  H   H185      1.0  0.7273399999999998  0.058580000000000014  0.13248  1.0000
  H   H186      1.0  0.69803  0.03561  0.17679  1.0000
  H   H187      1.0  0.7758  0.14759  0.15044  1.0000
  H   H188      1.0  0.88603  0.13497  0.17886  1.0000
  H   H189      1.0  0.7961499999999998  0.18352  0.20613000000000006  1.0000
  C   C159      1.0  0.56443  0.8363400000000002  0.27911  1.0000
  C   C160      1.0  0.4595899999999999  0.8228800000000002  0.27779000000000004  1.0000
  C   C161      1.0  0.39873999999999993  0.8052000000000002  0.23580000000000007  1.0000
  C   C162      1.0  0.39286999999999994  0.84305  0.21232  1.0000
  C   C163      1.0  0.43664000000000003  0.75548  0.20530000000000004  1.0000
  C   C164      1.0  0.40781  0.8264000000000001  0.31725  1.0000
  C   C165      1.0  0.45611  0.8445200000000002  0.35747  1.0000
  C   C166      1.0  0.4106  0.83581  0.39756  1.0000
  C   C167      1.0  0.4479499999999999  0.78549  0.39882  1.0000
  N   N138      1.0  0.5511  0.78753  0.4169400000000001  1.0000
  C   C168      1.0  0.55311  0.8645800000000002  0.35881  1.0000
  C   C169      1.0  0.6082399999999999  0.86089  0.32003  1.0000
  C   C170      1.0  0.7161  0.88114  0.3228400000000001  1.0000
  C   C171      1.0  0.7109  0.9361500000000004  0.3444800000000001  1.0000
  C   C172      1.0  0.78974  0.85611  0.34628000000000003  1.0000
  H   H190      1.0  0.3177  0.80059  0.24454000000000006  1.0000
  H   H191      1.0  0.36445  0.87853  0.23531  1.0000
  H   H192      1.0  0.46922999999999987  0.8476300000000002  0.199  1.0000
  H   H193      1.0  0.33816999999999997  0.8317000000000004  0.18492000000000006  1.0000
  H   H194      1.0  0.4453499999999999  0.72978  0.22401000000000004  1.0000
  H   H195      1.0  0.37915  0.7410400000000001  0.1795  1.0000
  H   H196      1.0  0.51074  0.7573800000000003  0.18875000000000006  1.0000
  H   H197      1.0  0.3308499999999999  0.8127000000000003  0.3167100000000001  1.0000
  H   H198      1.0  0.32495  0.8376800000000002  0.39634000000000014  1.0000
  H   H199      1.0  0.4331999999999999  0.8645600000000003  0.42781000000000013  1.0000
  H   H200      1.0  0.45209  0.76003  0.3645800000000001  1.0000
  H   H201      1.0  0.57221  0.7533300000000004  0.41859000000000013  1.0000
  H   H202      1.0  0.60386  0.7941300000000001  0.39508  1.0000
  H   H203      1.0  0.58841  0.8803800000000004  0.3902200000000001  1.0000
  H   H204      1.0  0.75025  0.8749700000000002  0.28983  1.0000
  H   H205      1.0  0.7893899999999999  0.9509700000000002  0.34761  1.0000
  H   H206      1.0  0.67351  0.94595  0.3771200000000001  1.0000
  H   H207      1.0  0.66454  0.95316  0.3243200000000001  1.0000
  H   H208      1.0  0.7678099999999997  0.8652100000000001  0.38135  1.0000
  H   H209      1.0  0.8700799999999999  0.86743  0.3438400000000001  1.0000
  H   H210      1.0  0.7882  0.8161499999999999  0.33057  1.0000
  C   C173      1.0  0.46379  0.84379  0.7876  1.0000
  C   C174      1.0  0.5346  0.8106600000000003  0.7969100000000002  1.0000
  C   C175      1.0  0.58638  0.76813  0.76132  1.0000
  C   C176      1.0  0.51207  0.7281800000000002  0.7391800000000002  1.0000
  C   C177      1.0  0.6439  0.78506  0.7274600000000002  1.0000
  C   C178      1.0  0.5604099999999999  0.8178800000000004  0.8407600000000002  1.0000
  C   C179      1.0  0.5214800000000002  0.8582000000000001  0.87468  1.0000
  C   C180      1.0  0.53001  0.86018  0.92213  1.0000
  C   C181      1.0  0.64273  0.8624  0.9385300000000002  1.0000
  N   N139      1.0  0.65417  0.9056400000000003  0.9767900000000002  1.0000
  C   C182      1.0  0.4672999999999999  0.8948900000000003  0.8639400000000003  1.0000
  C   C183      1.0  0.43861  0.8884100000000001  0.8205500000000001  1.0000
  C   C184      1.0  0.3790199999999999  0.9287200000000002  0.8096800000000002  1.0000
  C   C185      1.0  0.2748  0.9408900000000002  0.8340500000000002  1.0000
  C   C186      1.0  0.44371  0.9738500000000003  0.81866  1.0000
  H   H211      1.0  0.6460099999999998  0.7510000000000001  0.7764600000000003  1.0000
  H   H212      1.0  0.4640299999999999  0.71917  0.76392  1.0000
  H   H213      1.0  0.46164  0.7392800000000002  0.7165600000000002  1.0000
  H   H214      1.0  0.55669  0.69501  0.7196600000000002  1.0000
  H   H215      1.0  0.69929  0.81327  0.74392  1.0000
  H   H216      1.0  0.68795  0.75408  0.70415  1.0000
  H   H217      1.0  0.5897099999999997  0.80011  0.7085100000000002  1.0000
  H   H218      1.0  0.60848  0.7911100000000001  0.8486800000000002  1.0000
  H   H219      1.0  0.49123  0.82811  0.9257700000000002  1.0000
  H   H220      1.0  0.48359999999999986  0.8918200000000003  0.94342  1.0000
  H   H221      1.0  0.696  0.8652800000000005  0.9123900000000003  1.0000
  H   H222      1.0  0.61486  0.9013500000000003  0.003660000000000219  1.0000
  H   H223      1.0  0.7323199999999999  0.9092100000000001  0.98456  1.0000
  H   H224      1.0  0.44322  0.92764  0.88979  1.0000
  H   H225      1.0  0.36234  0.9174000000000002  0.77431  1.0000
  H   H226      1.0  0.28524  0.95714  0.86969  1.0000
  H   H227      1.0  0.22942999999999994  0.9077100000000002  0.82773  1.0000
  H   H228      1.0  0.23005000000000003  0.9672400000000001  0.82254  1.0000
  H   H229      1.0  0.45689  0.9904700000000004  0.8541700000000002  1.0000
  H   H230      1.0  0.40337000000000006  0.0008500000000000474  0.80644  1.0000
  H   H231      1.0  0.5194899999999998  0.9642500000000003  0.8012100000000002  1.0000
  C   C187      1.0  0.46088  0.14753000000000005  0.7548900000000002  1.0000
  C   C188      1.0  0.53693  0.18154  0.75455  1.0000
  C   C189      1.0  0.6052099999999998  0.20478000000000007  0.7932100000000002  1.0000
  C   C190      1.0  0.54755  0.2447900000000001  0.82914  1.0000
  C   C191      1.0  0.65643  0.16656000000000007  0.81017  1.0000
  C   C192      1.0  0.5516  0.1938000000000001  0.7163500000000003  1.0000
  C   C193      1.0  0.49910999999999994  0.1700500000000001  0.6782100000000002  1.0000
  C   C194      1.0  0.49055  0.19222000000000014  0.6421400000000003  1.0000
  C   C195      1.0  0.5673  0.16909000000000005  0.60348  1.0000
  N   N140      1.0  0.51243  0.13612  0.56693  1.0000
  C   C196      1.0  0.44511  0.12867  0.6761  1.0000
  C   C197      1.0  0.42658999999999997  0.11653000000000001  0.71416  1.0000
  C   C198      1.0  0.36375  0.07250000000000009  0.7117800000000002  1.0000
  C   C199      1.0  0.25606  0.07552999999999999  0.69335  1.0000
  C   C200      1.0  0.42222999999999994  0.02601999999999998  0.6848  1.0000
  H   H232      1.0  0.6695299999999997  0.22271  0.78202  1.0000
  H   H233      1.0  0.50885  0.27002000000000015  0.8144600000000002  1.0000
  H   H234      1.0  0.4908099999999999  0.22990000000000008  0.8466900000000003  1.0000
  H   H235      1.0  0.60158  0.26627  0.85353  1.0000
  H   H236      1.0  0.70681  0.14163000000000006  0.78404  1.0000
  H   H237      1.0  0.70498  0.1837400000000001  0.8386600000000002  1.0000
  H   H238      1.0  0.5981899999999998  0.14505  0.82015  1.0000
  H   H239      1.0  0.60056  0.2234100000000001  0.7167500000000002  1.0000
  H   H240      1.0  0.5006  0.23184000000000007  0.6566600000000001  1.0000
  H   H241      1.0  0.40970999999999996  0.18938000000000008  0.6305100000000002  1.0000
  H   H242      1.0  0.6282099999999999  0.14763  0.6137800000000001  1.0000
  H   H243      1.0  0.4610499999999999  0.15618000000000012  0.5542400000000002  1.0000
  H   H244      1.0  0.56538  0.11849  0.54195  1.0000
  H   H245      1.0  0.41142  0.1079900000000001  0.6454900000000002  1.0000
  H   H246      1.0  0.35282  0.0699300000000001  0.7451100000000003  1.0000
  H   H247      1.0  0.26079  0.07236999999999999  0.65823  1.0000
  H   H248      1.0  0.21622999999999998  0.11046  0.71167  1.0000
  H   H249      1.0  0.20873999999999995  0.04566  0.69656  1.0000
  H   H250      1.0  0.43077  0.02409  0.65007  1.0000
  H   H251      1.0  0.3794299999999999  0.9943100000000001  0.68629  1.0000
  H   H252      1.0  0.50003  0.024210000000000096  0.6983700000000003  1.0000
  C   C201      1.0  0.96149  0.67515  0.29685  1.0000
  C   C202      1.0  0.9698999999999998  0.70739  0.2720700000000001  1.0000
  C   C203      1.0  0.034510000000000006  0.75297  0.28447  1.0000
  C   C204      1.0  0.04516999999999999  0.7783200000000001  0.33387  1.0000
  C   C205      1.0  0.13945999999999997  0.7445800000000002  0.2599  1.0000
  C   C206      1.0  0.9171899999999997  0.6969700000000002  0.23276000000000005  1.0000
  C   C207      1.0  0.86006  0.65524  0.21696000000000004  1.0000
  C   C208      1.0  0.8174399999999998  0.63946  0.171  1.0000
  C   C209      1.0  0.89829  0.6303800000000003  0.13245  1.0000
  N   N141      1.0  0.0037599999999999743  0.6226800000000002  0.1453  1.0000
  C   C210      1.0  0.8363099999999999  0.6298600000000001  0.24557  1.0000
  C   C211      1.0  0.88006  0.6418900000000002  0.2873600000000001  1.0000
  C   C212      1.0  0.83632  0.62259  0.3223400000000001  1.0000
  C   C213      1.0  0.7916699999999999  0.6649300000000002  0.36123  1.0000
  C   C214      1.0  0.75229  0.5849700000000002  0.3066600000000001  1.0000
  H   H253      1.0  0.9902799999999998  0.7801800000000002  0.2735800000000001  1.0000
  H   H254      1.0  0.07224  0.8157  0.3398800000000001  1.0000
  H   H255      1.0  0.9694  0.7806000000000002  0.35093  1.0000
  H   H256      1.0  0.10245000000000001  0.75972  0.34857  1.0000
  H   H257      1.0  0.13958999999999996  0.7120100000000003  0.23021000000000005  1.0000
  H   H258      1.0  0.15522999999999995  0.7763400000000003  0.24933000000000005  1.0000
  H   H259      1.0  0.20358999999999997  0.7402500000000002  0.28097  1.0000
  H   H260      1.0  0.92769  0.7201900000000002  0.21329000000000004  1.0000
  H   H261      1.0  0.7580399999999998  0.6671200000000003  0.1699  1.0000
  H   H262      1.0  0.77514  0.60545  0.1654  1.0000
  H   H263      1.0  0.8796599999999998  0.59691  0.10613000000000003  1.0000
  H   H264      1.0  0.03370999999999989  0.6547200000000002  0.16580000000000006  1.0000
  H   H265      1.0  0.004820000000000042  0.5967500000000002  0.16127  1.0000
  H   H266      1.0  0.7836499999999998  0.6006200000000003  0.23457000000000006  1.0000
  H   H267      1.0  0.9000199999999999  0.60356  0.3330700000000001  1.0000
  H   H268      1.0  0.76355  0.6513000000000001  0.3875300000000001  1.0000
  H   H269      1.0  0.72595  0.6836400000000002  0.3508500000000001  1.0000
  H   H270      1.0  0.8505699999999998  0.6921800000000004  0.37545  1.0000
  H   H271      1.0  0.68376  0.6008000000000002  0.29518  1.0000
  H   H272      1.0  0.72668  0.5724000000000002  0.3339400000000001  1.0000
  H   H273      1.0  0.78312  0.55281  0.28002  1.0000
  C   C215      1.0  0.96948  0.3062600000000001  0.3691500000000001  1.0000
  C   C216      1.0  0.9381299999999999  0.3553200000000001  0.37762  1.0000
  C   C217      1.0  0.99061  0.3957500000000001  0.4124  1.0000
  C   C218      1.0  0.91947  0.4204500000000001  0.4517200000000001  1.0000
  C   C219      1.0  0.09462999999999999  0.37875  0.4256000000000001  1.0000
  C   C220      1.0  0.8907299999999998  0.36815000000000003  0.3438600000000001  1.0000
  C   C221      1.0  0.89158  0.33598  0.30086  1.0000
  C   C222      1.0  0.84254  0.3533700000000001  0.2658900000000001  1.0000
  C   C223      1.0  0.86269  0.3214800000000001  0.21777000000000005  1.0000
  N   N142      1.0  0.79042  0.3352700000000001  0.18900000000000003  1.0000
  C   C224      1.0  0.94647  0.29144  0.2917800000000001  1.0000
  C   C225      1.0  0.9931899999999998  0.2781700000000001  0.32523000000000013  1.0000
  C   C226      1.0  0.07740999999999998  0.23795  0.31416  1.0000
  C   C227      1.0  0.03849999999999975  0.18776000000000004  0.28774  1.0000
  C   C228      1.0  0.16813  0.2511000000000001  0.28948  1.0000
  H   H274      1.0  0.010969999999999919  0.42418000000000017  0.3978700000000001  1.0000
  H   H275      1.0  0.86843  0.44773000000000013  0.4444400000000001  1.0000
  H   H276      1.0  0.87117  0.39386000000000004  0.4600100000000001  1.0000
  H   H277      1.0  0.9654399999999997  0.4405500000000001  0.4801700000000001  1.0000
  H   H278      1.0  0.14636000000000005  0.3633  0.39641  1.0000
  H   H279      1.0  0.1345199999999997  0.40946  0.4488100000000001  1.0000
  H   H280      1.0  0.08247000000000003  0.3502500000000002  0.44052000000000013  1.0000
  H   H281      1.0  0.8602099999999999  0.40482  0.35054  1.0000
  H   H282      1.0  0.8694199999999997  0.39038000000000006  0.2696800000000001  1.0000
  H   H283      1.0  0.7580099999999999  0.3569200000000001  0.27262  1.0000
  H   H284      1.0  0.84947  0.28285  0.21381000000000006  1.0000
  H   H285      1.0  0.7161699999999999  0.32558  0.19507  1.0000
  H   H286      1.0  0.7894699999999999  0.37287  0.19595000000000007  1.0000
  H   H287      1.0  0.9557499999999999  0.26681000000000005  0.2590000000000001  1.0000
  H   H288      1.0  0.10934  0.23502  0.34507  1.0000
  H   H289      1.0  0.9998199999999998  0.18829000000000007  0.25739  1.0000
  H   H290      1.0  0.98465  0.17432  0.3076  1.0000
  H   H291      1.0  0.10461000000000008  0.16108000000000006  0.2785  1.0000
  H   H292      1.0  0.14590999999999996  0.24982  0.25604  1.0000
  H   H293      1.0  0.23413  0.22505000000000006  0.28612  1.0000
  H   H294      1.0  0.19503999999999994  0.28793  0.3075400000000001  1.0000
  C   C229      1.0  0.061109999999999984  0.3136100000000002  0.8871200000000002  1.0000
  C   C230      1.0  0.96347  0.3086100000000001  0.8675600000000002  1.0000
  C   C231      1.0  0.8626799999999999  0.31765000000000015  0.8938300000000002  1.0000
  C   C232      1.0  0.8055799999999999  0.27048  0.88518  1.0000
  C   C233      1.0  0.8746099999999998  0.34331000000000006  0.9430900000000002  1.0000
  C   C234      1.0  0.9602299999999998  0.2916000000000002  0.8216900000000003  1.0000
  C   C235      1.0  0.05184999999999999  0.28478000000000003  0.7970200000000002  1.0000
  C   C236      1.0  0.056659999999999995  0.2531400000000001  0.7500900000000001  1.0000
  C   C237      1.0  0.051709999999999985  0.2832100000000001  0.7190800000000003  1.0000
  N   N143      1.0  0.11212  0.25816000000000006  0.67923  1.0000
  C   C238      1.0  0.14206  0.30495000000000017  0.8174800000000002  1.0000
  C   C239      1.0  0.14554999999999998  0.32229000000000024  0.8632700000000002  1.0000
  C   C240      1.0  0.24411999999999995  0.3421200000000001  0.8862000000000002  1.0000
  C   C241      1.0  0.32985  0.30281  0.87638  1.0000
  C   C242      1.0  0.27803  0.38576  0.87353  1.0000
  H   H295      1.0  0.8135999999999999  0.3424800000000002  0.8819200000000003  1.0000
  H   H296      1.0  0.7770899999999998  0.2589700000000001  0.8513600000000002  1.0000
  H   H297      1.0  0.85782  0.24114000000000016  0.8883300000000002  1.0000
  H   H298      1.0  0.73802  0.2755700000000002  0.9078200000000002  1.0000
  H   H299      1.0  0.9184099999999998  0.37685  0.94881  1.0000
  H   H300      1.0  0.7973899999999999  0.35374000000000005  0.9590600000000001  1.0000
  H   H301      1.0  0.91462  0.3195900000000001  0.95889  1.0000
  H   H302      1.0  0.8878599999999998  0.2817600000000001  0.8052100000000002  1.0000
  H   H303      1.0  0.9954099999999998  0.22592000000000015  0.7433900000000002  1.0000
  H   H304      1.0  0.13053999999999996  0.23144000000000015  0.7444800000000003  1.0000
  H   H305      1.0  0.08696999999999996  0.31884000000000007  0.7350100000000003  1.0000
  H   H306      1.0  0.07153  0.22863  0.65984  1.0000
  H   H307      1.0  0.12227  0.28192  0.66141  1.0000
  H   H308      1.0  0.21072999999999997  0.30415  0.79789  1.0000
  H   H309      1.0  0.22976  0.3549900000000001  0.92213  1.0000
  H   H310      1.0  0.40254  0.31809000000000015  0.8921300000000002  1.0000
  H   H311      1.0  0.34366  0.28692000000000006  0.8406800000000002  1.0000
  H   H312      1.0  0.3082599999999999  0.27340000000000014  0.8892100000000002  1.0000
  H   H313      1.0  0.30010000000000003  0.3748300000000001  0.8383500000000003  1.0000
  H   H314      1.0  0.34526999999999997  0.40250000000000025  0.8929700000000003  1.0000
  H   H315      1.0  0.21409  0.4134200000000001  0.8801000000000002  1.0000
  C   C243      1.0  0.08196  0.67463  0.6553200000000002  1.0000
  C   C244      1.0  0.14513  0.6682400000000002  0.68943  1.0000
  C   C245      1.0  0.2622399999999999  0.6780400000000001  0.6950200000000002  1.0000
  C   C246      1.0  0.32088999999999995  0.6346800000000002  0.7028300000000002  1.0000
  C   C247      1.0  0.31771  0.6881600000000002  0.65665  1.0000
  C   C248      1.0  0.09903999999999998  0.64827  0.71913  1.0000
  C   C249      1.0  0.006029999999999981  0.6245100000000002  0.71016  1.0000
  C   C250      1.0  0.9712699999999997  0.59392  0.73724  1.0000
  C   C251      1.0  0.8576099999999999  0.60344  0.75289  1.0000
  N   N144      1.0  0.82057  0.5617200000000001  0.76383  1.0000
  C   C252      1.0  0.9538499999999998  0.6236000000000003  0.67239  1.0000
  C   C253      1.0  0.9867399999999997  0.6504800000000002  0.6460600000000002  1.0000
  C   C254      1.0  0.9169399999999999  0.6531700000000003  0.6091300000000002  1.0000
  C   C255      1.0  0.9002299999999998  0.6028500000000002  0.5760400000000002  1.0000
  C   C256      1.0  0.8134299999999999  0.6790500000000002  0.6273200000000002  1.0000
  H   H316      1.0  0.27136999999999994  0.7099700000000002  0.7247100000000002  1.0000
  H   H317      1.0  0.30402  0.63271  0.73583  1.0000
  H   H318      1.0  0.30011999999999994  0.6001100000000003  0.67795  1.0000
  H   H319      1.0  0.4057999999999999  0.6379  0.70138  1.0000
  H   H320      1.0  0.30922  0.72656  0.65911  1.0000
  H   H321      1.0  0.40220999999999985  0.6808600000000001  0.6558700000000002  1.0000
  H   H322      1.0  0.28871999999999987  0.6650200000000001  0.6253300000000003  1.0000
  H   H323      1.0  0.13932999999999995  0.6477600000000002  0.7480800000000002  1.0000
  H   H324      1.0  0.021559999999999985  0.59823  0.76582  1.0000
  H   H325      1.0  0.9815699999999998  0.5555  0.71607  1.0000
  H   H326      1.0  0.8087199999999998  0.60785  0.7263500000000003  1.0000
  H   H327      1.0  0.8215099999999999  0.5317500000000001  0.73529  1.0000
  H   H328      1.0  0.74285  0.56841  0.77358  1.0000
  H   H329      1.0  0.8849599999999997  0.6028500000000002  0.66401  1.0000
  H   H330      1.0  0.9528499999999999  0.67406  0.59028  1.0000
  H   H331      1.0  0.85881  0.6064700000000002  0.5473  1.0000
  H   H332      1.0  0.85357  0.58034  0.59049  1.0000
  H   H333      1.0  0.9757699999999998  0.5839100000000003  0.56442  1.0000
  H   H334      1.0  0.77136  0.65981  0.64645  1.0000
  H   H335      1.0  0.76348  0.6809200000000002  0.60021  1.0000
  H   H336      1.0  0.8268299999999998  0.71662  0.64871  1.0000
