data_image0
_chemical_formula_structural       Mn5CN8C2N8CN16Cl2C4Mn5CN8C2N8CN16Cl2C4Mn5CN8C2N8CN16Cl2C4Mn5CN8C2N8CN16Cl2C12OC5NC7H29C8OC5NC7H29C8OC5NC7H29C8OC5NC7H29C8OC5NC7H29C8OC5NC7H29C8OC5NC7H29C8OC5NC7H29C8OC5NC7H29C8OC5NC7H29C8OC5NC7H29C8OC5NC7H29C8OC5NC7H29C8OC5NC7H29C8OC5NC7H29C8OC5NC7H29
_chemical_formula_sum              "Mn20 C352 N144 Cl8 O16 H464"
_cell_length_a       15.7849
_cell_length_b       33.9707
_cell_length_c       37.7387
_cell_angle_alpha    111.0269
_cell_angle_beta     90.6516
_cell_angle_gamma    90.694

_symmetry_space_group_name_H-M    'P 1'
_symmetry_Int_Tables_number       1

loop_
  _symmetry_equiv_pos_as_xyz
  'x,y,z'

loop_
  _atom_site_type_symbol
  _atom_site_label
  _atom_site_symmetry_multiplicity
  _atom_site_fract_x
  _atom_site_fract_y
  _atom_site_fract_z
  _atom_site_occupancy
  Mn  Mn1       1.0  0.08234999999999998  0.33285  0.15021  1.0000
  Mn  Mn2       1.0  0.25857  0.33514  0.0997  1.0000
  Mn  Mn3       1.0  0.5022  0.16322000000000006  0.88153  1.0000
  Mn  Mn4       1.0  0.30254  0.16503  0.9162600000000001  1.0000
  Mn  Mn5       1.0  0.2696899999999999  0.24632  0.00979  1.0000
  C   C1        1.0  0.22609999999999994  0.3467  0.20954  1.0000
  N   N1        1.0  0.19744999999999993  0.33565999999999996  0.17344  1.0000
  N   N2        1.0  0.2639199999999999  0.33787  0.1537  1.0000
  N   N3        1.0  0.3307999999999999  0.35172  0.17631  1.0000
  N   N4        1.0  0.30967  0.35644000000000003  0.21134000000000006  1.0000
  N   N5        1.0  0.3748199999999999  0.28002  0.11555  1.0000
  N   N6        1.0  0.34577  0.28912  0.08654  1.0000
  N   N7        1.0  0.33617  0.25335  0.057190000000000005  1.0000
  N   N8        1.0  0.35526999999999986  0.22085  0.06702  1.0000
  C   C2        1.0  0.3816599999999999  0.23802000000000004  0.10332  1.0000
  C   C3        1.0  0.29576  0.36732  0.009990000000000004  1.0000
  N   N9        1.0  0.25775999999999993  0.33866  0.04858000000000001  1.0000
  N   N10       1.0  0.2651099999999999  0.37552  0.04491  1.0000
  N   N11       1.0  0.15926999999999994  0.26064  0.04576  1.0000
  N   N12       1.0  0.17312  0.28816  0.08111000000000002  1.0000
  N   N13       1.0  0.12119000000000002  0.2823800000000001  0.10557000000000002  1.0000
  N   N14       1.0  0.07333999999999995  0.24929  0.08838  1.0000
  N   N15       1.0  0.28365  0.30866  0.01794  1.0000
  N   N16       1.0  0.3095499999999999  0.32534  0.9928  1.0000
  C   C4        1.0  0.08973999999999997  0.23744  0.050760000000000007  1.0000
  N   N17       1.0  0.4011899999999999  0.1744  0.85391  1.0000
  N   N18       1.0  0.3245699999999999  0.17468  0.86735  1.0000
  N   N19       1.0  0.2671699999999999  0.17461  0.84163  1.0000
  N   N20       1.0  0.3057299999999999  0.17511000000000007  0.8108600000000002  1.0000
  N   N21       1.0  0.16764  0.21321000000000004  0.9013300000000001  1.0000
  N   N22       1.0  0.21206999999999995  0.20737000000000005  0.9285800000000001  1.0000
  N   N23       1.0  0.20284999999999995  0.23913999999999996  0.96091  1.0000
  N   N24       1.0  0.15156  0.26692000000000005  0.9551000000000001  1.0000
  N   N25       1.0  0.21411999999999995  0.16341  0.017310000000000002  1.0000
  N   N26       1.0  0.2550899999999999  0.18261000000000002  0.9973700000000001  1.0000
  N   N27       1.0  0.28024  0.15427000000000002  0.9648900000000001  1.0000
  N   N28       1.0  0.25901999999999986  0.11610999999999999  0.96333  1.0000
  N   N29       1.0  0.3853099999999999  0.23426  0.97989  1.0000
  N   N30       1.0  0.38673  0.2106300000000001  0.9432100000000001  1.0000
  N   N31       1.0  0.4634199999999999  0.20978000000000005  0.92944  1.0000
  N   N32       1.0  0.51618  0.23177  0.95664  1.0000
  Cl  Cl1       1.0  0.14136999999999994  0.37502  0.11885  1.0000
  Cl  Cl2       1.0  0.41242  0.11980999999999996  0.89916  1.0000
  C   C5        1.0  0.3892899999999999  0.17476  0.8186  1.0000
  C   C6        1.0  0.12876  0.24971  0.9178500000000002  1.0000
  C   C7        1.0  0.21817999999999996  0.12171999999999997  0.99579  1.0000
  C   C8        1.0  0.4698099999999999  0.24638  0.98855  1.0000
  Mn  Mn6       1.0  0.6054  0.89128  0.15823  1.0000
  Mn  Mn7       1.0  0.78655  0.84445  0.11560000000000001  1.0000
  Mn  Mn8       1.0  0.8923099999999998  0.64933  0.8713300000000002  1.0000
  Mn  Mn9       1.0  0.7095899999999998  0.68077  0.92649  1.0000
  Mn  Mn10      1.0  0.7466099999999998  0.75888  0.02417  1.0000
  C   C9        1.0  0.6584399999999998  0.83702  0.20569  1.0000
  N   N33       1.0  0.67397  0.85441  0.17930000000000001  1.0000
  N   N34       1.0  0.7487899999999997  0.84056  0.16548  1.0000
  N   N35       1.0  0.7810499999999998  0.817  0.18332000000000007  1.0000
  N   N36       1.0  0.7263299999999998  0.8145  0.20885000000000006  1.0000
  N   N37       1.0  0.8858299999999998  0.77721  0.12237  1.0000
  N   N38       1.0  0.8359299999999997  0.78722  0.09913000000000002  1.0000
  N   N39       1.0  0.8149999999999997  0.75368  0.06924000000000001  1.0000
  N   N40       1.0  0.8483899999999998  0.71972  0.07353  1.0000
  C   C10       1.0  0.8946799999999998  0.73559  0.10659  1.0000
  C   C11       1.0  0.86069  0.8709  0.02486  1.0000
  N   N41       1.0  0.8163199999999998  0.84789  0.06622  1.0000
  N   N42       1.0  0.8511099999999998  0.88154  0.06244  1.0000
  N   N43       1.0  0.65154  0.78879  0.06205  1.0000
  N   N44       1.0  0.6727799999999998  0.82176  0.09302000000000003  1.0000
  N   N45       1.0  0.60562  0.84273  0.10889  1.0000
  N   N46       1.0  0.53795  0.82436  0.09025  1.0000
  N   N47       1.0  0.8041999999999998  0.81743  0.03291  1.0000
  N   N48       1.0  0.83307  0.83054  0.00595  1.0000
  C   C12       1.0  0.5639799999999998  0.79045  0.06142  1.0000
  N   N49       1.0  0.79559  0.67899  0.85597  1.0000
  N   N50       1.0  0.72839  0.69158  0.8776  1.0000
  N   N51       1.0  0.6682899999999998  0.70312  0.8589400000000001  1.0000
  N   N52       1.0  0.69556  0.6990100000000001  0.8248800000000002  1.0000
  N   N53       1.0  0.6040099999999998  0.74927  0.9281  1.0000
  N   N54       1.0  0.6507799999999998  0.73516  0.94975  1.0000
  N   N55       1.0  0.6769799999999998  0.76656  0.9804300000000001  1.0000
  N   N56       1.0  0.6494099999999998  0.80282  0.97877  1.0000
  N   N57       1.0  0.6478199999999998  0.68302  0.03272  1.0000
  N   N58       1.0  0.6909799999999998  0.69867  0.010410000000000003  1.0000
  N   N59       1.0  0.68923  0.67028  0.97515  1.0000
  N   N60       1.0  0.6461499999999998  0.63637  0.97353  1.0000
  N   N61       1.0  0.84355  0.7310200000000001  0.9882600000000001  1.0000
  N   N62       1.0  0.8208799999999998  0.70785  0.9466200000000001  1.0000
  N   N63       1.0  0.9003899999999998  0.69691  0.92292  1.0000
  N   N64       1.0  0.9789599999999999  0.71274  0.94917  1.0000
  Cl  Cl3       1.0  0.72812  0.90934  0.13638  1.0000
  Cl  Cl4       1.0  0.7839199999999997  0.62083  0.8967  1.0000
  C   C13       1.0  0.77446  0.68344  0.82271  1.0000
  C   C14       1.0  0.60346  0.7910900000000001  0.9457900000000001  1.0000
  C   C15       1.0  0.61971  0.64419  0.008930000000000002  1.0000
  C   C16       1.0  0.9470599999999998  0.7363300000000002  0.9929700000000001  1.0000
  Mn  Mn11      1.0  0.12330999999999999  0.63257  0.3848800000000001  1.0000
  Mn  Mn12      1.0  0.3077499999999999  0.68404  0.42492  1.0000
  Mn  Mn13      1.0  0.45996999999999977  0.88861  0.65907  1.0000
  Mn  Mn14      1.0  0.2734  0.8419599999999999  0.61766  1.0000
  Mn  Mn15      1.0  0.28061  0.76645  0.51915  1.0000
  C   C17       1.0  0.17255999999999994  0.68117  0.33216  1.0000
  N   N65       1.0  0.18752999999999995  0.66913  0.36188  1.0000
  N   N66       1.0  0.26173  0.68628  0.37568000000000007  1.0000
  N   N67       1.0  0.29332999999999987  0.70678  0.3548900000000001  1.0000
  N   N68       1.0  0.23828999999999995  0.70455  0.32754  1.0000
  N   N69       1.0  0.38479  0.75383  0.4141800000000001  1.0000
  N   N70       1.0  0.3552399999999999  0.74185  0.44094  1.0000
  N   N71       1.0  0.33602000000000004  0.7745800000000002  0.47139000000000003  1.0000
  N   N72       1.0  0.3481199999999999  0.8097300000000001  0.46324000000000004  1.0000
  C   C18       1.0  0.37981  0.7956000000000001  0.4270800000000001  1.0000
  C   C19       1.0  0.36613  0.64743  0.5094400000000002  1.0000
  N   N73       1.0  0.3481899999999999  0.68015  0.47243000000000007  1.0000
  N   N74       1.0  0.37161  0.64348  0.47311  1.0000
  N   N75       1.0  0.17709999999999995  0.73677  0.48189  1.0000
  N   N76       1.0  0.19532  0.70546  0.44928  1.0000
  N   N77       1.0  0.12827  0.68149  0.43474000000000007  1.0000
  N   N78       1.0  0.06381999999999997  0.6944100000000001  0.45671000000000006  1.0000
  N   N79       1.0  0.32975000000000004  0.70644  0.50665  1.0000
  N   N80       1.0  0.33900999999999987  0.68642  0.53096  1.0000
  C   C20       1.0  0.09135999999999997  0.72899  0.48567000000000005  1.0000
  N   N81       1.0  0.39626999999999996  0.8491699999999999  0.67935  1.0000
  N   N82       1.0  0.3237299999999999  0.8320700000000001  0.6631200000000002  1.0000
  N   N83       1.0  0.28963  0.80907  0.68116  1.0000
  N   N84       1.0  0.34016999999999986  0.8103300000000001  0.7096700000000001  1.0000
  N   N85       1.0  0.18051999999999996  0.7723600000000002  0.6218800000000002  1.0000
  N   N86       1.0  0.22831999999999997  0.7837300000000003  0.5990600000000003  1.0000
  N   N87       1.0  0.21724999999999994  0.7579900000000002  0.56381  1.0000
  N   N88       1.0  0.15662999999999996  0.7296600000000001  0.5629500000000002  1.0000
  N   N89       1.0  0.20714  0.84951  0.51463  1.0000
  N   N90       1.0  0.23126999999999995  0.8274  0.5359  1.0000
  N   N91       1.0  0.22669999999999996  0.8521100000000001  0.5722200000000001  1.0000
  N   N92       1.0  0.20035000000000003  0.88981  0.5758000000000002  1.0000
  N   N93       1.0  0.39179  0.79394  0.55603  1.0000
  N   N94       1.0  0.3793899999999999  0.82451  0.58965  1.0000
  N   N95       1.0  0.4501699999999999  0.84366  0.6061500000000001  1.0000
  N   N96       1.0  0.5143699999999998  0.8261  0.5856  1.0000
  Cl  Cl5       1.0  0.2503599999999999  0.61768  0.40498000000000006  1.0000
  Cl  Cl6       1.0  0.33188  0.9079299999999999  0.64259  1.0000
  C   C21       1.0  0.4066999999999999  0.83513  0.70852  1.0000
  C   C22       1.0  0.13447  0.73953  0.60013  1.0000
  C   C23       1.0  0.18865  0.88852  0.54031  1.0000
  C   C24       1.0  0.4811999999999999  0.79445  0.5554300000000001  1.0000
  Mn  Mn16      1.0  0.5980399999999998  0.11823000000000003  0.37609000000000004  1.0000
  Mn  Mn17      1.0  0.7725599999999998  0.18094  0.41009  1.0000
  Mn  Mn18      1.0  0.8909699999999998  0.35133  0.65842  1.0000
  Mn  Mn19      1.0  0.7107899999999998  0.32737  0.60212  1.0000
  Mn  Mn20      1.0  0.7474799999999998  0.25722  0.50529  1.0000
  C   C25       1.0  0.6072199999999998  0.17002  0.32323  1.0000
  N   N97       1.0  0.6402999999999998  0.15792000000000006  0.35071000000000013  1.0000
  N   N98       1.0  0.70778  0.18252  0.36387  1.0000
  N   N99       1.0  0.7166099999999997  0.20915  0.34587  1.0000
  N   N100      1.0  0.6552399999999998  0.20164  0.31977  1.0000
  N   N101      1.0  0.85152  0.253  0.40383  1.0000
  N   N102      1.0  0.80178  0.24243  0.4265600000000001  1.0000
  N   N103      1.0  0.8168799999999998  0.26683  0.46224000000000004  1.0000
  N   N104      1.0  0.88365  0.29195  0.46348000000000006  1.0000
  C   C26       1.0  0.9041899999999998  0.28277  0.42625  1.0000
  C   C27       1.0  0.8655499999999998  0.14690000000000003  0.4955800000000001  1.0000
  N   N105      1.0  0.8264199999999998  0.17692  0.4575  1.0000
  N   N106      1.0  0.86567  0.14323000000000002  0.45863000000000004  1.0000
  N   N107      1.0  0.6469099999999998  0.22889000000000004  0.46675000000000005  1.0000
  N   N108      1.0  0.6656599999999998  0.1949  0.437  1.0000
  N   N109      1.0  0.6015999999999998  0.16840000000000002  0.42536000000000007  1.0000
  N   N110      1.0  0.5371799999999998  0.18347  0.44668  1.0000
  N   N111      1.0  0.8026799999999997  0.20025  0.49192  1.0000
  N   N112      1.0  0.8262099999999998  0.18269  0.51653  1.0000
  C   C28       1.0  0.5613899999999997  0.22176  0.47131  1.0000
  N   N113      1.0  0.7941399999999997  0.31909000000000004  0.6690300000000001  1.0000
  N   N114      1.0  0.7241199999999999  0.31237000000000004  0.6484100000000002  1.0000
  N   N115      1.0  0.6648699999999997  0.29589  0.66325  1.0000
  N   N116      1.0  0.6965499999999997  0.29005  0.69339  1.0000
  N   N117      1.0  0.5991399999999998  0.25490000000000007  0.5934100000000001  1.0000
  N   N118      1.0  0.6485799999999999  0.2729400000000001  0.5755600000000002  1.0000
  N   N119      1.0  0.67649  0.24436  0.54435  1.0000
  N   N120      1.0  0.6459899999999997  0.20655  0.5408  1.0000
  N   N121      1.0  0.65693  0.33287  0.49821  1.0000
  N   N122      1.0  0.6953299999999998  0.31574  0.52049  1.0000
  N   N123      1.0  0.6963799999999998  0.34269  0.55593  1.0000
  N   N124      1.0  0.6594699999999998  0.37784  0.55801  1.0000
  N   N125      1.0  0.8433199999999997  0.28357000000000004  0.5467400000000001  1.0000
  N   N126      1.0  0.8213499999999998  0.3001  0.58289  1.0000
  N   N127      1.0  0.8882499999999998  0.30715000000000003  0.6056900000000001  1.0000
  N   N128      1.0  0.9566499999999999  0.2949400000000001  0.5857600000000002  1.0000
  Cl  Cl7       1.0  0.73509  0.11155999999999998  0.39014  1.0000
  Cl  Cl8       1.0  0.7919299999999998  0.38516000000000006  0.6341700000000001  1.0000
  C   C29       1.0  0.7777499999999998  0.3038700000000001  0.6965800000000002  1.0000
  C   C30       1.0  0.5974099999999998  0.21366  0.57165  1.0000
  C   C31       1.0  0.6346899999999998  0.37176  0.52225  1.0000
  C   C32       1.0  0.9302299999999998  0.28104  0.54915  1.0000
  C   C33       1.0  0.51958  0.25427000000000005  0.0249  1.0000
  C   C34       1.0  0.5723200000000002  0.21931000000000003  0.022990000000000066  1.0000
  C   C35       1.0  0.53611  0.17692  0.021579999999999936  1.0000
  C   C36       1.0  0.5920699999999998  0.15561000000000003  0.043039999999999974  1.0000
  C   C37       1.0  0.52236  0.14673  0.9809  1.0000
  C   C38       1.0  0.66066  0.22258999999999998  0.01869999999999994  1.0000
  C   C39       1.0  0.6997199999999998  0.2609  0.022289999999999924  1.0000
  C   C40       1.0  0.7959799999999998  0.26593  0.020359999999999937  1.0000
  O   O1        1.0  0.8141599999999998  0.30189  0.011290000000000022  1.0000
  C   C41       1.0  0.8430399999999998  0.22682999999999995  0.99232  1.0000
  C   C42       1.0  0.8672799999999998  0.19262  0.009679999999999911  1.0000
  C   C43       1.0  0.9656199999999998  0.18869999999999998  0.010350000000000081  1.0000
  C   C44       1.0  0.9948199999999998  0.1729400000000001  0.9691200000000001  1.0000
  C   C45       1.0  0.9584999999999998  0.20186999999999994  0.9493  1.0000
  N   N129      1.0  0.9204999999999998  0.24013000000000004  0.97676  1.0000
  C   C46       1.0  0.9850299999999997  0.26107  0.007020000000000026  1.0000
  C   C47       1.0  0.0025999999999999357  0.23352  0.03072  1.0000
  C   C48       1.0  0.6500899999999997  0.29694  0.03517000000000001  1.0000
  C   C49       1.0  0.5618599999999998  0.29443  0.0398  1.0000
  C   C50       1.0  0.5232700000000001  0.32989000000000007  0.07248000000000003  1.0000
  C   C51       1.0  0.5575299999999997  0.37431  0.07725  1.0000
  C   C52       1.0  0.5403799999999997  0.32217000000000007  0.10967  1.0000
  H   H1        1.0  0.47404  0.18195  0.03530000000000001  1.0000
  H   H2        1.0  0.62196  0.17931  0.06877  1.0000
  H   H3        1.0  0.64404  0.13774  0.024960000000000093  1.0000
  H   H4        1.0  0.5532199999999998  0.1329  0.051390000000000054  1.0000
  H   H5        1.0  0.4694599999999999  0.15831999999999993  0.9685  1.0000
  H   H6        1.0  0.50422  0.11474000000000008  0.9801300000000001  1.0000
  H   H7        1.0  0.5802799999999998  0.14459000000000002  0.9639  1.0000
  H   H8        1.0  0.69902  0.19514000000000006  0.013149999999999997  1.0000
  H   H9        1.0  0.8212499999999998  0.27259  0.04956  1.0000
  H   H10       1.0  0.79161  0.29640000000000005  0.9852500000000001  1.0000
  H   H11       1.0  0.7981  0.21191  0.96809  1.0000
  H   H12       1.0  0.8423299999999998  0.20042  0.0388  1.0000
  H   H13       1.0  0.8387199999999998  0.16157000000000007  0.9919800000000001  1.0000
  H   H14       1.0  0.9848399999999998  0.16696  0.02498  1.0000
  H   H15       1.0  0.9713199999999997  0.14031999999999997  0.95414  1.0000
  H   H16       1.0  0.06519999999999997  0.17315000000000005  0.96827  1.0000
  H   H17       1.0  0.9103499999999998  0.18398  0.92773  1.0000
  H   H18       1.0  0.009430000000000003  0.21145000000000005  0.9347500000000001  1.0000
  H   H19       1.0  0.04353999999999999  0.26682  0.99468  1.0000
  H   H20       1.0  0.96407  0.29291  0.02532000000000001  1.0000
  H   H21       1.0  0.9568899999999998  0.24735000000000001  0.05425  1.0000
  H   H22       1.0  0.6820799999999998  0.32735  0.04493  1.0000
  H   H23       1.0  0.45416999999999996  0.32971  0.067  1.0000
  H   H24       1.0  0.61777  0.38211  0.09408000000000001  1.0000
  H   H25       1.0  0.5706899999999998  0.3769  0.04941  1.0000
  H   H26       1.0  0.51085  0.39846  0.09259  1.0000
  H   H27       1.0  0.49980999999999987  0.34268  0.13259  1.0000
  H   H28       1.0  0.5283199999999998  0.28867  0.10585  1.0000
  H   H29       1.0  0.6078399999999998  0.32892  0.11888  1.0000
  C   C53       1.0  0.9993799999999999  0.73267  0.024620000000000003  1.0000
  C   C54       1.0  0.04996  0.76539  0.0509  1.0000
  C   C55       1.0  0.04114  0.81164  0.05619  1.0000
  C   C56       1.0  0.12043999999999998  0.82653  0.040880000000000014  1.0000
  C   C57       1.0  0.028599999999999993  0.8401  0.09784000000000002  1.0000
  C   C58       1.0  0.121  0.75376  0.06783  1.0000
  C   C59       1.0  0.1546  0.71327  0.05102000000000001  1.0000
  C   C60       1.0  0.25044  0.70614  0.05262000000000001  1.0000
  O   O2        1.0  0.27254  0.70195  0.08735  1.0000
  C   C61       1.0  0.30412  0.74197  0.04556  1.0000
  C   C62       1.0  0.3579  0.73245  0.00894  1.0000
  C   C63       1.0  0.4305799999999999  0.76701  0.01819  1.0000
  C   C64       1.0  0.39182  0.81094  0.04103  1.0000
  C   C65       1.0  0.3600699999999999  0.81065  0.08018  1.0000
  N   N130      1.0  0.35679  0.76666  0.07936  1.0000
  C   C66       1.0  0.4443999999999999  0.74873  0.07635  1.0000
  C   C67       1.0  0.4973199999999999  0.75577  0.043630000000000016  1.0000
  C   C68       1.0  0.10047  0.68103  0.02837  1.0000
  C   C69       1.0  0.019389999999999994  0.69069  0.01804  1.0000
  C   C70       1.0  0.9524499999999999  0.6578200000000001  0.9982300000000001  1.0000
  C   C71       1.0  0.9841899999999999  0.61205  0.98417  1.0000
  C   C72       1.0  0.9031499999999999  0.66839  0.9663  1.0000
  H   H30       1.0  0.9848499999999999  0.81528  0.04  1.0000
  H   H31       1.0  0.12568999999999994  0.80936  0.009840000000000003  1.0000
  H   H32       1.0  0.1784  0.82169  0.05504  1.0000
  H   H33       1.0  0.12027999999999997  0.86074  0.04709000000000001  1.0000
  H   H34       1.0  0.9672599999999998  0.83324  0.1081  1.0000
  H   H35       1.0  0.02726000000000006  0.87377  0.10056  1.0000
  H   H36       1.0  0.07994999999999997  0.83647  0.11669  1.0000
  H   H37       1.0  0.16013  0.7778800000000001  0.08833000000000003  1.0000
  H   H38       1.0  0.26528  0.67592  0.029910000000000003  1.0000
  H   H39       1.0  0.25221  0.72721  0.10824  1.0000
  H   H40       1.0  0.25621  0.76282  0.04022  1.0000
  H   H41       1.0  0.38566  0.70064  0.00027  1.0000
  H   H42       1.0  0.3175999999999999  0.73333  0.98483  1.0000
  H   H43       1.0  0.4597999999999999  0.76753  0.9916800000000001  1.0000
  H   H44       1.0  0.3375999999999999  0.81658  0.02452  1.0000
  H   H45       1.0  0.43771  0.83726  0.04481000000000001  1.0000
  H   H46       1.0  0.29665999999999987  0.82516  0.08677000000000001  1.0000
  H   H47       1.0  0.39702999999999994  0.83115  0.10518000000000002  1.0000
  H   H48       1.0  0.4774099999999999  0.76201  0.10449  1.0000
  H   H49       1.0  0.43989999999999985  0.71422  0.07060000000000002  1.0000
  H   H50       1.0  0.5291199999999999  0.72653  0.026310000000000004  1.0000
  H   H51       1.0  0.12311  0.64908  0.01813  1.0000
  H   H52       1.0  0.9058199999999997  0.65943  0.0203  1.0000
  H   H53       1.0  0.035919999999999994  0.6078700000000001  0.9634700000000002  1.0000
  H   H54       1.0  0.007329999999999997  0.60368  0.00841  1.0000
  H   H55       1.0  0.9315199999999999  0.58978  0.97011  1.0000
  H   H56       1.0  0.8397099999999997  0.6544800000000001  0.9683200000000001  1.0000
  H   H57       1.0  0.8954  0.75173  0.95507  1.0000
  H   H58       1.0  0.92646  0.6427  0.94016  1.0000
  C   C73       1.0  0.54727  0.76245  0.5367  1.0000
  C   C74       1.0  0.5941599999999998  0.7716000000000001  0.5081700000000002  1.0000
  C   C75       1.0  0.55121  0.78569  0.47921  1.0000
  C   C76       1.0  0.5857299999999998  0.76256  0.43909  1.0000
  C   C77       1.0  0.55827  0.83385  0.49093000000000003  1.0000
  C   C78       1.0  0.6829999999999998  0.7764000000000001  0.5108300000000002  1.0000
  C   C79       1.0  0.7295099999999998  0.76813  0.53865  1.0000
  C   C80       1.0  0.8226999999999998  0.78085  0.54853  1.0000
  O   O3        1.0  0.8294399999999997  0.80604  0.58724  1.0000
  C   C81       1.0  0.8669499999999998  0.80425  0.52501  1.0000
  C   C82       1.0  0.8778199999999998  0.77588  0.48243  1.0000
  C   C83       1.0  0.97277  0.7731000000000001  0.47352000000000005  1.0000
  C   C84       1.0  0.005339999999999903  0.81791  0.47924000000000005  1.0000
  C   C85       1.0  0.9827099999999998  0.8478800000000001  0.5197600000000001  1.0000
  N   N131      1.0  0.9504499999999998  0.8237000000000001  0.5425800000000001  1.0000
  C   C86       1.0  0.01595999999999975  0.7919500000000002  0.5422  1.0000
  C   C87       1.0  0.01740000000000008  0.7572099999999999  0.50279  1.0000
  C   C88       1.0  0.68697  0.7505500000000002  0.5613200000000003  1.0000
  C   C89       1.0  0.59764  0.74814  0.56227  1.0000
  C   C90       1.0  0.5670499999999998  0.74144  0.5984900000000002  1.0000
  C   C91       1.0  0.60939  0.70242  0.60299  1.0000
  C   C92       1.0  0.47110999999999986  0.73994  0.6032300000000003  1.0000
  H   H59       1.0  0.4847899999999999  0.77675  0.47891  1.0000
  H   H60       1.0  0.5878599999999998  0.7280699999999999  0.43301  1.0000
  H   H61       1.0  0.65027  0.77402  0.43582  1.0000
  H   H62       1.0  0.5450399999999997  0.76755  0.41715  1.0000
  H   H63       1.0  0.5480399999999997  0.84976  0.52182  1.0000
  H   H64       1.0  0.5086099999999998  0.84504  0.47632  1.0000
  H   H65       1.0  0.62135  0.84381  0.48406000000000005  1.0000
  H   H66       1.0  0.71449  0.7895099999999999  0.49236  1.0000
  H   H67       1.0  0.8571599999999998  0.75136  0.54455  1.0000
  H   H68       1.0  0.7981699999999998  0.83242  0.59103  1.0000
  H   H69       1.0  0.8243499999999997  0.83057  0.52604  1.0000
  H   H70       1.0  0.8502399999999998  0.7437  0.47594000000000003  1.0000
  H   H71       1.0  0.84455  0.78982  0.46369000000000005  1.0000
  H   H72       1.0  0.98184  0.75178  0.44366  1.0000
  H   H73       1.0  0.9760399999999998  0.82931  0.45788000000000006  1.0000
  H   H74       1.0  0.07477999999999997  0.81713  0.47512  1.0000
  H   H75       1.0  0.9354199999999998  0.8712700000000001  0.51817  1.0000
  H   H76       1.0  0.03801000000000009  0.86625  0.53445  1.0000
  H   H77       1.0  0.07926999999999972  0.80724  0.54993  1.0000
  H   H78       1.0  0.0001500000000000938  0.77776  0.5636500000000001  1.0000
  H   H79       1.0  0.97288  0.73333  0.50663  1.0000
  H   H80       1.0  0.7252199999999998  0.74413  0.58247  1.0000
  H   H81       1.0  0.5903799999999998  0.7692400000000003  0.62299  1.0000
  H   H82       1.0  0.61936  0.67709  0.57508  1.0000
  H   H83       1.0  0.6725399999999998  0.71109  0.61693  1.0000
  H   H84       1.0  0.5737599999999998  0.6896000000000001  0.6215400000000002  1.0000
  H   H85       1.0  0.44627999999999984  0.77206  0.61615  1.0000
  H   H86       1.0  0.44065  0.7238100000000001  0.57566  1.0000
  H   H87       1.0  0.45284999999999986  0.72407  0.62302  1.0000
  C   C93       1.0  0.9935399999999999  0.2887400000000001  0.5236900000000002  1.0000
  C   C94       1.0  0.051729999999999984  0.25629  0.50602  1.0000
  C   C95       1.0  0.04362  0.2126  0.50907  1.0000
  C   C96       1.0  0.10112999999999997  0.20996  0.5411  1.0000
  C   C97       1.0  0.06093999999999999  0.17553000000000002  0.47228  1.0000
  C   C98       1.0  0.12928999999999993  0.26674  0.49393000000000004  1.0000
  C   C99       1.0  0.15843  0.30877  0.50322  1.0000
  C   C100      1.0  0.25309  0.32089  0.49976000000000004  1.0000
  O   O4        1.0  0.2581599999999999  0.34741  0.47858  1.0000
  C   C101      1.0  0.3117099999999999  0.28239  0.48259  1.0000
  C   C102      1.0  0.33436  0.25724  0.50869  1.0000
  C   C103      1.0  0.40373999999999993  0.22565000000000002  0.4879200000000001  1.0000
  C   C104      1.0  0.37654  0.20791  0.44438  1.0000
  C   C105      1.0  0.3934799999999999  0.24418000000000004  0.42878  1.0000
  N   N132      1.0  0.38888  0.28573  0.46055  1.0000
  C   C106      1.0  0.47082  0.29061  0.48258000000000006  1.0000
  C   C107      1.0  0.49071  0.25116  0.49402  1.0000
  C   C108      1.0  0.10019999999999997  0.34069  0.51985  1.0000
  C   C109      1.0  0.0187  0.33185  0.53082  1.0000
  C   C110      1.0  0.9677099999999998  0.36919  0.55709  1.0000
  C   C111      1.0  0.9331699999999999  0.39758  0.53704  1.0000
  C   C112      1.0  0.019169999999999906  0.395  0.59297  1.0000
  H   H88       1.0  0.9783599999999999  0.20768  0.51629  1.0000
  H   H89       1.0  0.08496  0.23496  0.56843  1.0000
  H   H90       1.0  0.16869  0.21378  0.53532  1.0000
  H   H91       1.0  0.09317999999999999  0.17863000000000007  0.5437300000000002  1.0000
  H   H92       1.0  0.0162199999999999  0.17605000000000007  0.44984000000000013  1.0000
  H   H93       1.0  0.05018999999999995  0.14525  0.47665  1.0000
  H   H94       1.0  0.12721999999999994  0.17536000000000002  0.46286000000000005  1.0000
  H   H95       1.0  0.16916  0.2406  0.48078  1.0000
  H   H96       1.0  0.27639  0.33866  0.52893  1.0000
  H   H97       1.0  0.23709999999999995  0.33085  0.45248  1.0000
  H   H98       1.0  0.26666  0.26351  0.46026000000000006  1.0000
  H   H99       1.0  0.3578  0.27905  0.53692  1.0000
  H   H100      1.0  0.27972999999999987  0.23965000000000003  0.51387  1.0000
  H   H101      1.0  0.4075799999999999  0.19976  0.49938  1.0000
  H   H102      1.0  0.3079899999999998  0.19909000000000002  0.44183  1.0000
  H   H103      1.0  0.4025499999999999  0.17761000000000005  0.42581000000000013  1.0000
  H   H104      1.0  0.3453099999999999  0.24305999999999997  0.40695000000000003  1.0000
  H   H105      1.0  0.45627  0.24035999999999996  0.41494000000000003  1.0000
  H   H106      1.0  0.5229099999999998  0.29631  0.46543  1.0000
  H   H107      1.0  0.46754  0.31923  0.50866  1.0000
  H   H108      1.0  0.50907  0.26234  0.52457  1.0000
  H   H109      1.0  0.12139999999999997  0.37312  0.52734  1.0000
  H   H110      1.0  0.9102899999999998  0.35814  0.56725  1.0000
  H   H111      1.0  0.9849499999999999  0.41044  0.5248  1.0000
  H   H112      1.0  0.8868199999999999  0.3795  0.51458  1.0000
  H   H113      1.0  0.89901  0.42445  0.55754  1.0000
  H   H114      1.0  0.048489999999999915  0.37353  0.6057900000000002  1.0000
  H   H115      1.0  0.07003000000000001  0.41424  0.58652  1.0000
  H   H116      1.0  0.9767299999999999  0.41675000000000006  0.6142500000000002  1.0000
  C   C113      1.0  0.5589399999999998  0.61469  0.01759  1.0000
  C   C114      1.0  0.49058999999999986  0.59476  0.9915700000000001  1.0000
  C   C115      1.0  0.46522999999999987  0.6082300000000002  0.9584700000000002  1.0000
  C   C116      1.0  0.3690199999999999  0.61352  0.95617  1.0000
  C   C117      1.0  0.4966199999999999  0.57641  0.92087  1.0000
  C   C118      1.0  0.4468299999999999  0.55983  0.9951  1.0000
  C   C119      1.0  0.4638899999999999  0.54614  0.02506  1.0000
  C   C120      1.0  0.4209499999999999  0.50638  0.02676  1.0000
  O   O5        1.0  0.43008999999999986  0.50494  0.06344  1.0000
  C   C121      1.0  0.4521999999999999  0.46502999999999994  0.99418  1.0000
  C   C122      1.0  0.38262  0.4442  0.96272  1.0000
  C   C123      1.0  0.3628699999999999  0.3989  0.96135  1.0000
  C   C124      1.0  0.44403  0.37297  0.94875  1.0000
  C   C125      1.0  0.5191499999999998  0.39690000000000003  0.9748600000000001  1.0000
  N   N133      1.0  0.4879399999999998  0.43245  0.008180000000000078  1.0000
  C   C126      1.0  0.4223699999999999  0.4145  0.02639  1.0000
  C   C127      1.0  0.3402199999999999  0.40299  0.0022800000000000003  1.0000
  C   C128      1.0  0.52453  0.56825  0.05213  1.0000
  C   C129      1.0  0.57621  0.59983  0.0475  1.0000
  C   C130      1.0  0.6587499999999997  0.60869  0.0699  1.0000
  C   C131      1.0  0.7125099999999998  0.56837  0.05397  1.0000
  C   C132      1.0  0.6421799999999998  0.62228  0.11309  1.0000
  H   H117      1.0  0.4932699999999999  0.63962  0.96241  1.0000
  H   H118      1.0  0.34419  0.6306  0.98482  1.0000
  H   H119      1.0  0.3351099999999999  0.58264  0.94407  1.0000
  H   H120      1.0  0.3546000000000001  0.63185  0.93775  1.0000
  H   H121      1.0  0.56566  0.57137  0.92259  1.0000
  H   H122      1.0  0.4848699999999999  0.58846  0.89756  1.0000
  H   H123      1.0  0.4634199999999999  0.5454100000000001  0.9138000000000001  1.0000
  H   H124      1.0  0.3992399999999998  0.54273  0.9742000000000001  1.0000
  H   H125      1.0  0.3520399999999999  0.51017  0.02305  1.0000
  H   H126      1.0  0.4888699999999999  0.49643999999999994  0.06661  1.0000
  H   H127      1.0  0.50482  0.47526999999999997  0.97984  1.0000
  H   H128      1.0  0.3232599999999999  0.46245  0.96748  1.0000
  H   H129      1.0  0.40555  0.4428700000000001  0.9345500000000001  1.0000
  H   H130      1.0  0.3106599999999999  0.38542  0.94128  1.0000
  H   H131      1.0  0.4573899999999999  0.36829  0.91868  1.0000
  H   H132      1.0  0.4349999999999999  0.34132  0.95071  1.0000
  H   H133      1.0  0.5639799999999998  0.40882000000000007  0.9583500000000001  1.0000
  H   H134      1.0  0.5556799999999997  0.3747400000000001  0.9845100000000001  1.0000
  H   H135      1.0  0.4465399999999999  0.38527  0.02914  1.0000
  H   H136      1.0  0.4093999999999999  0.43512  0.05587  1.0000
  H   H137      1.0  0.29665999999999987  0.4301  0.01342  1.0000
  H   H138      1.0  0.5392199999999998  0.55816  0.07549  1.0000
  H   H139      1.0  0.69541  0.63449  0.06554  1.0000
  H   H140      1.0  0.68105  0.54081  0.05781  1.0000
  H   H141      1.0  0.7222099999999998  0.56078  0.02312  1.0000
  H   H142      1.0  0.7759499999999998  0.57129  0.06706  1.0000
  H   H143      1.0  0.66941  0.59964  0.12509  1.0000
  H   H144      1.0  0.6703899999999999  0.65398  0.12847  1.0000
  H   H145      1.0  0.5737199999999998  0.62524  0.11990000000000002  1.0000
  C   C133      1.0  0.57962  0.40285  0.51382  1.0000
  C   C134      1.0  0.5185699999999998  0.42483  0.54133  1.0000
  C   C135      1.0  0.4839599999999999  0.40804  0.57099  1.0000
  C   C136      1.0  0.3868999999999999  0.40519  0.56903  1.0000
  C   C137      1.0  0.51467  0.43542  0.61119  1.0000
  C   C138      1.0  0.48951999999999996  0.46403000000000005  0.54219  1.0000
  C   C139      1.0  0.5195599999999998  0.4822200000000001  0.5168600000000002  1.0000
  C   C140      1.0  0.51603  0.52944  0.52421  1.0000
  O   O6        1.0  0.59932  0.54593  0.53104  1.0000
  C   C141      1.0  0.4567799999999999  0.55662  0.55673  1.0000
  C   C142      1.0  0.3612999999999999  0.55278  0.5437300000000002  1.0000
  C   C143      1.0  0.33075  0.59667  0.54531  1.0000
  C   C144      1.0  0.3355299999999999  0.62639  0.58732  1.0000
  C   C145      1.0  0.4258599999999999  0.62492  0.60327  1.0000
  N   N134      1.0  0.48425999999999997  0.6019500000000001  0.5723200000000003  1.0000
  C   C146      1.0  0.4802299999999999  0.62127  0.54272  1.0000
  C   C147      1.0  0.3938699999999999  0.61207  0.5219600000000001  1.0000
  C   C148      1.0  0.56582  0.45703  0.48584  1.0000
  C   C149      1.0  0.59718  0.41753  0.48372000000000004  1.0000
  C   C150      1.0  0.6520799999999998  0.39379  0.4501  1.0000
  C   C151      1.0  0.7304699999999997  0.4200200000000001  0.4483300000000001  1.0000
  C   C152      1.0  0.6005099999999998  0.38043000000000005  0.41282  1.0000
  H   H146      1.0  0.5053299999999997  0.37542  0.56528  1.0000
  H   H147      1.0  0.3653499999999999  0.39297  0.53893  1.0000
  H   H148      1.0  0.3578899999999999  0.43645  0.58316  1.0000
  H   H149      1.0  0.36393  0.38367  0.58326  1.0000
  H   H150      1.0  0.4969599999999999  0.42006000000000016  0.6316100000000002  1.0000
  H   H151      1.0  0.48615999999999987  0.46721000000000007  0.6205000000000002  1.0000
  H   H152      1.0  0.5846199999999998  0.4395  0.6122  1.0000
  H   H153      1.0  0.4454599999999999  0.4804800000000001  0.5638  1.0000
  H   H154      1.0  0.4939699999999999  0.53247  0.49726000000000004  1.0000
  H   H155      1.0  0.6197399999999997  0.54313  0.555  1.0000
  H   H156      1.0  0.4633499999999999  0.54547  0.58082  1.0000
  H   H157      1.0  0.3515999999999999  0.52917  0.51458  1.0000
  H   H158      1.0  0.3224499999999999  0.54177  0.56289  1.0000
  H   H159      1.0  0.26601999999999987  0.59457  0.53314  1.0000
  H   H160      1.0  0.2887999999999999  0.61622  0.60419  1.0000
  H   H161      1.0  0.3204399999999999  0.65916  0.58987  1.0000
  H   H162      1.0  0.4237799999999999  0.60956  0.62483  1.0000
  H   H163      1.0  0.44979999999999987  0.65723  0.61871  1.0000
  H   H164      1.0  0.4895199999999999  0.65569  0.5559900000000002  1.0000
  H   H165      1.0  0.53233  0.60985  0.5221900000000002  1.0000
  H   H166      1.0  0.40289999999999987  0.58496  0.49496  1.0000
  H   H167      1.0  0.58228  0.46992  0.46438  1.0000
  H   H168      1.0  0.6759499999999998  0.36431  0.45209  1.0000
  H   H169      1.0  0.71501  0.45239  0.45011  1.0000
  H   H170      1.0  0.7752199999999998  0.42222000000000004  0.4719400000000001  1.0000
  H   H171      1.0  0.76167  0.4047700000000001  0.4208400000000001  1.0000
  H   H172      1.0  0.63926  0.36009  0.38901  1.0000
  H   H173      1.0  0.54335  0.36196000000000006  0.4148100000000001  1.0000
  H   H174      1.0  0.58057  0.40826  0.40615  1.0000
  C   C153      1.0  0.17045999999999997  0.0864  0.00178  1.0000
  C   C154      1.0  0.12266999999999997  0.057240000000000055  0.9707300000000001  1.0000
  C   C155      1.0  0.1026  0.06505000000000004  0.9340600000000001  1.0000
  C   C156      1.0  0.008490000000000109  0.056690000000000025  0.9223  1.0000
  C   C157      1.0  0.15865999999999994  0.03785000000000009  0.9017700000000002  1.0000
  C   C158      1.0  0.09403  0.018919999999999996  0.97289  1.0000
  C   C159      1.0  0.10836999999999997  0.00866  0.00502  1.0000
  C   C160      1.0  0.08732999999999998  0.96502  0.00628  1.0000
  O   O7        1.0  0.16330999999999996  0.94653  0.011700000000000004  1.0000
  C   C161      1.0  0.03558000000000001  0.9329600000000001  0.9717100000000001  1.0000
  C   C162      1.0  0.9391999999999998  0.94369  0.97144  1.0000
  C   C163      1.0  0.8841399999999998  0.9062800000000001  0.9737400000000002  1.0000
  C   C164      1.0  0.9026699999999998  0.8673000000000001  0.9382100000000001  1.0000
  C   C165      1.0  0.9994399999999998  0.8595000000000002  0.9359800000000001  1.0000
  N   N135      1.0  0.04441  0.8887800000000001  0.9702800000000001  1.0000
  C   C166      1.0  0.006809999999999982  0.88339  0.00405  1.0000
  C   C167      1.0  0.91458  0.89846  0.00971  1.0000
  C   C168      1.0  0.14827  0.03893  0.03673  1.0000
  C   C169      1.0  0.17990999999999993  0.0777  0.03587  1.0000
  C   C170      1.0  0.2252  0.10808  0.07136  1.0000
  C   C171      1.0  0.30312  0.08812  0.08232  1.0000
  C   C172      1.0  0.16422  0.1239  0.10469  1.0000
  H   H175      1.0  0.11446999999999999  0.09861000000000004  0.9381300000000001  1.0000
  H   H176      1.0  0.9674599999999998  0.07039999999999999  0.9473  1.0000
  H   H177      1.0  0.9932799999999999  0.022470000000000042  0.9091900000000002  1.0000
  H   H178      1.0  0.9928699999999998  0.07119  0.901  1.0000
  H   H179      1.0  0.22668999999999995  0.04329999999999999  0.91005  1.0000
  H   H180      1.0  0.14823  0.045970000000000025  0.8760800000000001  1.0000
  H   H181      1.0  0.14391  0.0037599999999999908  0.89452  1.0000
  H   H182      1.0  0.061119999999999994  0.99698  0.9486600000000001  1.0000
  H   H183      1.0  0.049129999999999986  0.9707399999999999  0.03214  1.0000
  H   H184      1.0  0.19807999999999998  0.9418200000000001  0.9888  1.0000
  H   H185      1.0  0.06474  0.93369  0.94532  1.0000
  H   H186      1.0  0.9244099999999997  0.97316  0.99542  1.0000
  H   H187      1.0  0.9230499999999998  0.94927  0.9448800000000002  1.0000
  H   H188      1.0  0.8158099999999998  0.9140400000000001  0.9752500000000001  1.0000
  H   H189      1.0  0.8798199999999998  0.8725100000000001  0.9122900000000002  1.0000
  H   H190      1.0  0.8683  0.83918  0.93954  1.0000
  H   H191      1.0  0.025009999999999998  0.8634100000000001  0.9100800000000001  1.0000
  H   H192      1.0  0.01183999999999999  0.82632  0.9330500000000002  1.0000
  H   H193      1.0  0.009139999999999702  0.8496  0.00025000000000000006  1.0000
  H   H194      1.0  0.04428999999999999  0.90152  0.02983  1.0000
  H   H195      1.0  0.9158699999999997  0.92992  0.03308  1.0000
  H   H196      1.0  0.15684999999999993  0.03145  0.06212  1.0000
  H   H197      1.0  0.24917999999999996  0.13643  0.0667  1.0000
  H   H198      1.0  0.28549999999999986  0.0603  0.08967  1.0000
  H   H199      1.0  0.34841  0.07839  0.058550000000000005  1.0000
  H   H200      1.0  0.33565  0.11144000000000003  0.10747  1.0000
  H   H201      1.0  0.19605999999999996  0.14859  0.12921  1.0000
  H   H202      1.0  0.10783999999999998  0.13804  0.09637  1.0000
  H   H203      1.0  0.1429  0.09788000000000001  0.11393000000000002  1.0000
  C   C173      1.0  0.9098399999999998  0.11685000000000004  0.5107300000000001  1.0000
  C   C174      1.0  0.9265799999999997  0.07491999999999999  0.48534  1.0000
  C   C175      1.0  0.8767399999999997  0.05335000000000002  0.44817000000000007  1.0000
  C   C176      1.0  0.8379799999999997  0.010810000000000031  0.44613000000000014  1.0000
  C   C177      1.0  0.9321899999999997  0.047640000000000036  0.4135900000000001  1.0000
  C   C178      1.0  0.9883699999999997  0.051040000000000016  0.49526000000000003  1.0000
  C   C179      1.0  0.0246  0.06408  0.53164  1.0000
  C   C180      1.0  0.09062999999999997  0.03836000000000001  0.54391  1.0000
  O   O8        1.0  0.15516999999999995  0.06601999999999998  0.56522  1.0000
  C   C181      1.0  0.13211999999999993  0.000909999999999974  0.51168  1.0000
  C   C182      1.0  0.07464  0.96037  0.49451000000000006  1.0000
  C   C183      1.0  0.12553999999999996  0.92094  0.49277  1.0000
  C   C184      1.0  0.20722999999999994  0.9205  0.47101  1.0000
  C   C185      1.0  0.2597799999999999  0.96156  0.49133000000000004  1.0000
  N   N136      1.0  0.21498  0.98973  0.52477  1.0000
  C   C186      1.0  0.20402999999999993  0.96723  0.55175  1.0000
  C   C187      1.0  0.14916  0.9262000000000001  0.53385  1.0000
  C   C188      1.0  0.9975099999999999  0.10208000000000012  0.5585400000000003  1.0000
  C   C189      1.0  0.9436399999999998  0.12989000000000003  0.5489400000000001  1.0000
  C   C190      1.0  0.9227799999999998  0.17256  0.5799  1.0000
  C   C191      1.0  0.98687  0.18855000000000002  0.61348  1.0000
  C   C192      1.0  0.83386  0.17099  0.59539  1.0000
  H   H204      1.0  0.8212499999999998  0.07220000000000003  0.4464  1.0000
  H   H205      1.0  0.80151  0.014939999999999936  0.4722  1.0000
  H   H206      1.0  0.88727  0.98678  0.4429600000000001  1.0000
  H   H207      1.0  0.7939299999999998  0.99847  0.42128  1.0000
  H   H208      1.0  0.9602199999999997  0.07839  0.4152  1.0000
  H   H209      1.0  0.8931299999999998  0.034899999999999994  0.38712  1.0000
  H   H210      1.0  0.9843699999999997  0.02542000000000001  0.41194  1.0000
  H   H211      1.0  0.005609999999999893  0.021360000000000014  0.47437  1.0000
  H   H212      1.0  0.05824999999999999  0.02536000000000009  0.5634100000000002  1.0000
  H   H213      1.0  0.18376999999999993  0.07807  0.54797  1.0000
  H   H214      1.0  0.14570999999999995  0.013090000000000003  0.48852  1.0000
  H   H215      1.0  0.016550000000000006  0.96265  0.5115300000000002  1.0000
  H   H216      1.0  0.05358999999999999  0.9564099999999999  0.46521000000000007  1.0000
  H   H217      1.0  0.08715  0.89182  0.47859000000000007  1.0000
  H   H218      1.0  0.19047999999999995  0.91779  0.44151000000000007  1.0000
  H   H219      1.0  0.24531999999999995  0.8927900000000001  0.46967000000000003  1.0000
  H   H220      1.0  0.2721599999999999  0.97846  0.47149  1.0000
  H   H221      1.0  0.3229199999999999  0.95371  0.5001900000000001  1.0000
  H   H222      1.0  0.26764  0.95999  0.56069  1.0000
  H   H223      1.0  0.1746  0.98845  0.57822  1.0000
  H   H224      1.0  0.08899999999999998  0.93181  0.54988  1.0000
  H   H225      1.0  0.022079999999999992  0.11032000000000003  0.58717  1.0000
  H   H226      1.0  0.9250599999999998  0.19751  0.56761  1.0000
  H   H227      1.0  0.9801199999999999  0.17100000000000007  0.6331200000000002  1.0000
  H   H228      1.0  0.05301  0.18581  0.60342  1.0000
  H   H229      1.0  0.97602  0.22244  0.63005  1.0000
  H   H230      1.0  0.8162699999999998  0.2028700000000001  0.6150500000000002  1.0000
  H   H231      1.0  0.7856199999999999  0.16029000000000002  0.57218  1.0000
  H   H232      1.0  0.8321099999999998  0.14886999999999995  0.61105  1.0000
  C   C193      1.0  0.5411099999999998  0.14728  0.29463  1.0000
  C   C194      1.0  0.4654399999999999  0.16781  0.29182  1.0000
  C   C195      1.0  0.42120999999999986  0.19674000000000003  0.3266900000000001  1.0000
  C   C196      1.0  0.3299499999999999  0.18068  0.32789  1.0000
  C   C197      1.0  0.4227899999999999  0.24234  0.32788  1.0000
  C   C198      1.0  0.43011  0.16073  0.25575  1.0000
  C   C199      1.0  0.4708499999999999  0.13529  0.22299  1.0000
  C   C200      1.0  0.4520699999999999  0.14158  0.18555000000000005  1.0000
  O   O9        1.0  0.5045199999999997  0.11669000000000003  0.15639  1.0000
  C   C201      1.0  0.4601799999999999  0.18980000000000002  0.19128000000000006  1.0000
  C   C202      1.0  0.37292  0.21189000000000005  0.19432000000000005  1.0000
  C   C203      1.0  0.3769099999999999  0.24167000000000002  0.17181  1.0000
  C   C204      1.0  0.4553199999999999  0.27132  0.18681  1.0000
  C   C205      1.0  0.5368099999999998  0.24479000000000004  0.17813  1.0000
  N   N137      1.0  0.5152  0.19898999999999997  0.16311  1.0000
  C   C206      1.0  0.4713299999999999  0.18925000000000003  0.12582  1.0000
  C   C207      1.0  0.3877099999999999  0.21356  0.12966  1.0000
  C   C208      1.0  0.5327299999999998  0.10764  0.22675  1.0000
  C   C209      1.0  0.5659099999999998  0.11213  0.26297  1.0000
  C   C210      1.0  0.6247899999999998  0.07994  0.26941  1.0000
  C   C211      1.0  0.6540799999999998  0.04507000000000002  0.23301000000000002  1.0000
  C   C212      1.0  0.5798499999999998  0.05964999999999998  0.29464  1.0000
  H   H233      1.0  0.45484999999999987  0.1962  0.35249  1.0000
  H   H234      1.0  0.3310999999999999  0.14877000000000004  0.32972  1.0000
  H   H235      1.0  0.2922299999999999  0.17908  0.3024  1.0000
  H   H236      1.0  0.29589  0.20174  0.35273  1.0000
  H   H237      1.0  0.48925999999999986  0.25301  0.32709  1.0000
  H   H238      1.0  0.3945299999999999  0.26364  0.35457  1.0000
  H   H239      1.0  0.3869599999999999  0.24521  0.30343  1.0000
  H   H240      1.0  0.3755099999999999  0.17835  0.25294  1.0000
  H   H241      1.0  0.3861099999999999  0.13012  0.17702  1.0000
  H   H242      1.0  0.56367  0.12724  0.16313  1.0000
  H   H243      1.0  0.4922699999999999  0.20567  0.21944  1.0000
  H   H244      1.0  0.3194099999999999  0.189  0.18324000000000001  1.0000
  H   H245      1.0  0.35932999999999987  0.23029  0.22455000000000003  1.0000
  H   H246      1.0  0.31757999999999986  0.25969  0.17498  1.0000
  H   H247      1.0  0.4501199999999999  0.28804  0.21798  1.0000
  H   H248      1.0  0.4593199999999999  0.29612  0.17427  1.0000
  H   H249      1.0  0.57672  0.25277  0.20433  1.0000
  H   H250      1.0  0.5758699999999998  0.25306  0.15737  1.0000
  H   H251      1.0  0.5138099999999998  0.19815  0.10683000000000002  1.0000
  H   H252      1.0  0.4589999999999999  0.15483  0.11222  1.0000
  H   H253      1.0  0.3342199999999999  0.19022  0.1214  1.0000
  H   H254      1.0  0.5564599999999997  0.08391000000000003  0.20147000000000007  1.0000
  H   H255      1.0  0.6830199999999997  0.09662000000000001  0.28451  1.0000
  H   H256      1.0  0.5992899999999998  0.02562000000000002  0.21699000000000004  1.0000
  H   H257      1.0  0.68823  0.05908  0.21469  1.0000
  H   H258      1.0  0.6984  0.023829999999999994  0.24028  1.0000
  H   H259      1.0  0.6256699999999997  0.04178000000000002  0.30525  1.0000
  H   H260      1.0  0.5514799999999997  0.08357  0.31966  1.0000
  H   H261      1.0  0.52688  0.03874999999999999  0.27865  1.0000
  C   C213      1.0  0.5754899999999997  0.83481  0.22396  1.0000
  C   C214      1.0  0.5275799999999998  0.8713  0.24317  1.0000
  C   C215      1.0  0.5400099999999998  0.9128  0.23709000000000002  1.0000
  C   C216      1.0  0.5651  0.9485  0.27400000000000013  1.0000
  C   C217      1.0  0.46062  0.92351  0.21861000000000005  1.0000
  C   C218      1.0  0.4652999999999999  0.86923  0.26892  1.0000
  C   C219      1.0  0.4497199999999999  0.83231  0.27642  1.0000
  C   C220      1.0  0.3889199999999999  0.83207  0.30757  1.0000
  O   O10       1.0  0.30669  0.84179  0.29886  1.0000
  C   C221      1.0  0.4198499999999999  0.86274  0.3474700000000001  1.0000
  C   C222      1.0  0.49780999999999986  0.84646  0.36382  1.0000
  C   C223      1.0  0.47612999999999983  0.84576  0.40367  1.0000
  C   C224      1.0  0.4551099999999999  0.8910900000000002  0.42953  1.0000
  C   C225      1.0  0.38535999999999987  0.90824  0.41004  1.0000
  N   N138      1.0  0.3503699999999998  0.87467  0.3757  1.0000
  C   C226      1.0  0.3205199999999999  0.8386600000000001  0.3865000000000001  1.0000
  C   C227      1.0  0.39616999999999997  0.81746  0.39846  1.0000
  C   C228      1.0  0.4891799999999999  0.79534  0.25392000000000003  1.0000
  C   C229      1.0  0.5485499999999998  0.79556  0.22634000000000007  1.0000
  C   C230      1.0  0.57779  0.75331  0.1981  1.0000
  C   C231      1.0  0.50191  0.72603  0.17654  1.0000
  C   C232      1.0  0.63172  0.72967  0.21779  1.0000
  H   H262      1.0  0.5924199999999997  0.91117  0.21784  1.0000
  H   H263      1.0  0.61637  0.93846  0.28912000000000004  1.0000
  H   H264      1.0  0.51053  0.95947  0.29318  1.0000
  H   H265      1.0  0.5902299999999998  0.9749500000000001  0.26661  1.0000
  H   H266      1.0  0.44376  0.89691  0.19191  1.0000
  H   H267      1.0  0.47294  0.95202  0.21142  1.0000
  H   H268      1.0  0.4055999999999999  0.92961  0.23786000000000002  1.0000
  H   H269      1.0  0.4305099999999999  0.89728  0.28421  1.0000
  H   H270      1.0  0.38512999999999986  0.79978  0.3085  1.0000
  H   H271      1.0  0.3064  0.87212  0.30221000000000003  1.0000
  H   H272      1.0  0.44141  0.89212  0.3434  1.0000
  H   H273      1.0  0.5164299999999997  0.81449  0.34462  1.0000
  H   H274      1.0  0.55371  0.8675600000000001  0.3662900000000001  1.0000
  H   H275      1.0  0.5309499999999998  0.83354  0.4147500000000001  1.0000
  H   H276      1.0  0.5129499999999998  0.91154  0.4348500000000001  1.0000
  H   H277      1.0  0.43203  0.89141  0.45733000000000007  1.0000
  H   H278      1.0  0.4110999999999999  0.93497  0.40279  1.0000
  H   H279      1.0  0.33431  0.9215500000000001  0.42958000000000013  1.0000
  H   H280      1.0  0.27427  0.8496000000000001  0.4097  1.0000
  H   H281      1.0  0.2856299999999999  0.81525  0.36216  1.0000
  H   H282      1.0  0.4089799999999999  0.79001  0.37206  1.0000
  H   H283      1.0  0.47244  0.76597  0.25742  1.0000
  H   H284      1.0  0.61721  0.7582800000000001  0.17585000000000006  1.0000
  H   H285      1.0  0.46319  0.71447  0.19536000000000006  1.0000
  H   H286      1.0  0.4609699999999999  0.74464  0.16446  1.0000
  H   H287      1.0  0.5245399999999998  0.69837  0.1526  1.0000
  H   H288      1.0  0.5948899999999998  0.7222  0.23952  1.0000
  H   H289      1.0  0.65416  0.6997  0.19657  1.0000
  H   H290      1.0  0.68807  0.74908  0.23193  1.0000
  C   C233      1.0  0.4740999999999999  0.84585  0.73836  1.0000
  C   C234      1.0  0.4656399999999999  0.8834600000000001  0.7700900000000003  1.0000
  C   C235      1.0  0.4449399999999999  0.92426  0.76429  1.0000
  C   C236      1.0  0.5216699999999997  0.95442  0.7761300000000002  1.0000
  C   C237      1.0  0.3645199999999999  0.9444700000000001  0.78498  1.0000
  C   C238      1.0  0.4772299999999999  0.8826500000000002  0.8070500000000003  1.0000
  C   C239      1.0  0.50275  0.8457  0.81246  1.0000
  C   C240      1.0  0.4796399999999999  0.83635  0.84796  1.0000
  O   O11       1.0  0.3928299999999999  0.82573  0.8455000000000001  1.0000
  C   C241      1.0  0.50151  0.8705300000000001  0.8878800000000002  1.0000
  C   C242      1.0  0.59864  0.8748300000000001  0.8979300000000002  1.0000
  C   C243      1.0  0.61497  0.86234  0.9332500000000001  1.0000
  C   C244      1.0  0.5677899999999996  0.89386  0.9669500000000001  1.0000
  C   C245      1.0  0.4733099999999999  0.8951599999999998  0.95553  1.0000
  N   N139      1.0  0.4535099999999998  0.86157  0.91833  1.0000
  C   C246      1.0  0.47776999999999986  0.82054  0.92114  1.0000
  C   C247      1.0  0.5753499999999998  0.81782  0.9235000000000001  1.0000
  C   C248      1.0  0.5297  0.8120100000000001  0.7806300000000003  1.0000
  C   C249      1.0  0.5156  0.81156  0.74355  1.0000
  C   C250      1.0  0.5395299999999997  0.7730999999999999  0.7095  1.0000
  C   C251      1.0  0.4859699999999999  0.73403  0.7068900000000001  1.0000
  C   C252      1.0  0.6343199999999998  0.76428  0.7108200000000002  1.0000
  H   H291      1.0  0.43342999999999987  0.9180699999999999  0.73366  1.0000
  H   H292      1.0  0.58041  0.9374500000000001  0.76389  1.0000
  H   H293      1.0  0.5292599999999997  0.9681699999999999  0.8075200000000001  1.0000
  H   H294      1.0  0.51452  0.97995  0.7647  1.0000
  H   H295      1.0  0.31175999999999987  0.92081  0.77758  1.0000
  H   H296      1.0  0.3455  0.97093  0.7760200000000002  1.0000
  H   H297      1.0  0.37461999999999995  0.9569799999999999  0.81626  1.0000
  H   H298      1.0  0.46138  0.9099900000000001  0.8312600000000001  1.0000
  H   H299      1.0  0.5137399999999998  0.8074200000000001  0.8464100000000002  1.0000
  H   H300      1.0  0.3608699999999999  0.85169  0.84844  1.0000
  H   H301      1.0  0.47992999999999986  0.9013  0.88733  1.0000
  H   H302      1.0  0.6365  0.8547700000000001  0.8736  1.0000
  H   H303      1.0  0.62045  0.9080000000000001  0.90439  1.0000
  H   H304      1.0  0.6839499999999997  0.86265  0.93956  1.0000
  H   H305      1.0  0.59734  0.92581  0.9750000000000001  1.0000
  H   H306      1.0  0.5725199999999998  0.8839399999999998  0.99195  1.0000
  H   H307      1.0  0.45876  0.9265900000000001  0.9542200000000001  1.0000
  H   H308      1.0  0.4316399999999999  0.8911700000000001  0.9776200000000002  1.0000
  H   H309      1.0  0.4483199999999999  0.81712  0.94658  1.0000
  H   H310      1.0  0.45173999999999986  0.79378  0.89653  1.0000
  H   H311      1.0  0.5967  0.79943  0.8942300000000002  1.0000
  H   H312      1.0  0.55399  0.78409  0.78444  1.0000
  H   H313      1.0  0.52804  0.7794800000000001  0.68293  1.0000
  H   H314      1.0  0.4924699999999999  0.7266100000000001  0.7331600000000003  1.0000
  H   H315      1.0  0.4179599999999999  0.73918  0.70239  1.0000
  H   H316      1.0  0.5065899999999998  0.70623  0.68253  1.0000
  H   H317      1.0  0.6528199999999997  0.74043  0.6833700000000003  1.0000
  H   H318      1.0  0.6727299999999998  0.7935  0.71572  1.0000
  H   H319      1.0  0.64891  0.75182  0.7336300000000002  1.0000
  C   C253      1.0  0.4537599999999999  0.17006999999999994  0.78927  1.0000
  C   C254      1.0  0.4584299999999999  0.20142  0.77258  1.0000
  C   C255      1.0  0.4304199999999999  0.24669999999999997  0.79505  1.0000
  C   C256      1.0  0.41879  0.27489  0.77133  1.0000
  C   C257      1.0  0.4923999999999999  0.26816  0.82818  1.0000
  C   C258      1.0  0.4861899999999999  0.18961000000000006  0.73485  1.0000
  C   C259      1.0  0.5051999999999998  0.14755000000000007  0.7132500000000003  1.0000
  C   C260      1.0  0.5123799999999997  0.13090000000000002  0.6697200000000001  1.0000
  O   O12       1.0  0.5940499999999997  0.11609000000000008  0.6584800000000002  1.0000
  C   C261      1.0  0.4808399999999999  0.16172000000000006  0.6502400000000003  1.0000
  C   C262      1.0  0.45416999999999996  0.14187  0.60746  1.0000
  C   C263      1.0  0.4711999999999999  0.17524  0.58858  1.0000
  C   C264      1.0  0.43572  0.21799999999999994  0.61477  1.0000
  C   C265      1.0  0.48649  0.23309000000000005  0.65295  1.0000
  N   N140      1.0  0.5391699999999998  0.19847999999999993  0.65626  1.0000
  C   C266      1.0  0.6063299999999998  0.18822  0.6268  1.0000
  C   C267      1.0  0.5685500000000001  0.17963  0.58629  1.0000
  C   C268      1.0  0.5133699999999998  0.11912999999999994  0.7322  1.0000
  C   C269      1.0  0.48966  0.13004000000000004  0.77037  1.0000
  C   C270      1.0  0.4985799999999999  0.09765000000000013  0.7894500000000002  1.0000
  C   C271      1.0  0.5920599999999998  0.08763999999999994  0.7931  1.0000
  C   C272      1.0  0.44568999999999986  0.057729999999999955  0.76874  1.0000
  H   H320      1.0  0.3672199999999998  0.24534  0.80722  1.0000
  H   H321      1.0  0.37473  0.25939  0.74698  1.0000
  H   H322      1.0  0.4804699999999999  0.28188  0.76076  1.0000
  H   H323      1.0  0.39069  0.30536000000000013  0.7889900000000002  1.0000
  H   H324      1.0  0.4967499999999999  0.24982000000000004  0.8472500000000001  1.0000
  H   H325      1.0  0.4700699999999999  0.30017  0.84531  1.0000
  H   H326      1.0  0.5565  0.271  0.81741  1.0000
  H   H327      1.0  0.4892499999999999  0.2128  0.72176  1.0000
  H   H328      1.0  0.4686299999999999  0.10303000000000001  0.65915  1.0000
  H   H329      1.0  0.63542  0.13685000000000005  0.67534  1.0000
  H   H330      1.0  0.41989  0.17321999999999996  0.66482  1.0000
  H   H331      1.0  0.4902799999999999  0.1127300000000001  0.5929300000000002  1.0000
  H   H332      1.0  0.38563999999999987  0.13298000000000001  0.6047  1.0000
  H   H333      1.0  0.44104  0.16513  0.55987  1.0000
  H   H334      1.0  0.36757  0.21398  0.62007  1.0000
  H   H335      1.0  0.4394999999999999  0.24196000000000004  0.6011  1.0000
  H   H336      1.0  0.44222  0.24444  0.6771  1.0000
  H   H337      1.0  0.52636  0.26082  0.65543  1.0000
  H   H338      1.0  0.6550799999999998  0.21376999999999996  0.63504  1.0000
  H   H339      1.0  0.64195  0.1600900000000001  0.6259300000000002  1.0000
  H   H340      1.0  0.59273  0.1491  0.5665  1.0000
  H   H341      1.0  0.5340799999999998  0.08744999999999999  0.71642  1.0000
  H   H342      1.0  0.4751499999999999  0.11010000000000005  0.81877  1.0000
  H   H343      1.0  0.6215199999999997  0.07361000000000001  0.76484  1.0000
  H   H344      1.0  0.6275999999999998  0.11705  0.8098400000000001  1.0000
  H   H345      1.0  0.5978899999999998  0.06514999999999999  0.80826  1.0000
  H   H346      1.0  0.4397699999999999  0.038840000000000104  0.7872400000000003  1.0000
  H   H347      1.0  0.38073  0.06618999999999997  0.76278  1.0000
  H   H348      1.0  0.4750299999999999  0.03832000000000001  0.74154  1.0000
  C   C273      1.0  0.09157999999999997  0.67854  0.31192  1.0000
  C   C274      1.0  0.07186999999999986  0.64232  0.27983  1.0000
  C   C275      1.0  0.08702999999999972  0.5988100000000001  0.2819  1.0000
  C   C276      1.0  0.08092000000000009  0.56197  0.24358000000000002  1.0000
  C   C277      1.0  0.02376  0.59105  0.30946  1.0000
  C   C278      1.0  0.02977000000000007  0.64762  0.24867  1.0000
  C   C279      1.0  0.004409999999999803  0.68784  0.25019  1.0000
  C   C280      1.0  0.9515999999999997  0.69633  0.21981  1.0000
  O   O13       1.0  0.8689399999999998  0.70522  0.23378000000000002  1.0000
  C   C281      1.0  0.9493699999999998  0.66278  0.17844  1.0000
  C   C282      1.0  0.02273999999999998  0.66794  0.15245  1.0000
  C   C283      1.0  0.9838899999999998  0.67474  0.11692000000000001  1.0000
  C   C284      1.0  0.92984  0.63536  0.09548  1.0000
  C   C285      1.0  0.8630199999999998  0.62893  0.12261  1.0000
  N   N141      1.0  0.8658999999999998  0.6632699999999999  0.16004  1.0000
  C   C286      1.0  0.8521  0.70363  0.15416  1.0000
  C   C287      1.0  0.9261999999999998  0.71344  0.13222  1.0000
  C   C288      1.0  0.012919999999999819  0.72164  0.28481  1.0000
  C   C289      1.0  0.05244  0.71698  0.31631  1.0000
  C   C290      1.0  0.047049999999999974  0.75195  0.35517  1.0000
  C   C291      1.0  0.9543299999999999  0.75778  0.36784  1.0000
  C   C292      1.0  0.08621999999999995  0.79354  0.35534  1.0000
  H   H349      1.0  0.15219999999999995  0.5984  0.29326  1.0000
  H   H350      1.0  0.12383999999999971  0.56769  0.22277  1.0000
  H   H351      1.0  0.014890000000000068  0.55716  0.2321  1.0000
  H   H352      1.0  0.10010000000000006  0.53234  0.24731  1.0000
  H   H353      1.0  0.0271300000000001  0.61707  0.33751  1.0000
  H   H354      1.0  0.03799999999999981  0.56113  0.31379  1.0000
  H   H355      1.0  0.9578199999999998  0.58929  0.29821000000000003  1.0000
  H   H356      1.0  0.015700000000000044  0.62028  0.22413  1.0000
  H   H357      1.0  0.9778299999999998  0.72594  0.2177  1.0000
  H   H358      1.0  0.8455299999999998  0.67911  0.23631  1.0000
  H   H359      1.0  0.9543299999999998  0.63105  0.17998  1.0000
  H   H360      1.0  0.06668000000000007  0.69454  0.16793  1.0000
  H   H361      1.0  0.061609999999999936  0.63898  0.14301  1.0000
  H   H362      1.0  0.03424999999999989  0.67974  0.09859  1.0000
  H   H363      1.0  0.9705899999999997  0.60719  0.08469  1.0000
  H   H364      1.0  0.8976299999999998  0.63912  0.07069  1.0000
  H   H365      1.0  0.8701599999999998  0.59782  0.12579  1.0000
  H   H366      1.0  0.80093  0.6295200000000001  0.11023000000000002  1.0000
  H   H367      1.0  0.7907199999999998  0.70185  0.13882  1.0000
  H   H368      1.0  0.8447399999999998  0.73016  0.18156  1.0000
  H   H369      1.0  0.9663799999999998  0.73791  0.15373  1.0000
  H   H370      1.0  0.98577  0.75171  0.28759  1.0000
  H   H371      1.0  0.08232  0.7430799999999999  0.37682  1.0000
  H   H372      1.0  0.9136799999999999  0.76567  0.34716  1.0000
  H   H373      1.0  0.92931  0.72824  0.3705200000000001  1.0000
  H   H374      1.0  0.9494699999999999  0.78362  0.3958  1.0000
  H   H375      1.0  0.09396999999999998  0.81598  0.38507  1.0000
  H   H376      1.0  0.14966999999999994  0.7879500000000002  0.34228  1.0000
  H   H377      1.0  0.04545999999999999  0.80822  0.33946  1.0000
  C   C293      1.0  0.9885899999999997  0.28756000000000004  0.4100100000000001  1.0000
  C   C294      1.0  0.01815999999999973  0.32692  0.4089600000000001  1.0000
  C   C295      1.0  0.9914199999999997  0.36882  0.43742  1.0000
  C   C296      1.0  0.9320599999999998  0.3906  0.4183400000000001  1.0000
  C   C297      1.0  0.06825999999999975  0.39778  0.45538000000000006  1.0000
  C   C298      1.0  0.07041999999999993  0.32756  0.37906  1.0000
  C   C299      1.0  0.09508000000000004  0.29043  0.35058  1.0000
  C   C300      1.0  0.14591  0.28899  0.31617  1.0000
  O   O14       1.0  0.20898999999999995  0.25837  0.30986  1.0000
  C   C301      1.0  0.18728999999999996  0.33134  0.31742  1.0000
  C   C302      1.0  0.12488999999999996  0.36095  0.30655000000000004  1.0000
  C   C303      1.0  0.16747  0.37666  0.27711  1.0000
  C   C304      1.0  0.25367  0.39696000000000004  0.2945600000000001  1.0000
  C   C305      1.0  0.31080999999999986  0.36252  0.29961  1.0000
  N   N142      1.0  0.26202  0.32273  0.2924  1.0000
  C   C306      1.0  0.23443999999999995  0.30509  0.25198  1.0000
  C   C307      1.0  0.18135999999999997  0.3373  0.24074  1.0000
  C   C308      1.0  0.07221000000000011  0.25217000000000006  0.3535600000000001  1.0000
  C   C309      1.0  0.023889999999999963  0.24991  0.38356  1.0000
  C   C310      1.0  0.010219999999999894  0.20627  0.38571  1.0000
  C   C311      1.0  0.09574999999999977  0.18622  0.38857  1.0000
  C   C312      1.0  0.9587099999999997  0.17668  0.3514  1.0000
  H   H378      1.0  0.9569199999999998  0.36317  0.46044000000000007  1.0000
  H   H379      1.0  0.8786899999999997  0.36873  0.40447  1.0000
  H   H380      1.0  0.96496  0.3992899999999999  0.39626  1.0000
  H   H381      1.0  0.9082099999999997  0.41995000000000005  0.43991  1.0000
  H   H382      1.0  0.11444000000000008  0.38088  0.46678  1.0000
  H   H383      1.0  0.04773999999999967  0.42665000000000003  0.47868000000000005  1.0000
  H   H384      1.0  0.10100999999999999  0.40835000000000005  0.4343800000000001  1.0000
  H   H385      1.0  0.08825  0.35745  0.37732  1.0000
  H   H386      1.0  0.10117999999999981  0.27754  0.2915  1.0000
  H   H387      1.0  0.24651999999999993  0.26747  0.33276  1.0000
  H   H388      1.0  0.21140999999999993  0.34799  0.34695  1.0000
  H   H389      1.0  0.06389999999999985  0.34451  0.29466  1.0000
  H   H390      1.0  0.10964999999999997  0.38858999999999994  0.33218  1.0000
  H   H391      1.0  0.12696999999999994  0.39995  0.27081  1.0000
  H   H392      1.0  0.24364999999999995  0.42218000000000006  0.32267  1.0000
  H   H393      1.0  0.2847899999999999  0.41238  0.27659  1.0000
  H   H394      1.0  0.3387999999999999  0.37359000000000003  0.3287700000000001  1.0000
  H   H395      1.0  0.36516  0.35653  0.28001  1.0000
  H   H396      1.0  0.2918399999999999  0.29539  0.23478  1.0000
  H   H397      1.0  0.19719999999999993  0.27536  0.24574000000000001  1.0000
  H   H398      1.0  0.11839999999999982  0.32283  0.22937  1.0000
  H   H399      1.0  0.09255999999999995  0.22336  0.33189  1.0000
  H   H400      1.0  0.9749799999999997  0.20929000000000003  0.41173  1.0000
  H   H401      1.0  0.1333200000000001  0.17942000000000005  0.3624100000000001  1.0000
  H   H402      1.0  0.13380999999999973  0.20778  0.41283  1.0000
  H   H403      1.0  0.08523999999999976  0.15576  0.39262  1.0000
  H   H404      1.0  0.9397599999999998  0.14762  0.3566  1.0000
  H   H405      1.0  0.9002799999999997  0.19183  0.34639  1.0000
  H   H406      1.0  0.9965199999999997  0.16743  0.32511  1.0000
  C   C313      1.0  0.06586  0.26651  0.89735  1.0000
  C   C314      1.0  0.008480000000000007  0.23861000000000004  0.8696700000000003  1.0000
  C   C315      1.0  0.009450000000000002  0.1901200000000001  0.8560100000000003  1.0000
  C   C316      1.0  0.058079999999999986  0.17310999999999996  0.81879  1.0000
  C   C317      1.0  0.9198699999999999  0.16962000000000005  0.85073  1.0000
  C   C318      1.0  0.9529199999999999  0.2555  0.8501  1.0000
  C   C319      1.0  0.9500599999999999  0.29866  0.85666  1.0000
  C   C320      1.0  0.8865299999999998  0.31756  0.8366  1.0000
  O   O15       1.0  0.82437  0.33910000000000007  0.8624200000000001  1.0000
  C   C321      1.0  0.84434  0.28517  0.80027  1.0000
  C   C322      1.0  0.90724  0.26737  0.76668  1.0000
  C   C323      1.0  0.8586599999999998  0.2611900000000001  0.7291100000000003  1.0000
  C   C324      1.0  0.7763799999999997  0.23601000000000003  0.72962  1.0000
  C   C325      1.0  0.7185499999999998  0.26452  0.76159  1.0000
  N   N143      1.0  0.7676  0.30167  0.78761  1.0000
  C   C326      1.0  0.7918299999999998  0.3302000000000001  0.7672000000000002  1.0000
  C   C327      1.0  0.8359799999999997  0.30576000000000003  0.7291300000000001  1.0000
  C   C328      1.0  0.00808  0.32547  0.88252  1.0000
  C   C329      1.0  0.06799999999999998  0.31014  0.9022  1.0000
  C   C330      1.0  0.14422  0.33787000000000006  0.9218200000000001  1.0000
  C   C331      1.0  0.12942999999999993  0.38565  0.93396  1.0000
  C   C332      1.0  0.22263999999999995  0.32361  0.89626  1.0000
  H   H407      1.0  0.04145999999999999  0.1787600000000001  0.8764200000000002  1.0000
  H   H408      1.0  0.12015999999999998  0.18974999999999997  0.82203  1.0000
  H   H409      1.0  0.022210000000000056  0.17816  0.79529  1.0000
  H   H410      1.0  0.06926  0.13888000000000011  0.8111100000000001  1.0000
  H   H411      1.0  0.8750399999999999  0.19018  0.87138  1.0000
  H   H412      1.0  0.9219899999999999  0.13894  0.85506  1.0000
  H   H413      1.0  0.8932099999999997  0.1636  0.82184  1.0000
  H   H414      1.0  0.9137699999999997  0.23336000000000012  0.8287000000000002  1.0000
  H   H415      1.0  0.9213799999999999  0.34133000000000013  0.8281100000000002  1.0000
  H   H416      1.0  0.7917199999999998  0.3177200000000001  0.8692400000000001  1.0000
  H   H417      1.0  0.82023  0.2588900000000001  0.8083100000000002  1.0000
  H   H418      1.0  0.9625499999999999  0.28913  0.7699  1.0000
  H   H419      1.0  0.9326999999999998  0.23673000000000002  0.76599  1.0000
  H   H420      1.0  0.8982099999999997  0.24379999999999996  0.70432  1.0000
  H   H421      1.0  0.7930299999999998  0.20724000000000012  0.7355900000000002  1.0000
  H   H422      1.0  0.74357  0.22449999999999995  0.70157  1.0000
  H   H423      1.0  0.6920699999999997  0.24572000000000002  0.77782  1.0000
  H   H424      1.0  0.66208  0.2750300000000001  0.7499400000000003  1.0000
  H   H425      1.0  0.73468  0.34673  0.76274  1.0000
  H   H426      1.0  0.83501  0.35578  0.7852  1.0000
  H   H427      1.0  0.89538  0.32269  0.72694  1.0000
  H   H428      1.0  0.00849  0.35828  0.88549  1.0000
  H   H429      1.0  0.15684  0.33370000000000005  0.9490900000000001  1.0000
  H   H430      1.0  0.13197  0.39626  0.90938  1.0000
  H   H431      1.0  0.06711  0.39365  0.94788  1.0000
  H   H432      1.0  0.17764  0.40383  0.9553  1.0000
  H   H433      1.0  0.2762199999999999  0.31722000000000006  0.9126700000000001  1.0000
  H   H434      1.0  0.21065999999999993  0.29371  0.87183  1.0000
  H   H435      1.0  0.24279999999999993  0.3474600000000001  0.8840600000000002  1.0000
  C   C333      1.0  0.06042999999999999  0.72404  0.61697  1.0000
  C   C334      1.0  0.01402  0.7536  0.64819  1.0000
  C   C335      1.0  0.0365  0.8014000000000002  0.6676100000000003  1.0000
  C   C336      1.0  0.9955399999999999  0.8240100000000001  0.70649  1.0000
  C   C337      1.0  0.017339999999999994  0.82654  0.64199  1.0000
  C   C338      1.0  0.9475599999999998  0.7377800000000001  0.66407  1.0000
  C   C339      1.0  0.9390299999999999  0.6951  0.65822  1.0000
  C   C340      1.0  0.87925  0.67934  0.68228  1.0000
  O   O16       1.0  0.7963299999999998  0.67685  0.66756  1.0000
  C   C341      1.0  0.8826499999999998  0.70634  0.72613  1.0000
  C   C342      1.0  0.9447599999999999  0.69115  0.75107  1.0000
  C   C343      1.0  0.9050499999999999  0.70128  0.79115  1.0000
  C   C344      1.0  0.8730799999999997  0.74722  0.80478  1.0000
  C   C345      1.0  0.7986099999999998  0.7493600000000001  0.7782300000000001  1.0000
  N   N144      1.0  0.7966999999999997  0.71127  0.7429100000000001  1.0000
  C   C346      1.0  0.77347  0.67334  0.7521  1.0000
  C   C347      1.0  0.8271099999999998  0.6714  0.78675  1.0000
  C   C348      1.0  0.9808499999999998  0.66666  0.62761  1.0000
  C   C349      1.0  0.0396  0.6800100000000001  0.60593  1.0000
  C   C350      1.0  0.07947  0.64607  0.57213  1.0000
  C   C351      1.0  0.017419999999999772  0.63248  0.53818  1.0000
  C   C352      1.0  0.10657999999999997  0.60753  0.58166  1.0000
  H   H436      1.0  0.1044  0.80483  0.67559  1.0000
  H   H437      1.0  0.005970000000000001  0.80623  0.72573  1.0000
  H   H438      1.0  0.9266699999999999  0.82847  0.7032800000000002  1.0000
  H   H439      1.0  0.02527  0.85577  0.72046  1.0000
  H   H440      1.0  0.06124999999999999  0.81864  0.6180600000000003  1.0000
  H   H441      1.0  0.025829999999999992  0.86096  0.65783  1.0000
  H   H442      1.0  0.9512299999999999  0.82034  0.63125  1.0000
  H   H443      1.0  0.9039999999999999  0.75905  0.68294  1.0000
  H   H444      1.0  0.8966899999999998  0.64659  0.67879  1.0000
  H   H445      1.0  0.7808  0.70569  0.66931  1.0000
  H   H446      1.0  0.9068999999999998  0.73825  0.7295  1.0000
  H   H447      1.0  0.9559799999999999  0.65672  0.73795  1.0000
  H   H448      1.0  0.007100000000000012  0.7076800000000001  0.7538900000000002  1.0000
  H   H449      1.0  0.9523999999999999  0.6972800000000001  0.8115800000000001  1.0000
  H   H450      1.0  0.9255199999999998  0.7689  0.80365  1.0000
  H   H451      1.0  0.8520899999999998  0.75763  0.8347  1.0000
  H   H452      1.0  0.8054099999999997  0.7782  0.77098  1.0000
  H   H453      1.0  0.7372099999999998  0.75229  0.793  1.0000
  H   H454      1.0  0.7040299999999998  0.67255  0.75614  1.0000
  H   H455      1.0  0.7851999999999998  0.64427  0.72711  1.0000
  H   H456      1.0  0.8491199999999999  0.6386  0.78021  1.0000
  H   H457      1.0  0.9656999999999999  0.63361  0.62048  1.0000
  H   H458      1.0  0.13789999999999994  0.65813  0.56338  1.0000
  H   H459      1.0  0.9589099999999998  0.61812  0.54485  1.0000
  H   H460      1.0  0.9996299999999998  0.66016  0.5307500000000002  1.0000
  H   H461      1.0  0.04727999999999998  0.60896  0.51307  1.0000
  H   H462      1.0  0.14654999999999999  0.58666  0.55903  1.0000
  H   H463      1.0  0.14244  0.6178500000000001  0.6090200000000002  1.0000
  H   H464      1.0  0.05167000000000001  0.58772  0.5834300000000002  1.0000
