data_image0
_chemical_formula_structural       Mn5CN8C2N8CN16Cl2C4Mn5CN8C2N8CN16Cl2C4Mn5CN8C2N8CN16Cl2C4Mn5CN8C2N8CN16Cl2C7FCFC3F2CF2CFCFH4C3FCFC3F2CF2CFCFH4C3FCFC3F2CF2CFCFH4C3FCFC3F2CF2CFCFH4C3FCFC3F2CF2CFCFH4C3FCFC3F2CF2CFCFH4C3FCFC3F2CF2CFCFH4C3FCFC3F2CF2CFCFH4C3FCFC3F2CF2CFCFH4C3FCFC3F2CF2CFCFH4C3FCFC3F2CF2CFCFH4C3FCFC3F2CF2CFCFH4C3FCFC3F2CF2CFCFH4C3FCFC3F2CF2CFCFH4C3FCFC3F2CF2CFCFH4C3FCFC3F2CF2CFCFH4
_chemical_formula_sum              "Mn20 C192 N128 Cl8 F128 H64"
_cell_length_a       15.0137
_cell_length_b       30.5628
_cell_length_c       35.4009
_cell_angle_alpha    110.28949999999999
_cell_angle_beta     88.3645
_cell_angle_gamma    89.0881

_space_group_name_H-M_alt    "P 1"
_space_group_IT_number       1

loop_
  _space_group_symop_operation_xyz
  'x, y, z'

loop_
  _atom_site_type_symbol
  _atom_site_label
  _atom_site_symmetry_multiplicity
  _atom_site_fract_x
  _atom_site_fract_y
  _atom_site_fract_z
  _atom_site_occupancy
  Mn  Mn1       1.0  0.00034000000000000447  0.38979  0.13072999999999999  1.0000
  Mn  Mn2       1.0  0.22162999999999994  0.3550299999999999  0.11055  1.0000
  Mn  Mn3       1.0  0.48763  0.12094999999999989  0.8944199999999998  1.0000
  Mn  Mn4       1.0  0.27004  0.14866  0.92923  1.0000
  Mn  Mn5       1.0  0.2506799999999999  0.25091  0.02109  1.0000
  C   C1        1.0  0.04266999999999999  0.35329  0.19786  1.0000
  N   N1        1.0  0.07189999999999998  0.36829999999999985  0.16855  1.0000
  N   N2        1.0  0.15697  0.35523999999999994  0.16182999999999995  1.0000
  N   N3        1.0  0.1806  0.3334299999999999  0.18639  1.0000
  N   N4        1.0  0.11034999999999996  0.3318699999999999  0.20966999999999994  1.0000
  N   N5        1.0  0.34489  0.2929499999999999  0.13597  1.0000
  N   N6        1.0  0.2976499999999999  0.2977599999999999  0.10656  1.0000
  N   N7        1.0  0.31114  0.26091999999999993  0.07345  1.0000
  N   N8        1.0  0.3662999999999999  0.23053999999999994  0.08008  1.0000
  C   C2        1.0  0.38694  0.25088  0.11897999999999999  1.0000
  C   C3        1.0  0.3185199999999999  0.3754099999999999  0.00978  1.0000
  N   N9        1.0  0.27683999999999975  0.3542899999999999  0.05802  1.0000
  N   N10       1.0  0.29974000000000006  0.3918  0.04983999999999999  1.0000
  N   N11       1.0  0.13162  0.2738699999999999  0.05271999999999999  1.0000
  N   N12       1.0  0.12361999999999998  0.31599  0.08006999999999997  1.0000
  N   N13       1.0  0.039070000000000014  0.3284299999999998  0.08871  1.0000
  N   N14       1.0  0.9877799999999999  0.2939699999999999  0.06911999999999997  1.0000
  N   N15       1.0  0.27926999999999996  0.31724  0.02473  1.0000
  N   N16       1.0  0.3051699999999999  0.3290899999999998  0.9936999999999999  1.0000
  C   C4        1.0  0.04546999999999998  0.2596599999999999  0.046539999999999984  1.0000
  N   N17       1.0  0.39563  0.13863  0.86164  1.0000
  N   N18       1.0  0.31241  0.14963999999999994  0.87469  1.0000
  N   N19       1.0  0.26672999999999997  0.16014999999999985  0.8474599999999998  1.0000
  N   N20       1.0  0.32085999999999987  0.15645  0.81603  1.0000
  N   N21       1.0  0.1305  0.20867999999999995  0.91185  1.0000
  N   N22       1.0  0.18833  0.20426  0.93781  1.0000
  N   N23       1.0  0.18682  0.2423899999999999  0.9700599999999999  1.0000
  N   N24       1.0  0.1281  0.2731399999999998  0.9664699999999999  1.0000
  N   N25       1.0  0.21450999999999995  0.17095  0.048879999999999986  1.0000
  N   N26       1.0  0.22702  0.18430000000000002  0.0173  1.0000
  N   N27       1.0  0.23274000000000003  0.14726  0.9839799999999999  1.0000
  N   N28       1.0  0.22239  0.10877999999999985  0.9923799999999999  1.0000
  N   N29       1.0  0.36717  0.22763  0.98771  1.0000
  N   N30       1.0  0.3701099999999999  0.19033  0.95448  1.0000
  N   N31       1.0  0.4523599999999999  0.18079  0.93966  1.0000
  N   N32       1.0  0.5063799999999999  0.2123299999999999  0.9615399999999997  1.0000
  Cl  Cl1       1.0  0.13136  0.41707  0.11492999999999998  1.0000
  Cl  Cl2       1.0  0.37163999999999997  0.08918  0.91861  1.0000
  C   C5        1.0  0.40129999999999993  0.1431199999999999  0.8253399999999997  1.0000
  C   C6        1.0  0.09405  0.25186999999999987  0.9301299999999998  1.0000
  C   C7        1.0  0.20994  0.12413999999999997  0.03284  1.0000
  C   C8        1.0  0.4530799999999998  0.24187999999999996  0.9914599999999999  1.0000
  Mn  Mn6       1.0  0.58271  0.8868699999999998  0.15434  1.0000
  Mn  Mn7       1.0  0.7747799999999998  0.82405  0.11206999999999998  1.0000
  Mn  Mn8       1.0  0.92213  0.60582  0.86462  1.0000
  Mn  Mn9       1.0  0.7266299999999998  0.6666099999999998  0.90587  1.0000
  Mn  Mn10      1.0  0.7491699999999998  0.74632  0.008729999999999996  1.0000
  C   C9        1.0  0.5999  0.81817  0.19906999999999994  1.0000
  N   N33       1.0  0.6370099999999997  0.8396299999999999  0.17561  1.0000
  N   N34       1.0  0.7116399999999998  0.816  0.16048  1.0000
  N   N35       1.0  0.7214999999999998  0.78118  0.17426  1.0000
  N   N36       1.0  0.65238  0.7817299999999998  0.19873999999999997  1.0000
  N   N37       1.0  0.8544499999999999  0.7341899999999998  0.11102999999999998  1.0000
  N   N38       1.0  0.8121299999999998  0.7563699999999998  0.09051  1.0000
  N   N39       1.0  0.7961999999999998  0.7274699999999997  0.054089999999999985  1.0000
  N   N40       1.0  0.8258899999999998  0.68501  0.04977  1.0000
  C   C10       1.0  0.8620799999999997  0.6896399999999998  0.08540999999999997  1.0000
  C   C11       1.0  0.8894599999999999  0.86443  0.02417  1.0000
  N   N41       1.0  0.8319000000000001  0.8330899999999998  0.06308  1.0000
  N   N42       1.0  0.87297  0.8710899999999998  0.06351999999999997  1.0000
  N   N43       1.0  0.64538  0.7835699999999998  0.04619  1.0000
  N   N44       1.0  0.6587  0.8108799999999998  0.08368  1.0000
  N   N45       1.0  0.5857  0.8354299999999998  0.10001  1.0000
  N   N46       1.0  0.5211499999999998  0.82508  0.07428  1.0000
  N   N47       1.0  0.8225699999999998  0.80477  0.025629999999999993  1.0000
  N   N48       1.0  0.85823  0.8233199999999998  0.00021999999999999995  1.0000
  C   C12       1.0  0.55766  0.7922399999999998  0.04085999999999999  1.0000
  N   N49       1.0  0.8628699999999998  0.6495999999999998  0.8407099999999997  1.0000
  N   N50       1.0  0.7890599999999998  0.6732999999999998  0.85694  1.0000
  N   N51       1.0  0.7618399999999997  0.6980499999999998  0.83507  1.0000
  N   N52       1.0  0.8185099999999995  0.6907999999999997  0.80398  1.0000
  N   N53       1.0  0.6608999999999998  0.7567499999999998  0.90262  1.0000
  N   N54       1.0  0.68927  0.73445  0.92602  1.0000
  N   N55       1.0  0.7031399999999999  0.7642199999999996  0.9624799999999998  1.0000
  N   N56       1.0  0.6851099999999999  0.8073499999999998  0.96388  1.0000
  N   N57       1.0  0.621  0.67658  0.01714999999999999  1.0000
  N   N58       1.0  0.67605  0.6878499999999997  0.9923699999999999  1.0000
  N   N59       1.0  0.66715  0.6592199999999998  0.95502  1.0000
  N   N60       1.0  0.6050000000000001  0.6287699999999998  0.95408  1.0000
  N   N61       1.0  0.8525199999999997  0.70972  0.97164  1.0000
  N   N62       1.0  0.8412299999999998  0.68137  0.93444  1.0000
  N   N63       1.0  0.91629  0.6586899999999998  0.91855  1.0000
  N   N64       1.0  0.9801599999999999  0.6715099999999998  0.94465  1.0000
  Cl  Cl3       1.0  0.72482  0.89947  0.13709  1.0000
  Cl  Cl4       1.0  0.78034  0.59162  0.88266  1.0000
  C   C13       1.0  0.88113  0.6603399999999999  0.80758  1.0000
  C   C14       1.0  0.6588999999999998  0.8019899999999998  0.92638  1.0000
  C   C15       1.0  0.5780899999999999  0.6393099999999998  0.99302  1.0000
  C   C16       1.0  0.9404  0.7039999999999997  0.9775599999999999  1.0000
  Mn  Mn11      1.0  0.14021999999999998  0.6354699999999998  0.37205999999999995  1.0000
  Mn  Mn12      1.0  0.30885  0.7081999999999998  0.41671999999999987  1.0000
  Mn  Mn13      1.0  0.38455  0.91056  0.6746999999999999  1.0000
  Mn  Mn14      1.0  0.22397999999999996  0.8311699999999997  0.6327499999999999  1.0000
  Mn  Mn15      1.0  0.26545999999999986  0.7698099999999999  0.5246899999999998  1.0000
  C   C17       1.0  0.12087999999999999  0.7138199999999998  0.33767  1.0000
  N   N65       1.0  0.16964999999999997  0.6913599999999998  0.3567999999999999  1.0000
  N   N66       1.0  0.23590999999999998  0.71877  0.37258  1.0000
  N   N67       1.0  0.23136  0.7564599999999998  0.36221  1.0000
  N   N68       1.0  0.15996  0.75432  0.3402999999999999  1.0000
  N   N69       1.0  0.35793999999999987  0.8050499999999998  0.42874  1.0000
  N   N70       1.0  0.3210599999999999  0.77697  0.4454699999999999  1.0000
  N   N71       1.0  0.30101  0.8000099999999998  0.48385999999999996  1.0000
  N   N72       1.0  0.32172999999999996  0.8442100000000001  0.49329  1.0000
  C   C18       1.0  0.3571399999999999  0.8469299999999995  0.4586099999999999  1.0000
  C   C19       1.0  0.47682  0.6764999999999998  0.49278  1.0000
  N   N73       1.0  0.37644  0.6963299999999998  0.46092999999999995  1.0000
  N   N74       1.0  0.4499299999999999  0.6700599999999998  0.4551599999999999  1.0000
  N   N75       1.0  0.17217999999999997  0.7304799999999996  0.48553999999999997  1.0000
  N   N76       1.0  0.19405999999999993  0.7074999999999998  0.44712  1.0000
  N   N77       1.0  0.12962  0.6799999999999998  0.42929  1.0000
  N   N78       1.0  0.06136999999999991  0.6845299999999997  0.45446  1.0000
  N   N79       1.0  0.3594  0.71807  0.49990999999999997  1.0000
  N   N80       1.0  0.4214299999999998  0.70664  0.52089  1.0000
  C   C20       1.0  0.0868  0.7162599999999998  0.48943  1.0000
  N   N81       1.0  0.3561299999999999  0.8580699999999999  0.69506  1.0000
  N   N82       1.0  0.29673  0.8261399999999997  0.6787499999999997  1.0000
  N   N83       1.0  0.2701599999999999  0.8071099999999996  0.7054199999999998  1.0000
  N   N84       1.0  0.3122199999999999  0.8266699999999999  0.7395599999999999  1.0000
  N   N85       1.0  0.20645  0.7299799999999997  0.62283  1.0000
  N   N86       1.0  0.21982  0.7609199999999998  0.60485  1.0000
  N   N87       1.0  0.23087999999999992  0.7393499999999997  0.5654999999999998  1.0000
  N   N88       1.0  0.22454  0.6939  0.55645  1.0000
  N   N89       1.0  0.12235999999999997  0.84052  0.52924  1.0000
  N   N90       1.0  0.17368000000000003  0.8215999999999997  0.54956  1.0000
  N   N91       1.0  0.15488999999999994  0.8409699999999999  0.58854  1.0000
  N   N92       1.0  0.09134999999999995  0.8731999999999998  0.59523  1.0000
  N   N93       1.0  0.3578199999999999  0.8095199999999998  0.56389  1.0000
  N   N94       1.0  0.3373  0.8329599999999998  0.60227  1.0000
  N   N95       1.0  0.39954999999999996  0.86279  0.61866  1.0000
  N   N96       1.0  0.4649  0.8597299999999998  0.5921199999999998  1.0000
  Cl  Cl5       1.0  0.28842999999999996  0.6310599999999997  0.3839599999999999  1.0000
  Cl  Cl6       1.0  0.23637000000000005  0.9096099999999999  0.6627599999999998  1.0000
  C   C21       1.0  0.3650199999999999  0.8587899999999997  0.7328  1.0000
  C   C22       1.0  0.2079899999999999  0.6883899999999998  0.5922299999999998  1.0000
  C   C23       1.0  0.07124999999999994  0.8723899999999998  0.55814  1.0000
  C   C24       1.0  0.43939  0.82596  0.55816  1.0000
  Mn  Mn16      1.0  0.58289  0.11651  0.37243  1.0000
  Mn  Mn17      1.0  0.78981  0.1541799999999999  0.4079699999999999  1.0000
  Mn  Mn18      1.0  0.96917  0.36685  0.64446  1.0000
  Mn  Mn19      1.0  0.7622000000000001  0.33633999999999975  0.6062199999999998  1.0000
  Mn  Mn20      1.0  0.7751299999999998  0.24637  0.50633  1.0000
  C   C25       1.0  0.65118  0.16490999999999992  0.3147399999999999  1.0000
  N   N97       1.0  0.6649399999999995  0.14843  0.34461  1.0000
  N   N98       1.0  0.74484  0.16211  0.35746  1.0000
  N   N99       1.0  0.7807699999999997  0.18577  0.33616  1.0000
  N   N100      1.0  0.72364  0.1879199999999999  0.30886999999999987  1.0000
  N   N101      1.0  0.9153899999999998  0.2253099999999999  0.3995199999999999  1.0000
  N   N102      1.0  0.85527  0.21483999999999995  0.42288  1.0000
  N   N103      1.0  0.8490899999999998  0.2482699999999999  0.4585399999999999  1.0000
  N   N104      1.0  0.9033399999999999  0.28218999999999994  0.45957  1.0000
  C   C26       1.0  0.9440199999999999  0.2675  0.4227299999999999  1.0000
  C   C27       1.0  0.88806  0.12188999999999997  0.5012  1.0000
  N   N105      1.0  0.8279399999999998  0.14662999999999998  0.45916  1.0000
  N   N106      1.0  0.87487  0.11079999999999995  0.46144  1.0000
  N   N107      1.0  0.66883  0.22387999999999997  0.4693099999999999  1.0000
  N   N108      1.0  0.67687  0.18612999999999993  0.43679  1.0000
  N   N109      1.0  0.5980599999999998  0.17219999999999994  0.42275  1.0000
  N   N110      1.0  0.5351699999999999  0.2015599999999999  0.4441599999999999  1.0000
  N   N111      1.0  0.8146299999999997  0.17869999999999991  0.49521999999999994  1.0000
  N   N112      1.0  0.85189  0.16439999999999988  0.5224699999999998  1.0000
  C   C28       1.0  0.57911  0.23385999999999996  0.47348  1.0000
  N   N113      1.0  0.8813099999999998  0.33559  0.66995  1.0000
  N   N114      1.0  0.8007800000000002  0.32451  0.65636  1.0000
  N   N115      1.0  0.76863  0.2925299999999999  0.66993  1.0000
  N   N116      1.0  0.8287799999999997  0.28196  0.69241  1.0000
  N   N117      1.0  0.6260699999999998  0.26946  0.61142  1.0000
  N   N118      1.0  0.6910999999999998  0.27797  0.58925  1.0000
  N   N119      1.0  0.69804  0.24447999999999995  0.55369  1.0000
  N   N120      1.0  0.63764  0.21265  0.55146  1.0000
  N   N121      1.0  0.7168199999999998  0.3333699999999999  0.49163999999999997  1.0000
  N   N122      1.0  0.7406799999999998  0.3151899999999999  0.51872  1.0000
  N   N123      1.0  0.7303599999999999  0.3469599999999999  0.55522  1.0000
  N   N124      1.0  0.69526  0.38607999999999987  0.55325  1.0000
  N   N125      1.0  0.8811499999999999  0.2674  0.54285  1.0000
  N   N126      1.0  0.8732499999999999  0.30156999999999984  0.5780099999999998  1.0000
  N   N127      1.0  0.9518499999999998  0.31220999999999993  0.59365  1.0000
  N   N128      1.0  0.014170000000000002  0.28415  0.57044  1.0000
  Cl  Cl7       1.0  0.71005  0.08801  0.39076  1.0000
  Cl  Cl8       1.0  0.84841  0.4000399999999998  0.6259999999999998  1.0000
  C   C29       1.0  0.89925  0.30864999999999976  0.69178  1.0000
  C   C30       1.0  0.59403  0.22847  0.58777  1.0000
  C   C31       1.0  0.6874999999999998  0.37722  0.51339  1.0000
  C   C32       1.0  0.9701499999999997  0.2560699999999999  0.5385  1.0000
  C   C33       1.0  0.49009999999999987  0.2823199999999999  0.024919999999999994  1.0000
  C   C34       1.0  0.58979  0.27450999999999987  0.026419999999999992  1.0000
  C   C35       1.0  0.6214299999999998  0.23365999999999995  0.03188999999999999  1.0000
  F   F1        1.0  0.56385  0.20521999999999996  0.04183  1.0000
  C   C36       1.0  0.71035  0.21903999999999996  0.02289  1.0000
  F   F2        1.0  0.73397  0.17636999999999994  0.02359  1.0000
  C   C37       1.0  0.7722399999999998  0.24721999999999994  0.01189  1.0000
  C   C38       1.0  0.8678299999999998  0.2303099999999999  0.9984099999999999  1.0000
  C   C39       1.0  0.9135399999999998  0.20549  0.02447  1.0000
  F   F3        1.0  0.87876  0.22210999999999997  0.0638  1.0000
  F   F4        1.0  0.8972399999999999  0.15816  0.00825  1.0000
  C   C40       1.0  0.015589999999999998  0.21032  0.02512  1.0000
  F   F5        1.0  0.04601999999999999  0.18277999999999994  0.04596999999999998  1.0000
  F   F6        1.0  0.05004000000000002  0.19297999999999993  0.9860899999999999  1.0000
  C   C41       1.0  0.7418399999999998  0.29048  0.010299999999999976  1.0000
  F   F7        1.0  0.7987499999999997  0.31874999999999987  0.9997499999999999  1.0000
  C   C42       1.0  0.6513099999999997  0.30372  0.017020000000000035  1.0000
  F   F8        1.0  0.62337  0.3438599999999999  0.012259999999999938  1.0000
  H   H1        1.0  0.4596100000000001  0.2855799999999999  0.05452  1.0000
  H   H2        1.0  0.4745699999999999  0.31502999999999987  0.019190000000000037  1.0000
  H   H3        1.0  0.8673099999999998  0.2058  0.96673  1.0000
  H   H4        1.0  0.9084599999999998  0.2600099999999999  0.9975399999999999  1.0000
  C   C43       1.0  0.9883699999999999  0.7260799999999997  0.01586  1.0000
  C   C44       1.0  0.08508  0.73083  0.00625  1.0000
  C   C45       1.0  0.14621  0.6939899999999998  0.0022800000000000593  1.0000
  F   F9        1.0  0.11979999999999996  0.6549299999999998  0.008960000000000079  1.0000
  C   C46       1.0  0.23466  0.6966499999999998  0.9905399999999999  1.0000
  F   F10       1.0  0.29234  0.6607999999999998  0.98722  1.0000
  C   C47       1.0  0.2634399999999999  0.7360399999999998  0.9824099999999999  1.0000
  C   C48       1.0  0.3602599999999999  0.74045  0.97285  1.0000
  C   C49       1.0  0.4114799999999999  0.7599599999999996  0.011989999999999723  1.0000
  F   F11       1.0  0.3649  0.7984999999999997  0.03848999999999969  1.0000
  F   F12       1.0  0.4181999999999999  0.7261999999999996  0.029769999999999852  1.0000
  C   C50       1.0  0.5054799999999999  0.7740399999999998  0.0030499999999999993  1.0000
  F   F13       1.0  0.5469999999999998  0.7357099999999998  0.9751399999999999  1.0000
  F   F14       1.0  0.49822  0.80918  0.98689  1.0000
  C   C51       1.0  0.20236999999999997  0.7727699999999997  0.98606  1.0000
  F   F15       1.0  0.22914999999999996  0.8115999999999999  0.9790499999999999  1.0000
  C   C52       1.0  0.11373  0.7701099999999997  0.99784  1.0000
  F   F16       1.0  0.05589999999999997  0.80579  0.0009499999999999999  1.0000
  H   H5        1.0  0.98377  0.7031599999999998  0.03395999999999998  1.0000
  H   H6        1.0  0.9580599999999999  0.76024  0.03437999999999999  1.0000
  H   H7        1.0  0.3893399999999999  0.7058999999999996  0.9536399999999998  1.0000
  H   H8        1.0  0.36696000000000006  0.7638399999999997  0.95496  1.0000
  C   C53       1.0  0.4977799999999998  0.8095  0.5203899999999998  1.0000
  C   C54       1.0  0.5951999999999997  0.8029699999999997  0.52838  1.0000
  C   C55       1.0  0.6626599999999999  0.81691  0.50692  1.0000
  F   F17       1.0  0.6414499999999997  0.8366599999999995  0.47926999999999986  1.0000
  C   C56       1.0  0.75275  0.81033  0.51331  1.0000
  F   F18       1.0  0.81454  0.8257  0.49262  1.0000
  C   C57       1.0  0.7779799999999998  0.7879599999999998  0.54035  1.0000
  C   C58       1.0  0.8754399999999998  0.7822000000000001  0.54935  1.0000
  C   C59       1.0  0.9348  0.7531999999999998  0.5125  1.0000
  F   F19       1.0  0.88604  0.7168899999999998  0.48772  1.0000
  F   F20       1.0  0.95985  0.78137  0.49089  1.0000
  C   C60       1.0  0.020460000000000006  0.7326299999999999  0.52473  1.0000
  F   F21       1.0  0.05598000000000001  0.7644999999999997  0.55804  1.0000
  F   F22       1.0  0.9976  0.6942399999999996  0.5347799999999998  1.0000
  C   C61       1.0  0.71018  0.7734  0.56129  1.0000
  F   F23       1.0  0.7306299999999998  0.75196  0.58782  1.0000
  C   C62       1.0  0.6202999999999997  0.7815199999999998  0.55593  1.0000
  F   F24       1.0  0.55784  0.7696199999999999  0.5788099999999998  1.0000
  H   H9        1.0  0.49197  0.8361899999999998  0.50602  1.0000
  H   H10       1.0  0.47434999999999994  0.77652  0.49889999999999995  1.0000
  H   H11       1.0  0.9036499999999997  0.81722  0.56266  1.0000
  H   H12       1.0  0.8797099999999998  0.7656199999999999  0.57263  1.0000
  C   C63       1.0  0.018650000000000007  0.21989999999999987  0.5028899999999997  1.0000
  C   C64       1.0  0.11779  0.22797999999999988  0.5038899999999997  1.0000
  C   C65       1.0  0.14849  0.27232  0.5074  1.0000
  F   F25       1.0  0.09137999999999999  0.3059699999999998  0.5047399999999997  1.0000
  C   C66       1.0  0.2358099999999999  0.2839  0.51763  1.0000
  F   F26       1.0  0.2567199999999999  0.32942  0.52837  1.0000
  C   C67       1.0  0.2986699999999999  0.24938999999999995  0.51823  1.0000
  C   C68       1.0  0.39568999999999993  0.2609999999999999  0.5263399999999999  1.0000
  C   C69       1.0  0.43604  0.2842399999999999  0.49773999999999996  1.0000
  F   F27       1.0  0.40241  0.26518  0.45953  1.0000
  F   F28       1.0  0.41326  0.3313799999999999  0.5123799999999997  1.0000
  C   C70       1.0  0.53804  0.28146999999999983  0.49502999999999997  1.0000
  F   F29       1.0  0.5617  0.3083  0.47234  1.0000
  F   F30       1.0  0.5695299999999998  0.30026  0.53342  1.0000
  C   C71       1.0  0.26972  0.20360999999999996  0.51085  1.0000
  F   F31       1.0  0.32799  0.16914999999999997  0.51083  1.0000
  C   C72       1.0  0.17949999999999997  0.19333999999999987  0.5049699999999998  1.0000
  F   F32       1.0  0.15260000000000004  0.14970999999999987  0.5006099999999998  1.0000
  H   H13       1.0  0.99543  0.2206199999999999  0.4739699999999999  1.0000
  H   H14       1.0  0.0056999999999999985  0.18503999999999998  0.50392  1.0000
  H   H15       1.0  0.40076999999999996  0.28492  0.55798  1.0000
  H   H16       1.0  0.4357499999999999  0.22901999999999986  0.5233799999999997  1.0000
  C   C73       1.0  0.4968199999999999  0.61976  0.00649  1.0000
  C   C74       1.0  0.50812  0.5690999999999999  0.00285  1.0000
  C   C75       1.0  0.5251899999999998  0.53425  0.9649999999999999  1.0000
  F   F33       1.0  0.5333  0.5452599999999997  0.9311499999999999  1.0000
  C   C76       1.0  0.5311399999999997  0.4872899999999998  0.9612499999999998  1.0000
  F   F34       1.0  0.5574499999999999  0.45542999999999983  0.92502  1.0000
  C   C77       1.0  0.5105299999999998  0.47340999999999994  0.9943899999999999  1.0000
  C   C78       1.0  0.50786  0.42193999999999987  0.9892899999999999  1.0000
  C   C79       1.0  0.4310299999999999  0.39533999999999997  0.9632199999999997  1.0000
  F   F35       1.0  0.4269200000000001  0.4061599999999999  0.9284799999999997  1.0000
  F   F36       1.0  0.45135  0.34797999999999984  0.9510499999999998  1.0000
  C   C80       1.0  0.33767  0.40567  0.98497  1.0000
  F   F37       1.0  0.27317  0.39702999999999994  0.9562599999999998  1.0000
  F   F38       1.0  0.3285  0.45219  0.00911  1.0000
  C   C81       1.0  0.49435  0.50817  0.03244  1.0000
  F   F39       1.0  0.4775999999999999  0.4963199999999999  0.06548999999999998  1.0000
  C   C82       1.0  0.4944600000000001  0.5555299999999997  0.03673  1.0000
  F   F40       1.0  0.47810999999999987  0.58798  0.07388999999999997  1.0000
  H   H17       1.0  0.4408699999999999  0.6227699999999998  0.9876999999999999  1.0000
  H   H18       1.0  0.47814000000000006  0.6421199999999998  0.03797  1.0000
  H   H19       1.0  0.5725699999999998  0.40539  0.97496  1.0000
  H   H20       1.0  0.5031599999999998  0.41707  0.01893  1.0000
  C   C83       1.0  0.62426  0.40382  0.49671  1.0000
  C   C84       1.0  0.6533799999999997  0.4519899999999999  0.50053  1.0000
  C   C85       1.0  0.63385  0.48967999999999995  0.53636  1.0000
  F   F41       1.0  0.60125  0.4820899999999999  0.56968  1.0000
  C   C86       1.0  0.6423599999999998  0.5355499999999997  0.53733  1.0000
  F   F42       1.0  0.6190899999999999  0.5713599999999998  0.5717999999999998  1.0000
  C   C87       1.0  0.6699799999999998  0.54439  0.50238  1.0000
  C   C88       1.0  0.6679900000000002  0.5935799999999999  0.5019499999999998  1.0000
  C   C89       1.0  0.5738999999999997  0.6079199999999998  0.49274  1.0000
  F   F43       1.0  0.5576999999999998  0.5844  0.4524999999999999  1.0000
  F   F44       1.0  0.5098399999999997  0.5959699999999998  0.51622  1.0000
  C   C90       1.0  0.5667699999999998  0.6608099999999998  0.50191  1.0000
  F   F45       1.0  0.58195  0.68283  0.54237  1.0000
  F   F46       1.0  0.6311499999999999  0.67411  0.47949999999999987  1.0000
  C   C91       1.0  0.6940399999999998  0.50674  0.46721  1.0000
  F   F47       1.0  0.7211  0.51435  0.43313  1.0000
  C   C92       1.0  0.68589  0.4609099999999999  0.46628  1.0000
  F   F48       1.0  0.7055999999999998  0.42522999999999994  0.4312799999999999  1.0000
  H   H21       1.0  0.5580899999999998  0.4063999999999999  0.51243  1.0000
  H   H22       1.0  0.6132199999999998  0.38310999999999984  0.4646099999999999  1.0000
  H   H23       1.0  0.6904799999999995  0.61756  0.53141  1.0000
  H   H24       1.0  0.7169699999999998  0.5968599999999997  0.4789599999999999  1.0000
  C   C93       1.0  0.19424  0.09326999999999998  0.05719999999999999  1.0000
  C   C94       1.0  0.11555999999999997  0.06250999999999998  0.042209999999999984  1.0000
  C   C95       1.0  0.03151999999999977  0.07393999999999998  0.06221999999999999  1.0000
  F   F49       1.0  0.01933000000000007  0.11312999999999997  0.09523  1.0000
  C   C96       1.0  0.9587299999999997  0.04562  0.04778  1.0000
  F   F50       1.0  0.8779399999999998  0.05825  0.06713  1.0000
  C   C97       1.0  0.9686199999999998  0.00523999999999991  0.013159999999999996  1.0000
  C   C98       1.0  0.88849  0.9764999999999999  0.9959499999999999  1.0000
  C   C99       1.0  0.8616699999999998  0.9426099999999998  0.017809999999999993  1.0000
  F   F51       1.0  0.8546  0.9663699999999997  0.05901999999999999  1.0000
  F   F52       1.0  0.77815  0.92626  0.00501  1.0000
  C   C100      1.0  0.9277099999999998  0.90054  0.00885  1.0000
  F   F53       1.0  0.007229999999999852  0.9150599999999998  0.02748  1.0000
  F   F54       1.0  0.9449199999999998  0.8804  0.96765  1.0000
  C   C101      1.0  0.052780000000000285  0.9937499999999996  0.9933  1.0000
  F   F55       1.0  0.06459999999999977  0.9551399999999998  0.9597699999999998  1.0000
  C   C102      1.0  0.12554999999999997  0.022010000000000026  0.007749999999999923  1.0000
  F   F56       1.0  0.2058699999999999  0.010059999999999684  0.98784  1.0000
  H   H25       1.0  0.18311  0.11542999999999998  0.08940999999999999  1.0000
  H   H26       1.0  0.25514  0.07145999999999997  0.055519999999999986  1.0000
  H   H27       1.0  0.8310999999999998  0.0006399999999999762  0.9976199999999998  1.0000
  H   H28       1.0  0.9000099999999998  0.9567299999999996  0.9632499999999998  1.0000
  C   C103      1.0  0.9607999999999998  0.09964  0.51699  1.0000
  C   C104      1.0  0.92667  0.06309000000000001  0.53274  1.0000
  C   C105      1.0  0.92551  0.07075999999999999  0.57426  1.0000
  F   F57       1.0  0.9468199999999999  0.11283  0.60116  1.0000
  C   C106      1.0  0.90273  0.035010000000000006  0.58845  1.0000
  F   F58       1.0  0.9026399999999999  0.043369999999999985  0.6287  1.0000
  C   C107      1.0  0.8804599999999999  0.9910099999999997  0.56144  1.0000
  C   C108      1.0  0.8581099999999999  0.9522799999999998  0.57708  1.0000
  C   C109      1.0  0.94146  0.9292499999999997  0.5874699999999998  1.0000
  F   F59       1.0  0.9901499999999999  0.96245  0.61558  1.0000
  F   F60       1.0  0.91197  0.8979799999999997  0.6051699999999998  1.0000
  C   C110      1.0  0.002450000000000012  0.9036399999999998  0.54993  1.0000
  F   F61       1.0  0.04635000000000002  0.9358599999999998  0.53731  1.0000
  F   F62       1.0  0.95199  0.8767399999999997  0.51886  1.0000
  C   C111      1.0  0.87901  0.9837299999999998  0.51997  1.0000
  F   F63       1.0  0.8574699999999998  0.9416799999999999  0.4931  1.0000
  C   C112      1.0  0.9023499999999998  0.019479999999999945  0.50576  1.0000
  F   F64       1.0  0.90337  0.011219999999999786  0.4655199999999999  1.0000
  H   H29       1.0  0.9949699999999998  0.12738999999999995  0.54078  1.0000
  H   H30       1.0  0.012350000000000085  0.08353999999999996  0.49271999999999994  1.0000
  H   H31       1.0  0.8138000000000001  0.9666699999999998  0.6045  1.0000
  H   H32       1.0  0.8189199999999998  0.9251499999999997  0.55503  1.0000
  C   C113      1.0  0.56446  0.16173  0.29397  1.0000
  C   C114      1.0  0.5709599999999998  0.18121  0.26024  1.0000
  C   C115      1.0  0.57356  0.2297  0.26902  1.0000
  F   F65       1.0  0.5665699999999998  0.25945  0.30778  1.0000
  C   C116      1.0  0.58614  0.24777999999999992  0.23805999999999994  1.0000
  F   F66       1.0  0.5940399999999998  0.2945399999999999  0.24775  1.0000
  C   C117      1.0  0.5941899999999998  0.21772999999999992  0.19764999999999996  1.0000
  C   C118      1.0  0.6133399999999998  0.23702999999999988  0.16435  1.0000
  C   C119      1.0  0.53252  0.26185  0.15377  1.0000
  F   F67       1.0  0.50585  0.3005099999999999  0.18664  1.0000
  F   F68       1.0  0.56057  0.2775399999999999  0.12320999999999999  1.0000
  C   C120      1.0  0.4522799999999999  0.22989  0.13966  1.0000
  F   F69       1.0  0.4812599999999999  0.18663  0.11302  1.0000
  F   F70       1.0  0.40905999999999987  0.2234599999999999  0.17227999999999996  1.0000
  C   C121      1.0  0.58966  0.16924999999999996  0.18887999999999994  1.0000
  F   F71       1.0  0.5981999999999997  0.13914999999999994  0.1503  1.0000
  C   C122      1.0  0.5782  0.15117999999999995  0.21989  1.0000
  F   F72       1.0  0.5769999999999997  0.10418999999999996  0.2105  1.0000
  H   H33       1.0  0.5114799999999998  0.18117999999999995  0.31636  1.0000
  H   H34       1.0  0.5451299999999998  0.12459999999999997  0.28249  1.0000
  H   H35       1.0  0.6685199999999998  0.2619399999999999  0.17348  1.0000
  H   H36       1.0  0.6388799999999998  0.20891999999999994  0.13655  1.0000
  C   C123      1.0  0.50465  0.8255299999999999  0.21367999999999995  1.0000
  C   C124      1.0  0.49398  0.83656  0.25846  1.0000
  C   C125      1.0  0.49478999999999984  0.8831099999999997  0.2848999999999999  1.0000
  F   F73       1.0  0.51807  0.9177999999999997  0.2711499999999999  1.0000
  C   C126      1.0  0.4658799999999999  0.8945799999999998  0.32513  1.0000
  F   F74       1.0  0.4610299999999999  0.9401399999999998  0.3493  1.0000
  C   C127      1.0  0.4360699999999999  0.8596899999999997  0.3395  1.0000
  C   C128      1.0  0.38731  0.8729799999999999  0.3798999999999999  1.0000
  C   C129      1.0  0.45061999999999997  0.88147  0.41504999999999986  1.0000
  F   F75       1.0  0.5095599999999999  0.8436599999999996  0.4073999999999999  1.0000
  F   F76       1.0  0.49987000000000004  0.9205399999999998  0.4184699999999999  1.0000
  C   C130      1.0  0.3983899999999998  0.89015  0.45547  1.0000
  F   F77       1.0  0.4566699999999999  0.9070199999999998  0.48654  1.0000
  F   F78       1.0  0.33145999999999987  0.92365  0.46063  1.0000
  C   C131      1.0  0.4424299999999999  0.8127199999999998  0.31390999999999997  1.0000
  F   F79       1.0  0.4163199999999999  0.77812  0.32724  1.0000
  C   C132      1.0  0.47094  0.80128  0.27365  1.0000
  F   F80       1.0  0.47149999999999986  0.7559299999999998  0.24894999999999998  1.0000
  H   H37       1.0  0.4675999999999998  0.7937599999999998  0.19722  1.0000
  H   H38       1.0  0.4738  0.8542099999999998  0.20557  1.0000
  H   H39       1.0  0.34596999999999994  0.90508  0.3847299999999999  1.0000
  H   H40       1.0  0.3392399999999999  0.84556  0.37916999999999995  1.0000
  C   C133      1.0  0.40335  0.89965  0.7649899999999997  1.0000
  C   C134      1.0  0.47218999999999994  0.8875599999999998  0.79048  1.0000
  C   C135      1.0  0.5462599999999997  0.85819  0.77236  1.0000
  F   F81       1.0  0.55199  0.83577  0.73185  1.0000
  C   C136      1.0  0.6175  0.8537  0.79555  1.0000
  F   F82       1.0  0.68917  0.82622  0.77696  1.0000
  C   C137      1.0  0.6171699999999998  0.8792599999999997  0.8371399999999998  1.0000
  C   C138      1.0  0.69938  0.8792699999999999  0.86096  1.0000
  C   C139      1.0  0.7065699999999999  0.8372299999999998  0.87531  1.0000
  F   F83       1.0  0.69191  0.79654  0.8433499999999998  1.0000
  F   F84       1.0  0.7929699999999997  0.8347899999999998  0.88742  1.0000
  C   C140      1.0  0.6411999999999998  0.8411899999999998  0.91103  1.0000
  F   F85       1.0  0.55409  0.83886  0.89891  1.0000
  F   F86       1.0  0.6516999999999997  0.88327  0.94192  1.0000
  C   C141      1.0  0.5426399999999999  0.90796  0.85542  1.0000
  F   F87       1.0  0.5408799999999998  0.9336099999999999  0.8953899999999998  1.0000
  C   C142      1.0  0.47070999999999985  0.9119000000000002  0.83243  1.0000
  F   F88       1.0  0.40241999999999983  0.9421399999999998  0.85087  1.0000
  H   H41       1.0  0.34688  0.9207099999999999  0.7839099999999998  1.0000
  H   H42       1.0  0.4360599999999999  0.9221999999999996  0.75018  1.0000
  H   H43       1.0  0.75939  0.8790199999999997  0.8416999999999998  1.0000
  H   H44       1.0  0.70255  0.91229  0.88712  1.0000
  C   C143      1.0  0.4862599999999999  0.13553  0.80006  1.0000
  C   C144      1.0  0.47565  0.14552999999999985  0.7614499999999997  1.0000
  C   C145      1.0  0.48857  0.10982999999999984  0.7236899999999998  1.0000
  F   F89       1.0  0.5097699999999997  0.06552000000000001  0.72115  1.0000
  C   C146      1.0  0.47977  0.11949999999999995  0.6880999999999998  1.0000
  F   F90       1.0  0.49241999999999997  0.08432  0.65215  1.0000
  C   C147      1.0  0.45773999999999987  0.16497  0.68956  1.0000
  C   C148      1.0  0.4446799999999999  0.17511999999999994  0.65114  1.0000
  C   C149      1.0  0.5301699999999998  0.19299999999999992  0.63681  1.0000
  F   F91       1.0  0.5586099999999999  0.23163000000000003  0.66773  1.0000
  F   F92       1.0  0.59634  0.1583699999999999  0.6273999999999997  1.0000
  C   C150      1.0  0.51382  0.2063199999999999  0.59923  1.0000
  F   F93       1.0  0.4934599999999999  0.16682999999999987  0.5672099999999998  1.0000
  F   F94       1.0  0.4425799999999999  0.23790999999999987  0.6070199999999998  1.0000
  C   C151      1.0  0.44562  0.20073000000000002  0.72732  1.0000
  F   F95       1.0  0.4232899999999999  0.24487999999999985  0.7297599999999997  1.0000
  C   C152      1.0  0.45553  0.19119999999999995  0.76289  1.0000
  F   F96       1.0  0.44504999999999995  0.22656  0.79889  1.0000
  H   H45       1.0  0.5104799999999998  0.09908000000000002  0.79379  1.0000
  H   H46       1.0  0.53777  0.15862999999999988  0.818  1.0000
  H   H47       1.0  0.42322  0.14318999999999987  0.6269699999999998  1.0000
  H   H48       1.0  0.38911  0.2012599999999999  0.6563199999999998  1.0000
  C   C153      1.0  0.02425999999999994  0.7041  0.32899  1.0000
  C   C154      1.0  0.00047999999999982014  0.69619  0.28591  1.0000
  C   C155      1.0  0.9833499999999998  0.73426  0.2731899999999999  1.0000
  F   F97       1.0  0.9976799999999999  0.77842  0.29815  1.0000
  C   C156      1.0  0.9475399999999999  0.7272  0.2354  1.0000
  F   F98       1.0  0.9262799999999999  0.7647699999999998  0.22499  1.0000
  C   C157      1.0  0.93141  0.6817799999999998  0.20902  1.0000
  C   C158      1.0  0.8883899999999999  0.67359  0.16898  1.0000
  C   C159      1.0  0.95825  0.66517  0.13409999999999997  1.0000
  F   F99       1.0  0.007490000000000005  0.7049499999999997  0.14029  1.0000
  F   F100      1.0  0.01640000000000001  0.6291599999999998  0.13349  1.0000
  C   C160      1.0  0.9153599999999997  0.65112  0.09243  1.0000
  F   F101      1.0  0.9830299999999997  0.6371  0.06303  1.0000
  F   F102      1.0  0.86101  0.6134599999999998  0.08726  1.0000
  C   C161      1.0  0.9511899999999998  0.64372  0.22130999999999998  1.0000
  F   F103      1.0  0.9359799999999998  0.5995  0.19665  1.0000
  C   C162      1.0  0.98362  0.6509099999999998  0.25956  1.0000
  F   F104      1.0  0.9952899999999998  0.61357  0.27147  1.0000
  H   H49       1.0  0.98305  0.7336399999999998  0.3497  1.0000
  H   H50       1.0  0.006129999999999965  0.6734  0.33729  1.0000
  H   H51       1.0  0.84495  0.6428599999999999  0.16246999999999995  1.0000
  H   H52       1.0  0.8428599999999999  0.7034099999999998  0.17111999999999994  1.0000
  C   C163      1.0  0.020979999999999995  0.29182999999999987  0.41188  1.0000
  C   C164      1.0  0.0014099999999996888  0.3091899999999999  0.37788  1.0000
  C   C165      1.0  0.9294699999999998  0.34065  0.38137  1.0000
  F   F105      1.0  0.8742799999999997  0.35419  0.4147  1.0000
  C   C166      1.0  0.9148499999999998  0.35906  0.35088999999999987  1.0000
  F   F106      1.0  0.84474  0.38922  0.35514  1.0000
  C   C167      1.0  0.97329  0.34721999999999986  0.31683  1.0000
  C   C168      1.0  0.9628399999999998  0.3696  0.28518  1.0000
  C   C169      1.0  0.9278099999999998  0.33577  0.24522  1.0000
  F   F107      1.0  0.96624  0.2914799999999999  0.23525  1.0000
  F   F108      1.0  0.8366099999999997  0.33195999999999987  0.25005  1.0000
  C   C170      1.0  0.9453699999999998  0.3539399999999999  0.21015  1.0000
  F   F109      1.0  0.9007399999999998  0.32639  0.17695  1.0000
  F   F110      1.0  0.9114999999999999  0.3991599999999999  0.22076999999999994  1.0000
  C   C171      1.0  0.04624  0.3166199999999999  0.31389  1.0000
  F   F111      1.0  0.10667999999999998  0.3065699999999999  0.28261  1.0000
  C   C172      1.0  0.05952999999999999  0.29733999999999994  0.34377999999999986  1.0000
  F   F112      1.0  0.13132000000000002  0.26833  0.3399599999999999  1.0000
  H   H53       1.0  0.07973999999999967  0.2674199999999999  0.4045499999999999  1.0000
  H   H54       1.0  0.0375399999999999  0.32228  0.43861  1.0000
  H   H55       1.0  0.9165199999999998  0.4004999999999998  0.29644  1.0000
  H   H56       1.0  0.028340000000000004  0.38341999999999976  0.28013  1.0000
  C   C173      1.0  0.020720000000000016  0.2727299999999998  0.9138299999999998  1.0000
  C   C174      1.0  0.04889999999999998  0.2763899999999999  0.87395  1.0000
  C   C175      1.0  0.07292999999999998  0.3194599999999998  0.8710299999999997  1.0000
  F   F113      1.0  0.07716000000000002  0.3581199999999998  0.9045699999999998  1.0000
  C   C176      1.0  0.09072999999999995  0.32318  0.8333  1.0000
  F   F114      1.0  0.1106  0.36541  0.83103  1.0000
  C   C177      1.0  0.08518  0.28387999999999997  0.79806  1.0000
  C   C178      1.0  0.08801000000000002  0.28925999999999996  0.7573199999999998  1.0000
  C   C179      1.0  0.9930299999999999  0.29845  0.7458  1.0000
  F   F115      1.0  0.9378799999999999  0.2636299999999998  0.7485099999999998  1.0000
  F   F116      1.0  0.9603899999999999  0.34090999999999994  0.77253  1.0000
  C   C180      1.0  0.9917999999999999  0.29944  0.70278  1.0000
  F   F117      1.0  0.04726000000000008  0.33383  0.69951  1.0000
  F   F118      1.0  0.022500000000000003  0.25684  0.67565  1.0000
  C   C181      1.0  0.06674000000000001  0.2403199999999999  0.8012299999999998  1.0000
  F   F119      1.0  0.06313  0.20158999999999996  0.76771  1.0000
  C   C182      1.0  0.048150000000000005  0.23668999999999996  0.83883  1.0000
  F   F120      1.0  0.025829999999999995  0.19466999999999995  0.84086  1.0000
  H   H57       1.0  0.0012999999999999997  0.30763  0.93605  1.0000
  H   H58       1.0  0.96116  0.25074999999999986  0.9103199999999998  1.0000
  H   H59       1.0  0.13147  0.3184699999999998  0.7576299999999998  1.0000
  H   H60       1.0  0.11813999999999998  0.2572  0.73445  1.0000
  C   C183      1.0  0.21489000000000003  0.6416099999999998  0.59712  1.0000
  C   C184      1.0  0.14873  0.6348899999999997  0.62763  1.0000
  C   C185      1.0  0.05911000000000002  0.6254599999999997  0.6179099999999997  1.0000
  F   F121      1.0  0.028999999999999908  0.62652  0.58241  1.0000
  C   C186      1.0  0.0014599999999998072  0.61189  0.6434999999999997  1.0000
  F   F122      1.0  0.9160099999999998  0.60162  0.63274  1.0000
  C   C187      1.0  0.03296000000000009  0.60652  0.67882  1.0000
  C   C188      1.0  0.9765700000000002  0.5826899999999999  0.70184  1.0000
  C   C189      1.0  0.9112999999999998  0.61548  0.7342599999999998  1.0000
  F   F123      1.0  0.8792899999999998  0.65049  0.72134  1.0000
  F   F124      1.0  0.8392999999999998  0.58943  0.73843  1.0000
  C   C190      1.0  0.9529  0.6376399999999998  0.77597  1.0000
  F   F125      1.0  0.012509999999999818  0.6711499999999997  0.7745899999999998  1.0000
  F   F126      1.0  0.9977299999999997  0.60393  0.78665  1.0000
  C   C191      1.0  0.12151999999999984  0.6177199999999999  0.68926  1.0000
  F   F127      1.0  0.15398999999999993  0.6129499999999998  0.72307  1.0000
  C   C192      1.0  0.17866999999999994  0.63193  0.66404  1.0000
  F   F128      1.0  0.26471  0.6406899999999999  0.67437  1.0000
  H   H61       1.0  0.28429000000000004  0.6372499999999998  0.60553  1.0000
  H   H62       1.0  0.20658999999999994  0.61356  0.56746  1.0000
  H   H63       1.0  0.9373299999999998  0.55563  0.6797499999999997  1.0000
  H   H64       1.0  0.019749999999999934  0.56257  0.71524  1.0000
