data_image0
_chemical_formula_structural       GdCu3I3O6N3CHCHC2HCHC2HC2HCHCHC2HCHC2HCHC2HC2HCHCHC2HCHC2HCHC2HC2HCHCHCGdCu3I3O6N3CHCHC2HCHC2HC2HCHCHC2HCHC2HCHC2HC2HCHCHC2HCHC2HCHC2HC2HCHCHCGdCu3I3O6N3CHCHC2HCHC2HC2HCHCHC2HCHC2HCHC2HC2HCHCHC2HCHC2HCHC2HC2HCHCHCGdCu3I3O6N3CHCHC2HCHC2HC2HCHCHC2HCHC2HCHC2HC2HCHCHC2HCHC2HCHC2HC2HCHCHCGdCu3I3O6N3CHCHC2HCHC2HC2HCHCHC2HCHC2HCHC2HC2HCHCHC2HCHC2HCHC2HC2HCHCHCGdCu3I3O6N3CHCHC2HCHC2HC2HCHCHC2HCHC2HCHC2HC2HCHCHC2HCHC2HCHC2HC2HCHCHCGdCu3I3O6N3CHCHC2HCHC2HC2HCHCHC2HCHC2HCHC2HC2HCHCHC2HCHC2HCHC2HC2HCHCHCGdCu3I3O6N3CHCHC2HCHC2HC2HCHCHC2HCHC2HCHC2HC2HCHCHC2HCHC2HCHC2HC2HCHCHC
_chemical_formula_sum              "Gd8 Cu24 I24 O48 N24 C288 H192"
_cell_length_a       46.009
_cell_length_b       9.7333
_cell_length_c       20.7159
_cell_angle_alpha    90.0
_cell_angle_beta     105.77
_cell_angle_gamma    90.0

_symmetry_space_group_name_H-M    'P 1'
_symmetry_Int_Tables_number       1

loop_
  _symmetry_equiv_pos_as_xyz
  'x,y,z'

loop_
  _atom_site_type_symbol
  _atom_site_label
  _atom_site_symmetry_multiplicity
  _atom_site_fract_x
  _atom_site_fract_y
  _atom_site_fract_z
  _atom_site_occupancy
  Gd  Gd1       1.0  0.49661  0.7516299999999999  0.48341999999999996  1.0000
  Cu  Cu1       1.0  0.2163  0.40674  0.3627  1.0000
  Cu  Cu2       1.0  0.26634  0.33117  0.46704999999999997  1.0000
  Cu  Cu3       1.0  0.253  0.57667  0.33148  1.0000
  I   I1        1.0  0.21657999999999997  0.42144000000000004  0.49132999999999993  1.0000
  I   I2        1.0  0.26768  0.3218  0.3375099999999999  1.0000
  I   I3        1.0  0.19896  0.65422  0.31126  1.0000
  O   O1        1.0  0.45643999999999996  0.6551  0.5297999999999999  1.0000
  O   O2        1.0  0.4782400000000001  0.8456999999999999  0.5773  1.0000
  O   O3        1.0  0.4511  0.8831999999999999  0.4368  1.0000
  O   O4        1.0  0.4665  0.0919  0.47219999999999995  1.0000
  O   O5        1.0  0.52149  0.5996  0.5651  1.0000
  O   O6        1.0  0.5316099999999998  0.3874  0.6027999999999998  1.0000
  N   N1        1.0  0.30014  0.463  0.5105  1.0000
  N   N2        1.0  0.28736  0.7058  0.3447999999999999  1.0000
  N   N3        1.0  0.68378  0.2298  0.8185999999999999  1.0000
  C   C1        1.0  0.32917  0.4229  0.5293  1.0000
  H   H1        1.0  0.3333  0.3294  0.5290999999999999  1.0000
  C   C2        1.0  0.3534  0.513  0.5488999999999999  1.0000
  H   H2        1.0  0.373  0.47889999999999994  0.5622  1.0000
  C   C3        1.0  0.3485  0.6512  0.5488  1.0000
  C   C4        1.0  0.31850999999999996  0.6957  0.5307999999999999  1.0000
  H   H3        1.0  0.31389999999999996  0.7886  0.5315  1.0000
  C   C5        1.0  0.29601  0.5993  0.5119999999999999  1.0000
  H   H4        1.0  0.2762  0.6312  0.4993  1.0000
  C   C6        1.0  0.37363  0.7518  0.5661  1.0000
  C   C7        1.0  0.4017800000000001  0.7164  0.5582  1.0000
  H   H5        1.0  0.4042  0.6309  0.5402999999999998  1.0000
  C   C8        1.0  0.42651  0.8048999999999998  0.5763  1.0000
  C   C9        1.0  0.42271  0.9353  0.6016  1.0000
  H   H6        1.0  0.4388  0.9963999999999998  0.6134  1.0000
  C   C10       1.0  0.39448  0.9725  0.6088  1.0000
  H   H7        1.0  0.3918  0.058899999999999994  0.6254  1.0000
  C   C11       1.0  0.37049  0.8816  0.5915  1.0000
  H   H8        1.0  0.3519  0.9078999999999999  0.5969  1.0000
  C   C12       1.0  0.45563  0.7653  0.5612  1.0000
  C   C13       1.0  0.31645  0.6658  0.3626  1.0000
  H   H9        1.0  0.3208  0.5723  0.3646  1.0000
  C   C14       1.0  0.33988  0.7574  0.3776  1.0000
  H   H10       1.0  0.3595999999999999  0.7243  0.3897  1.0000
  C   C15       1.0  0.33519  0.896  0.37539999999999996  1.0000
  C   C16       1.0  0.30525  0.938  0.3561999999999999  1.0000
  H   H11       1.0  0.3006  0.0311  0.3528  1.0000
  C   C17       1.0  0.28263  0.8422  0.34229999999999994  1.0000
  H   H12       1.0  0.2628  0.8733  0.33029999999999987  1.0000
  C   C18       1.0  0.36037  0.9993  0.3957  1.0000
  C   C19       1.0  0.39052  0.9607  0.4095999999999999  1.0000
  H   H13       1.0  0.3952  0.8691000000000001  0.4044  1.0000
  C   C20       1.0  0.41347  0.0525  0.43069999999999997  1.0000
  C   C21       1.0  0.40690999999999994  0.1905  0.4374  1.0000
  H   H14       1.0  0.42240000000000005  0.2542  0.4516  1.0000
  C   C22       1.0  0.37747  0.23099999999999998  0.42279999999999995  1.0000
  H   H15       1.0  0.373  0.3232  0.42699999999999994  1.0000
  C   C23       1.0  0.35415  0.1382  0.4018  1.0000
  H   H16       1.0  0.3342  0.16829999999999998  0.39179999999999987  1.0000
  C   C24       1.0  0.44576  0.007500000000000001  0.4473  1.0000
  C   C25       1.0  0.6549800000000002  0.1912  0.7966  1.0000
  H   H17       1.0  0.6506  0.0985  0.7993  1.0000
  C   C26       1.0  0.63126  0.279  0.7701999999999998  1.0000
  H   H18       1.0  0.6117  0.2447  0.7552  1.0000
  C   C27       1.0  0.6365  0.41740000000000005  0.7658999999999999  1.0000
  C   C28       1.0  0.66646  0.4596  0.7879999999999998  1.0000
  H   H19       1.0  0.6714  0.5516  0.7847999999999998  1.0000
  C   C29       1.0  0.6888599999999999  0.3655  0.8142999999999999  1.0000
  H   H20       1.0  0.7086  0.3972  0.83  1.0000
  C   C30       1.0  0.61172  0.514  0.7376999999999998  1.0000
  C   C31       1.0  0.58622  0.4729999999999999  0.6885  1.0000
  H   H21       1.0  0.5849  0.3826  0.6733999999999999  1.0000
  C   C32       1.0  0.56284  0.562  0.6615  1.0000
  C   C33       1.0  0.56455  0.6957  0.6844  1.0000
  H   H22       1.0  0.5489  0.7569  0.6664  1.0000
  C   C34       1.0  0.5894  0.7386  0.7339999999999998  1.0000
  H   H23       1.0  0.5900999999999998  0.8278999999999999  0.7502999999999999  1.0000
  C   C35       1.0  0.61322  0.6503  0.7599  1.0000
  H   H24       1.0  0.6302  0.6814  0.7919999999999998  1.0000
  C   C36       1.0  0.53672  0.5138999999999999  0.6059  1.0000
  Gd  Gd2       1.0  0.9966099999999999  0.25163  0.48341999999999996  1.0000
  Cu  Cu4       1.0  0.7163  0.90674  0.3627  1.0000
  Cu  Cu5       1.0  0.76634  0.83117  0.46704999999999997  1.0000
  Cu  Cu6       1.0  0.7529999999999999  0.07667  0.33148  1.0000
  I   I4        1.0  0.71658  0.92144  0.49132999999999993  1.0000
  I   I5        1.0  0.76768  0.8218  0.3375099999999999  1.0000
  I   I6        1.0  0.6989599999999999  0.15422  0.31126  1.0000
  O   O7        1.0  0.95644  0.1551  0.5297999999999999  1.0000
  O   O8        1.0  0.9782399999999999  0.3457  0.5773  1.0000
  O   O9        1.0  0.9511  0.3832  0.4368  1.0000
  O   O10       1.0  0.9665000000000001  0.5919  0.47219999999999995  1.0000
  O   O11       1.0  0.021490000000000002  0.0996  0.5651  1.0000
  O   O12       1.0  0.031609999999999965  0.8874  0.6027999999999998  1.0000
  N   N4        1.0  0.80014  0.9630000000000001  0.5105  1.0000
  N   N5        1.0  0.78736  0.20579999999999998  0.3447999999999999  1.0000
  N   N6        1.0  0.18378  0.7298  0.8185999999999999  1.0000
  C   C37       1.0  0.82917  0.9228999999999999  0.5293  1.0000
  H   H25       1.0  0.8333000000000002  0.8293999999999999  0.5290999999999999  1.0000
  C   C38       1.0  0.8533999999999999  0.013000000000000001  0.5488999999999999  1.0000
  H   H26       1.0  0.873  0.9789  0.5622  1.0000
  C   C39       1.0  0.8485  0.1512  0.5488  1.0000
  C   C40       1.0  0.81851  0.1957  0.5307999999999999  1.0000
  H   H27       1.0  0.8138999999999998  0.2886  0.5315  1.0000
  C   C41       1.0  0.79601  0.0993  0.5119999999999999  1.0000
  H   H28       1.0  0.7762  0.1312  0.4993  1.0000
  C   C42       1.0  0.87363  0.2518  0.5661  1.0000
  C   C43       1.0  0.90178  0.2164  0.5582  1.0000
  H   H29       1.0  0.9042000000000001  0.1309  0.5402999999999998  1.0000
  C   C44       1.0  0.92651  0.3049  0.5763  1.0000
  C   C45       1.0  0.9227099999999999  0.43529999999999996  0.6016  1.0000
  H   H30       1.0  0.9388  0.49639999999999995  0.6134  1.0000
  C   C46       1.0  0.8944799999999999  0.4725  0.6088  1.0000
  H   H31       1.0  0.8918  0.5589  0.6254  1.0000
  C   C47       1.0  0.8704899999999999  0.3816  0.5915  1.0000
  H   H32       1.0  0.8519000000000001  0.4079  0.5969  1.0000
  C   C48       1.0  0.9556299999999999  0.2653  0.5612  1.0000
  C   C49       1.0  0.8164500000000001  0.1658  0.3626  1.0000
  H   H33       1.0  0.8208000000000001  0.0723  0.3646  1.0000
  C   C50       1.0  0.83988  0.2574  0.3776  1.0000
  H   H34       1.0  0.8596  0.22430000000000003  0.3897  1.0000
  C   C51       1.0  0.8351899999999999  0.396  0.37539999999999996  1.0000
  C   C52       1.0  0.8052499999999999  0.438  0.3561999999999999  1.0000
  H   H35       1.0  0.8006  0.5311  0.3528  1.0000
  C   C53       1.0  0.78263  0.3422  0.34229999999999994  1.0000
  H   H36       1.0  0.7627999999999999  0.3733  0.33029999999999987  1.0000
  C   C54       1.0  0.86037  0.49929999999999997  0.3957  1.0000
  C   C55       1.0  0.89052  0.46069999999999994  0.4095999999999999  1.0000
  H   H37       1.0  0.8952  0.3691  0.4044  1.0000
  C   C56       1.0  0.91347  0.5525  0.43069999999999997  1.0000
  C   C57       1.0  0.90691  0.6905  0.4374  1.0000
  H   H38       1.0  0.9224  0.7542  0.4516  1.0000
  C   C58       1.0  0.8774700000000001  0.731  0.42279999999999995  1.0000
  H   H39       1.0  0.873  0.8231999999999999  0.42699999999999994  1.0000
  C   C59       1.0  0.85415  0.6382  0.4018  1.0000
  H   H40       1.0  0.8341999999999999  0.6683  0.39179999999999987  1.0000
  C   C60       1.0  0.94576  0.5075  0.4473  1.0000
  C   C61       1.0  0.15498  0.6912  0.7966  1.0000
  H   H41       1.0  0.1506  0.5985  0.7993  1.0000
  C   C62       1.0  0.13125999999999996  0.779  0.7701999999999998  1.0000
  H   H42       1.0  0.1117  0.7447  0.7552  1.0000
  C   C63       1.0  0.13650000000000004  0.9174  0.7658999999999999  1.0000
  C   C64       1.0  0.16646  0.9596000000000001  0.7879999999999998  1.0000
  H   H43       1.0  0.17139999999999997  0.0516  0.7847999999999998  1.0000
  C   C65       1.0  0.18886  0.8655000000000002  0.8142999999999999  1.0000
  H   H44       1.0  0.2086  0.8972000000000001  0.83  1.0000
  C   C66       1.0  0.11171999999999999  0.014  0.7376999999999998  1.0000
  C   C67       1.0  0.08622  0.973  0.6885  1.0000
  H   H45       1.0  0.08489999999999999  0.8825999999999999  0.6733999999999999  1.0000
  C   C68       1.0  0.06284  0.062  0.6615  1.0000
  C   C69       1.0  0.06455  0.1957  0.6844  1.0000
  H   H46       1.0  0.0489  0.2569  0.6664  1.0000
  C   C70       1.0  0.08939999999999995  0.23859999999999998  0.7339999999999998  1.0000
  H   H47       1.0  0.0901  0.3279  0.7502999999999999  1.0000
  C   C71       1.0  0.11322000000000002  0.1503  0.7599  1.0000
  H   H48       1.0  0.13019999999999998  0.1814  0.7919999999999998  1.0000
  C   C72       1.0  0.03671999999999999  0.013899999999999997  0.6059  1.0000
  Gd  Gd3       1.0  0.50339  0.7516299999999999  0.01658  1.0000
  Cu  Cu7       1.0  0.7836999999999998  0.40674  0.13729999999999998  1.0000
  Cu  Cu8       1.0  0.73366  0.33117  0.03295  1.0000
  Cu  Cu9       1.0  0.7470000000000001  0.57667  0.16851999999999998  1.0000
  I   I7        1.0  0.78342  0.42144000000000004  0.00867  1.0000
  I   I8        1.0  0.73232  0.3218  0.16248999999999994  1.0000
  I   I9        1.0  0.8010400000000001  0.65422  0.18874  1.0000
  O   O13       1.0  0.54356  0.6551  0.9702  1.0000
  O   O14       1.0  0.52176  0.8456999999999999  0.9226999999999999  1.0000
  O   O15       1.0  0.5489  0.8831999999999999  0.0632  1.0000
  O   O16       1.0  0.5335  0.0919  0.027799999999999995  1.0000
  O   O17       1.0  0.47850999999999994  0.5996  0.9349  1.0000
  O   O18       1.0  0.46839  0.3874  0.8972  1.0000
  N   N7        1.0  0.69986  0.463  0.9894999999999999  1.0000
  N   N8        1.0  0.71264  0.7058  0.1552  1.0000
  N   N9        1.0  0.31621999999999995  0.2298  0.6813999999999998  1.0000
  C   C73       1.0  0.67083  0.4229  0.9707  1.0000
  H   H49       1.0  0.6667  0.3294  0.9708999999999999  1.0000
  C   C74       1.0  0.6466  0.513  0.9510999999999998  1.0000
  H   H50       1.0  0.627  0.47889999999999994  0.9378  1.0000
  C   C75       1.0  0.6515  0.6512  0.9512  1.0000
  C   C76       1.0  0.68149  0.6957  0.9691999999999998  1.0000
  H   H51       1.0  0.6860999999999999  0.7886  0.9685  1.0000
  C   C77       1.0  0.70399  0.5993  0.988  1.0000
  H   H52       1.0  0.7238  0.6312  0.0006999999999999999  1.0000
  C   C78       1.0  0.62637  0.7518  0.9338999999999998  1.0000
  C   C79       1.0  0.59822  0.7164  0.9418  1.0000
  H   H53       1.0  0.5957999999999998  0.6309  0.9596999999999999  1.0000
  C   C80       1.0  0.57349  0.8048999999999998  0.9237  1.0000
  C   C81       1.0  0.5772900000000001  0.9353  0.8984  1.0000
  H   H54       1.0  0.5612  0.9963999999999998  0.8865999999999999  1.0000
  C   C82       1.0  0.60552  0.9725  0.8912  1.0000
  H   H55       1.0  0.6082  0.058899999999999994  0.8745999999999999  1.0000
  C   C83       1.0  0.62951  0.8816  0.9085  1.0000
  H   H56       1.0  0.6481  0.9078999999999999  0.9030999999999999  1.0000
  C   C84       1.0  0.5443699999999999  0.7653  0.9387999999999997  1.0000
  C   C85       1.0  0.68355  0.6658  0.1374  1.0000
  H   H57       1.0  0.6792  0.5723  0.1354  1.0000
  C   C86       1.0  0.66012  0.7574  0.1224  1.0000
  H   H58       1.0  0.6404  0.7243  0.11029999999999998  1.0000
  C   C87       1.0  0.66481  0.896  0.12459999999999997  1.0000
  C   C88       1.0  0.69475  0.938  0.14379999999999998  1.0000
  H   H59       1.0  0.6994  0.0311  0.1472  1.0000
  C   C89       1.0  0.71737  0.8422  0.15769999999999995  1.0000
  H   H60       1.0  0.7372000000000001  0.8733  0.1697  1.0000
  C   C90       1.0  0.63963  0.9993  0.10429999999999999  1.0000
  C   C91       1.0  0.60948  0.9607  0.0904  1.0000
  H   H61       1.0  0.6048  0.8691000000000001  0.0956  1.0000
  C   C92       1.0  0.58653  0.0525  0.06929999999999999  1.0000
  C   C93       1.0  0.59309  0.1905  0.06259999999999999  1.0000
  H   H62       1.0  0.5776  0.2542  0.048399999999999985  1.0000
  C   C94       1.0  0.62253  0.23099999999999998  0.07719999999999999  1.0000
  H   H63       1.0  0.627  0.3232  0.073  1.0000
  C   C95       1.0  0.64585  0.1382  0.09819999999999997  1.0000
  H   H64       1.0  0.6658  0.16829999999999998  0.1082  1.0000
  C   C96       1.0  0.55424  0.007500000000000001  0.0527  1.0000
  C   C97       1.0  0.34502  0.1912  0.7033999999999999  1.0000
  H   H65       1.0  0.3494  0.0985  0.7006999999999999  1.0000
  C   C98       1.0  0.36874  0.279  0.7298  1.0000
  H   H66       1.0  0.3883  0.2447  0.7447999999999999  1.0000
  C   C99       1.0  0.3635  0.41740000000000005  0.7341  1.0000
  C   C100      1.0  0.33354  0.4596  0.712  1.0000
  H   H67       1.0  0.3286  0.5516  0.7152  1.0000
  C   C101      1.0  0.3111400000000001  0.3655  0.6857  1.0000
  H   H68       1.0  0.29139999999999994  0.3972  0.67  1.0000
  C   C102      1.0  0.38828  0.514  0.7623  1.0000
  C   C103      1.0  0.41378  0.4729999999999999  0.8115  1.0000
  H   H69       1.0  0.4151  0.3826  0.8265999999999999  1.0000
  C   C104      1.0  0.43716  0.562  0.8385  1.0000
  C   C105      1.0  0.43545  0.6957  0.8156  1.0000
  H   H70       1.0  0.4511  0.7569  0.8335999999999998  1.0000
  C   C106      1.0  0.4106  0.7386  0.766  1.0000
  H   H71       1.0  0.4099  0.8278999999999999  0.7497  1.0000
  C   C107      1.0  0.38678  0.6503  0.7401  1.0000
  H   H72       1.0  0.3698  0.6814  0.708  1.0000
  C   C108      1.0  0.46328  0.5138999999999999  0.8941  1.0000
  Gd  Gd4       1.0  0.0033899999999999994  0.25163  0.01658  1.0000
  Cu  Cu10      1.0  0.2837  0.90674  0.13729999999999998  1.0000
  Cu  Cu11      1.0  0.23366  0.83117  0.03295  1.0000
  Cu  Cu12      1.0  0.24699999999999994  0.07667  0.16851999999999998  1.0000
  I   I10       1.0  0.28342  0.92144  0.00867  1.0000
  I   I11       1.0  0.23232  0.8218  0.16248999999999994  1.0000
  I   I12       1.0  0.30104  0.15422  0.18874  1.0000
  O   O19       1.0  0.04355999999999998  0.1551  0.9702  1.0000
  O   O20       1.0  0.02175999999999998  0.3457  0.9226999999999999  1.0000
  O   O21       1.0  0.0489  0.3832  0.0632  1.0000
  O   O22       1.0  0.0335  0.5919  0.027799999999999995  1.0000
  O   O23       1.0  0.9785100000000001  0.0996  0.9349  1.0000
  O   O24       1.0  0.9683899999999999  0.8874  0.8972  1.0000
  N   N10       1.0  0.19985999999999998  0.9630000000000001  0.9894999999999999  1.0000
  N   N11       1.0  0.21264000000000002  0.20579999999999998  0.1552  1.0000
  N   N12       1.0  0.81622  0.7298  0.6813999999999998  1.0000
  C   C109      1.0  0.17083  0.9228999999999999  0.9707  1.0000
  H   H73       1.0  0.16669999999999993  0.8293999999999999  0.9708999999999999  1.0000
  C   C110      1.0  0.14659999999999998  0.013000000000000001  0.9510999999999998  1.0000
  H   H74       1.0  0.127  0.9789  0.9378  1.0000
  C   C111      1.0  0.1515  0.1512  0.9512  1.0000
  C   C112      1.0  0.18149  0.1957  0.9691999999999998  1.0000
  H   H75       1.0  0.18610000000000002  0.2886  0.9685  1.0000
  C   C113      1.0  0.20399  0.0993  0.988  1.0000
  H   H76       1.0  0.2238  0.1312  0.0006999999999999999  1.0000
  C   C114      1.0  0.12636999999999998  0.2518  0.9338999999999998  1.0000
  C   C115      1.0  0.09822  0.2164  0.9418  1.0000
  H   H77       1.0  0.09579999999999998  0.1309  0.9596999999999999  1.0000
  C   C116      1.0  0.07349  0.3049  0.9237  1.0000
  C   C117      1.0  0.07729  0.43529999999999996  0.8984  1.0000
  H   H78       1.0  0.06119999999999999  0.49639999999999995  0.8865999999999999  1.0000
  C   C118      1.0  0.10552  0.4725  0.8912  1.0000
  H   H79       1.0  0.10819999999999999  0.5589  0.8745999999999999  1.0000
  C   C119      1.0  0.12951  0.3816  0.9085  1.0000
  H   H80       1.0  0.14809999999999998  0.4079  0.9030999999999999  1.0000
  C   C120      1.0  0.04436999999999998  0.2653  0.9387999999999997  1.0000
  C   C121      1.0  0.18355  0.1658  0.1374  1.0000
  H   H81       1.0  0.1792  0.0723  0.1354  1.0000
  C   C122      1.0  0.16012  0.2574  0.1224  1.0000
  H   H82       1.0  0.1404  0.22430000000000003  0.11029999999999998  1.0000
  C   C123      1.0  0.16480999999999996  0.396  0.12459999999999997  1.0000
  C   C124      1.0  0.19475  0.438  0.14379999999999998  1.0000
  H   H83       1.0  0.1994  0.5311  0.1472  1.0000
  C   C125      1.0  0.21737  0.3422  0.15769999999999995  1.0000
  H   H84       1.0  0.2372  0.3733  0.1697  1.0000
  C   C126      1.0  0.13963  0.49929999999999997  0.10429999999999999  1.0000
  C   C127      1.0  0.10948  0.46069999999999994  0.0904  1.0000
  H   H85       1.0  0.1048  0.3691  0.0956  1.0000
  C   C128      1.0  0.08653  0.5525  0.06929999999999999  1.0000
  C   C129      1.0  0.09309  0.6905  0.06259999999999999  1.0000
  H   H86       1.0  0.0776  0.7542  0.048399999999999985  1.0000
  C   C130      1.0  0.12253  0.731  0.07719999999999999  1.0000
  H   H87       1.0  0.127  0.8231999999999999  0.073  1.0000
  C   C131      1.0  0.14585  0.6382  0.09819999999999997  1.0000
  H   H88       1.0  0.1658  0.6683  0.1082  1.0000
  C   C132      1.0  0.05423999999999999  0.5075  0.0527  1.0000
  C   C133      1.0  0.8450199999999999  0.6912  0.7033999999999999  1.0000
  H   H89       1.0  0.8494  0.5985  0.7006999999999999  1.0000
  C   C134      1.0  0.86874  0.779  0.7298  1.0000
  H   H90       1.0  0.8883  0.7447  0.7447999999999999  1.0000
  C   C135      1.0  0.8635  0.9174  0.7341  1.0000
  C   C136      1.0  0.83354  0.9596000000000001  0.712  1.0000
  H   H91       1.0  0.8286  0.0516  0.7152  1.0000
  C   C137      1.0  0.8111399999999999  0.8655000000000002  0.6857  1.0000
  H   H92       1.0  0.7914  0.8972000000000001  0.67  1.0000
  C   C138      1.0  0.88828  0.014  0.7623  1.0000
  C   C139      1.0  0.91378  0.973  0.8115  1.0000
  H   H93       1.0  0.9151  0.8825999999999999  0.8265999999999999  1.0000
  C   C140      1.0  0.9371599999999999  0.062  0.8385  1.0000
  C   C141      1.0  0.9354500000000001  0.1957  0.8156  1.0000
  H   H94       1.0  0.9511  0.2569  0.8335999999999998  1.0000
  C   C142      1.0  0.9106  0.23859999999999998  0.766  1.0000
  H   H95       1.0  0.9099000000000002  0.3279  0.7497  1.0000
  C   C143      1.0  0.88678  0.1503  0.7401  1.0000
  H   H96       1.0  0.8698  0.1814  0.708  1.0000
  C   C144      1.0  0.96328  0.013899999999999997  0.8941  1.0000
  Gd  Gd5       1.0  0.5033899999999999  0.24837  0.5165799999999999  1.0000
  Cu  Cu13      1.0  0.7837  0.59326  0.6373  1.0000
  Cu  Cu14      1.0  0.73366  0.66883  0.5329499999999999  1.0000
  Cu  Cu15      1.0  0.7470000000000001  0.42332999999999993  0.66852  1.0000
  I   I13       1.0  0.78342  0.57856  0.50867  1.0000
  I   I14       1.0  0.73232  0.6782  0.66249  1.0000
  I   I15       1.0  0.8010400000000001  0.34578  0.6887399999999999  1.0000
  O   O25       1.0  0.54356  0.3449  0.47019999999999995  1.0000
  O   O26       1.0  0.52176  0.1543  0.4227  1.0000
  O   O27       1.0  0.5489  0.1168  0.5632  1.0000
  O   O28       1.0  0.5335  0.9080999999999999  0.5278  1.0000
  O   O29       1.0  0.47850999999999994  0.4004  0.4348999999999999  1.0000
  O   O30       1.0  0.4683899999999999  0.6126  0.3972  1.0000
  N   N13       1.0  0.69986  0.537  0.48949999999999994  1.0000
  N   N14       1.0  0.71264  0.2942  0.6552  1.0000
  N   N15       1.0  0.31622  0.7701999999999999  0.1814  1.0000
  C   C145      1.0  0.67083  0.5771  0.4707  1.0000
  H   H97       1.0  0.6667  0.6706  0.4709  1.0000
  C   C146      1.0  0.6466  0.487  0.45109999999999995  1.0000
  H   H98       1.0  0.627  0.5211  0.4378  1.0000
  C   C147      1.0  0.6515  0.3488  0.4512  1.0000
  C   C148      1.0  0.68149  0.3043  0.46919999999999995  1.0000
  H   H99       1.0  0.6861  0.2114  0.4684999999999999  1.0000
  C   C149      1.0  0.70399  0.40069999999999995  0.488  1.0000
  H   H100      1.0  0.7238  0.3688  0.5007  1.0000
  C   C150      1.0  0.62637  0.24819999999999998  0.4338999999999999  1.0000
  C   C151      1.0  0.59822  0.2836  0.4418  1.0000
  H   H101      1.0  0.5958  0.3691  0.4597  1.0000
  C   C152      1.0  0.57349  0.1951  0.4237  1.0000
  C   C153      1.0  0.57729  0.0647  0.3984  1.0000
  H   H102      1.0  0.5612  0.0035999999999999995  0.3866  1.0000
  C   C154      1.0  0.60552  0.027499999999999997  0.3912  1.0000
  H   H103      1.0  0.6082  0.9411  0.3746  1.0000
  C   C155      1.0  0.6295099999999999  0.1184  0.40849999999999986  1.0000
  H   H104      1.0  0.6481  0.0921  0.40309999999999996  1.0000
  C   C156      1.0  0.5443699999999999  0.2347  0.4388  1.0000
  C   C157      1.0  0.68355  0.3342  0.6374  1.0000
  H   H105      1.0  0.6792  0.42769999999999997  0.6354  1.0000
  C   C158      1.0  0.66012  0.2426  0.6223999999999997  1.0000
  H   H106      1.0  0.6404  0.2757  0.6103  1.0000
  C   C159      1.0  0.6648099999999999  0.10400000000000001  0.6245999999999998  1.0000
  C   C160      1.0  0.69475  0.062  0.6438  1.0000
  H   H107      1.0  0.6994  0.9689  0.6472  1.0000
  C   C161      1.0  0.71737  0.1578  0.6577  1.0000
  H   H108      1.0  0.7372000000000001  0.1267  0.6696999999999999  1.0000
  C   C162      1.0  0.63963  0.0007  0.6042999999999997  1.0000
  C   C163      1.0  0.60948  0.0393  0.5904  1.0000
  H   H109      1.0  0.6047999999999999  0.1309  0.5955999999999998  1.0000
  C   C164      1.0  0.58653  0.9475  0.5692999999999998  1.0000
  C   C165      1.0  0.59309  0.8095  0.5625999999999999  1.0000
  H   H110      1.0  0.5776  0.7458  0.5484  1.0000
  C   C166      1.0  0.62253  0.769  0.5771999999999999  1.0000
  H   H111      1.0  0.627  0.6767999999999998  0.5729999999999998  1.0000
  C   C167      1.0  0.64585  0.8617999999999999  0.5982  1.0000
  H   H112      1.0  0.6658  0.8317  0.6081999999999999  1.0000
  C   C168      1.0  0.55424  0.9925  0.5526999999999999  1.0000
  C   C169      1.0  0.34502  0.8088  0.2034  1.0000
  H   H113      1.0  0.3494  0.9015  0.20069999999999996  1.0000
  C   C170      1.0  0.36874  0.721  0.22979999999999998  1.0000
  H   H114      1.0  0.3883  0.7553  0.2448  1.0000
  C   C171      1.0  0.3635  0.5826  0.23409999999999997  1.0000
  C   C172      1.0  0.33354  0.5404  0.21199999999999994  1.0000
  H   H115      1.0  0.3286  0.4484000000000001  0.21519999999999997  1.0000
  C   C173      1.0  0.31114  0.6345  0.1857  1.0000
  H   H116      1.0  0.2914  0.6028  0.17  1.0000
  C   C174      1.0  0.38828  0.48599999999999993  0.2623  1.0000
  C   C175      1.0  0.41378  0.527  0.3115  1.0000
  H   H117      1.0  0.4151  0.6173999999999998  0.3266  1.0000
  C   C176      1.0  0.43716  0.438  0.3385  1.0000
  C   C177      1.0  0.43545  0.3043  0.3156  1.0000
  H   H118      1.0  0.4511  0.2431  0.33359999999999995  1.0000
  C   C178      1.0  0.4106  0.2614  0.266  1.0000
  H   H119      1.0  0.4099  0.1721  0.24969999999999995  1.0000
  C   C179      1.0  0.38678  0.3497  0.2401  1.0000
  H   H120      1.0  0.3698  0.3186  0.208  1.0000
  C   C180      1.0  0.46328  0.48610000000000003  0.39409999999999995  1.0000
  Gd  Gd6       1.0  0.0033899999999999794  0.74837  0.5165799999999999  1.0000
  Cu  Cu16      1.0  0.2837  0.09326  0.6373  1.0000
  Cu  Cu17      1.0  0.23365999999999995  0.16883  0.5329499999999999  1.0000
  Cu  Cu18      1.0  0.24699999999999997  0.92333  0.66852  1.0000
  I   I16       1.0  0.28342  0.07856  0.50867  1.0000
  I   I17       1.0  0.23232  0.1782  0.66249  1.0000
  I   I18       1.0  0.30104  0.84578  0.6887399999999999  1.0000
  O   O31       1.0  0.043559999999999995  0.8449  0.47019999999999995  1.0000
  O   O32       1.0  0.02176  0.6543  0.4227  1.0000
  O   O33       1.0  0.0489  0.6168  0.5632  1.0000
  O   O34       1.0  0.0335  0.4081  0.5278  1.0000
  O   O35       1.0  0.97851  0.9004000000000001  0.4348999999999999  1.0000
  O   O36       1.0  0.9683899999999999  0.1126  0.3972  1.0000
  N   N16       1.0  0.19985999999999998  0.037  0.48949999999999994  1.0000
  N   N17       1.0  0.21264000000000002  0.7942  0.6552  1.0000
  N   N18       1.0  0.81622  0.2702  0.1814  1.0000
  C   C181      1.0  0.17083000000000004  0.0771  0.4707  1.0000
  H   H121      1.0  0.16669999999999993  0.1706  0.4709  1.0000
  C   C182      1.0  0.1466  0.9869999999999999  0.45109999999999995  1.0000
  H   H122      1.0  0.127  0.0211  0.4378  1.0000
  C   C183      1.0  0.1515  0.8488  0.4512  1.0000
  C   C184      1.0  0.18149  0.8043  0.46919999999999995  1.0000
  H   H123      1.0  0.18610000000000002  0.7114  0.4684999999999999  1.0000
  C   C185      1.0  0.20399  0.9007  0.488  1.0000
  H   H124      1.0  0.2238  0.8688  0.5007  1.0000
  C   C186      1.0  0.12637  0.7482  0.4338999999999999  1.0000
  C   C187      1.0  0.09822  0.7836  0.4418  1.0000
  H   H125      1.0  0.0958  0.8691000000000001  0.4597  1.0000
  C   C188      1.0  0.07349  0.6951  0.4237  1.0000
  C   C189      1.0  0.07729  0.5647  0.3984  1.0000
  H   H126      1.0  0.0612  0.5036  0.3866  1.0000
  C   C190      1.0  0.10552  0.5275  0.3912  1.0000
  H   H127      1.0  0.1082  0.4411  0.3746  1.0000
  C   C191      1.0  0.12950999999999996  0.6184  0.40849999999999986  1.0000
  H   H128      1.0  0.14809999999999998  0.5921  0.40309999999999996  1.0000
  C   C192      1.0  0.04437  0.7347  0.4388  1.0000
  C   C193      1.0  0.18355  0.8342000000000002  0.6374  1.0000
  H   H129      1.0  0.1792  0.9277  0.6354  1.0000
  C   C194      1.0  0.16011999999999996  0.7426  0.6223999999999997  1.0000
  H   H130      1.0  0.1404  0.7757  0.6103  1.0000
  C   C195      1.0  0.16480999999999996  0.604  0.6245999999999998  1.0000
  C   C196      1.0  0.19475  0.562  0.6438  1.0000
  H   H131      1.0  0.1994  0.4689  0.6472  1.0000
  C   C197      1.0  0.21737  0.6578  0.6577  1.0000
  H   H132      1.0  0.23719999999999994  0.6267  0.6696999999999999  1.0000
  C   C198      1.0  0.13962999999999998  0.5007  0.6042999999999997  1.0000
  C   C199      1.0  0.10948  0.5393  0.5904  1.0000
  H   H133      1.0  0.10479999999999999  0.6309  0.5955999999999998  1.0000
  C   C200      1.0  0.08652999999999997  0.44749999999999995  0.5692999999999998  1.0000
  C   C201      1.0  0.09309  0.3095  0.5625999999999999  1.0000
  H   H134      1.0  0.0776  0.2458  0.5484  1.0000
  C   C202      1.0  0.12253  0.269  0.5771999999999999  1.0000
  H   H135      1.0  0.127  0.1768  0.5729999999999998  1.0000
  C   C203      1.0  0.14585  0.3618  0.5982  1.0000
  H   H136      1.0  0.1658  0.3317  0.6081999999999999  1.0000
  C   C204      1.0  0.05423999999999998  0.4925  0.5526999999999999  1.0000
  C   C205      1.0  0.8450199999999999  0.3088  0.2034  1.0000
  H   H137      1.0  0.8493999999999998  0.4015  0.20069999999999996  1.0000
  C   C206      1.0  0.86874  0.221  0.22979999999999998  1.0000
  H   H138      1.0  0.8883  0.25529999999999997  0.2448  1.0000
  C   C207      1.0  0.8635  0.0826  0.23409999999999997  1.0000
  C   C208      1.0  0.83354  0.0404  0.21199999999999994  1.0000
  H   H139      1.0  0.8286  0.9483999999999999  0.21519999999999997  1.0000
  C   C209      1.0  0.8111399999999999  0.1345  0.1857  1.0000
  H   H140      1.0  0.7914  0.1028  0.17  1.0000
  C   C210      1.0  0.88828  0.986  0.2623  1.0000
  C   C211      1.0  0.91378  0.027  0.3115  1.0000
  H   H141      1.0  0.9151  0.11739999999999999  0.3266  1.0000
  C   C212      1.0  0.9371599999999999  0.938  0.3385  1.0000
  C   C213      1.0  0.9354500000000001  0.8043  0.3156  1.0000
  H   H142      1.0  0.9511  0.7431  0.33359999999999995  1.0000
  C   C214      1.0  0.9106  0.7614  0.266  1.0000
  H   H143      1.0  0.9099000000000002  0.6721  0.24969999999999995  1.0000
  C   C215      1.0  0.88678  0.8497  0.2401  1.0000
  H   H144      1.0  0.8698  0.8186  0.208  1.0000
  C   C216      1.0  0.96328  0.9860999999999999  0.39409999999999995  1.0000
  Gd  Gd7       1.0  0.49661  0.24837  0.98342  1.0000
  Cu  Cu19      1.0  0.2163  0.59326  0.8627  1.0000
  Cu  Cu20      1.0  0.26634  0.66883  0.96705  1.0000
  Cu  Cu21      1.0  0.253  0.42332999999999993  0.8314799999999999  1.0000
  I   I19       1.0  0.21657999999999997  0.57856  0.9913299999999998  1.0000
  I   I20       1.0  0.26768  0.6782  0.83751  1.0000
  I   I21       1.0  0.19896  0.34578  0.81126  1.0000
  O   O37       1.0  0.45643999999999996  0.3449  0.029799999999999997  1.0000
  O   O38       1.0  0.47824  0.1543  0.07729999999999998  1.0000
  O   O39       1.0  0.4511  0.1168  0.9367999999999997  1.0000
  O   O40       1.0  0.4665  0.9080999999999999  0.9722  1.0000
  O   O41       1.0  0.52149  0.4004  0.0651  1.0000
  O   O42       1.0  0.53161  0.6126  0.1028  1.0000
  N   N19       1.0  0.30014  0.537  0.0105  1.0000
  N   N20       1.0  0.28735999999999995  0.2942  0.8447999999999998  1.0000
  N   N21       1.0  0.68378  0.7701999999999999  0.31859999999999994  1.0000
  C   C217      1.0  0.32917  0.5771  0.029299999999999996  1.0000
  H   H145      1.0  0.3333  0.6706  0.029099999999999997  1.0000
  C   C218      1.0  0.3534  0.487  0.0489  1.0000
  H   H146      1.0  0.373  0.5211  0.0622  1.0000
  C   C219      1.0  0.3485  0.3488  0.04879999999999999  1.0000
  C   C220      1.0  0.31851  0.3043  0.030799999999999994  1.0000
  H   H147      1.0  0.3139  0.2114  0.0315  1.0000
  C   C221      1.0  0.29601  0.40069999999999995  0.012  1.0000
  H   H148      1.0  0.2762  0.3688  0.9993  1.0000
  C   C222      1.0  0.37363  0.24819999999999998  0.0661  1.0000
  C   C223      1.0  0.4017800000000001  0.2836  0.058199999999999995  1.0000
  H   H149      1.0  0.4042  0.3691  0.0403  1.0000
  C   C224      1.0  0.42651  0.1951  0.07629999999999999  1.0000
  C   C225      1.0  0.42271  0.0647  0.1016  1.0000
  H   H150      1.0  0.4388  0.0035999999999999995  0.1134  1.0000
  C   C226      1.0  0.39448  0.027499999999999997  0.10879999999999998  1.0000
  H   H151      1.0  0.3918  0.9411  0.1254  1.0000
  C   C227      1.0  0.37049  0.1184  0.09149999999999997  1.0000
  H   H152      1.0  0.3519  0.0921  0.0969  1.0000
  C   C228      1.0  0.45563  0.2347  0.0612  1.0000
  C   C229      1.0  0.31645  0.3342  0.8625999999999998  1.0000
  H   H153      1.0  0.3207999999999999  0.42769999999999997  0.8645999999999998  1.0000
  C   C230      1.0  0.33988  0.2426  0.8776  1.0000
  H   H154      1.0  0.3595999999999999  0.2757  0.8897  1.0000
  C   C231      1.0  0.33519  0.10400000000000001  0.8754  1.0000
  C   C232      1.0  0.30525  0.062  0.8562  1.0000
  H   H155      1.0  0.3005999999999999  0.9689  0.8527999999999999  1.0000
  C   C233      1.0  0.28263  0.1578  0.8423  1.0000
  H   H156      1.0  0.2628  0.1267  0.8302999999999999  1.0000
  C   C234      1.0  0.36037  0.0007  0.8957  1.0000
  C   C235      1.0  0.39052  0.0393  0.9096  1.0000
  H   H157      1.0  0.3952  0.1309  0.9044  1.0000
  C   C236      1.0  0.41347  0.9475  0.9306999999999999  1.0000
  C   C237      1.0  0.40690999999999994  0.8095  0.9374  1.0000
  H   H158      1.0  0.42240000000000005  0.7458  0.9515999999999999  1.0000
  C   C238      1.0  0.37747  0.769  0.9228  1.0000
  H   H159      1.0  0.373  0.6767999999999998  0.927  1.0000
  C   C239      1.0  0.35415  0.8617999999999999  0.9018  1.0000
  H   H160      1.0  0.33419999999999994  0.8317  0.8917999999999999  1.0000
  C   C240      1.0  0.44576  0.9925  0.9472999999999999  1.0000
  C   C241      1.0  0.65498  0.8088  0.2966  1.0000
  H   H161      1.0  0.6506  0.9015  0.2993  1.0000
  C   C242      1.0  0.63126  0.721  0.2702  1.0000
  H   H162      1.0  0.6117  0.7553  0.2552  1.0000
  C   C243      1.0  0.6365  0.5826  0.26589999999999997  1.0000
  C   C244      1.0  0.66646  0.5404  0.2879999999999999  1.0000
  H   H163      1.0  0.6714  0.4484000000000001  0.2848  1.0000
  C   C245      1.0  0.68886  0.6345  0.3143  1.0000
  H   H164      1.0  0.7086  0.6028  0.32999999999999996  1.0000
  C   C246      1.0  0.61172  0.48599999999999993  0.23769999999999997  1.0000
  C   C247      1.0  0.58622  0.527  0.18849999999999997  1.0000
  H   H165      1.0  0.5849  0.6173999999999998  0.1734  1.0000
  C   C248      1.0  0.56284  0.438  0.1615  1.0000
  C   C249      1.0  0.56455  0.3043  0.18439999999999998  1.0000
  H   H166      1.0  0.5489  0.2431  0.1664  1.0000
  C   C250      1.0  0.5894  0.2614  0.234  1.0000
  H   H167      1.0  0.5901  0.1721  0.2503  1.0000
  C   C251      1.0  0.61322  0.3497  0.2599  1.0000
  H   H168      1.0  0.6302  0.3186  0.292  1.0000
  C   C252      1.0  0.53672  0.48610000000000003  0.1059  1.0000
  Gd  Gd8       1.0  0.9966099999999999  0.74837  0.98342  1.0000
  Cu  Cu22      1.0  0.7163  0.09326  0.8627  1.0000
  Cu  Cu23      1.0  0.76634  0.16883  0.96705  1.0000
  Cu  Cu24      1.0  0.7529999999999999  0.92333  0.8314799999999999  1.0000
  I   I22       1.0  0.71658  0.07856  0.9913299999999998  1.0000
  I   I23       1.0  0.76768  0.1782  0.83751  1.0000
  I   I24       1.0  0.6989599999999999  0.84578  0.81126  1.0000
  O   O43       1.0  0.95644  0.8449  0.029799999999999997  1.0000
  O   O44       1.0  0.9782399999999999  0.6543  0.07729999999999998  1.0000
  O   O45       1.0  0.9511  0.6168  0.9367999999999997  1.0000
  O   O46       1.0  0.9665000000000001  0.4081  0.9722  1.0000
  O   O47       1.0  0.021489999999999995  0.9004000000000001  0.0651  1.0000
  O   O48       1.0  0.03161  0.1126  0.1028  1.0000
  N   N22       1.0  0.80014  0.037  0.0105  1.0000
  N   N23       1.0  0.78736  0.7942  0.8447999999999998  1.0000
  N   N24       1.0  0.18378  0.2702  0.31859999999999994  1.0000
  C   C253      1.0  0.82917  0.0771  0.029299999999999996  1.0000
  H   H169      1.0  0.8333000000000002  0.1706  0.029099999999999997  1.0000
  C   C254      1.0  0.8533999999999999  0.9869999999999999  0.0489  1.0000
  H   H170      1.0  0.873  0.0211  0.0622  1.0000
  C   C255      1.0  0.8485  0.8488  0.04879999999999999  1.0000
  C   C256      1.0  0.81851  0.8043  0.030799999999999994  1.0000
  H   H171      1.0  0.8138999999999998  0.7114  0.0315  1.0000
  C   C257      1.0  0.79601  0.9007  0.012  1.0000
  H   H172      1.0  0.7762  0.8688  0.9993  1.0000
  C   C258      1.0  0.87363  0.7482  0.0661  1.0000
  C   C259      1.0  0.90178  0.7836  0.058199999999999995  1.0000
  H   H173      1.0  0.9042000000000001  0.8691000000000001  0.0403  1.0000
  C   C260      1.0  0.92651  0.6951  0.07629999999999999  1.0000
  C   C261      1.0  0.9227099999999999  0.5647  0.1016  1.0000
  H   H174      1.0  0.9388  0.5036  0.1134  1.0000
  C   C262      1.0  0.8944799999999999  0.5275  0.10879999999999998  1.0000
  H   H175      1.0  0.8918  0.4411  0.1254  1.0000
  C   C263      1.0  0.8704899999999999  0.6184  0.09149999999999997  1.0000
  H   H176      1.0  0.8519000000000001  0.5921  0.0969  1.0000
  C   C264      1.0  0.9556299999999999  0.7347  0.0612  1.0000
  C   C265      1.0  0.8164500000000001  0.8342000000000002  0.8625999999999998  1.0000
  H   H177      1.0  0.8208000000000001  0.9277  0.8645999999999998  1.0000
  C   C266      1.0  0.8398799999999997  0.7426  0.8776  1.0000
  H   H178      1.0  0.8596  0.7757  0.8897  1.0000
  C   C267      1.0  0.8351899999999999  0.604  0.8754  1.0000
  C   C268      1.0  0.8052499999999999  0.562  0.8562  1.0000
  H   H179      1.0  0.8006  0.4689  0.8527999999999999  1.0000
  C   C269      1.0  0.78263  0.6578  0.8423  1.0000
  H   H180      1.0  0.7627999999999999  0.6267  0.8302999999999999  1.0000
  C   C270      1.0  0.86037  0.5007  0.8957  1.0000
  C   C271      1.0  0.8905200000000001  0.5393  0.9096  1.0000
  H   H181      1.0  0.8952  0.6309  0.9044  1.0000
  C   C272      1.0  0.91347  0.44749999999999995  0.9306999999999999  1.0000
  C   C273      1.0  0.90691  0.3095  0.9374  1.0000
  H   H182      1.0  0.9224  0.2458  0.9515999999999999  1.0000
  C   C274      1.0  0.8774700000000001  0.269  0.9228  1.0000
  H   H183      1.0  0.873  0.1768  0.927  1.0000
  C   C275      1.0  0.85415  0.3618  0.9018  1.0000
  H   H184      1.0  0.8342  0.3317  0.8917999999999999  1.0000
  C   C276      1.0  0.94576  0.4925  0.9472999999999999  1.0000
  C   C277      1.0  0.15498  0.3088  0.2966  1.0000
  H   H185      1.0  0.15060000000000007  0.4015  0.2993  1.0000
  C   C278      1.0  0.13126000000000002  0.221  0.2702  1.0000
  H   H186      1.0  0.1117  0.25529999999999997  0.2552  1.0000
  C   C279      1.0  0.13649999999999998  0.0826  0.26589999999999997  1.0000
  C   C280      1.0  0.16645999999999997  0.0404  0.2879999999999999  1.0000
  H   H187      1.0  0.1714  0.9483999999999999  0.2848  1.0000
  C   C281      1.0  0.18886  0.1345  0.3143  1.0000
  H   H188      1.0  0.2086  0.1028  0.32999999999999996  1.0000
  C   C282      1.0  0.11172  0.986  0.23769999999999997  1.0000
  C   C283      1.0  0.08622  0.027  0.18849999999999997  1.0000
  H   H189      1.0  0.0849  0.11739999999999999  0.1734  1.0000
  C   C284      1.0  0.06284  0.938  0.1615  1.0000
  C   C285      1.0  0.06455  0.8043  0.18439999999999998  1.0000
  H   H190      1.0  0.0489  0.7431  0.1664  1.0000
  C   C286      1.0  0.0894  0.7614  0.234  1.0000
  H   H191      1.0  0.0901  0.6721  0.2503  1.0000
  C   C287      1.0  0.11322000000000002  0.8497  0.2599  1.0000
  H   H192      1.0  0.1302  0.8186  0.292  1.0000
  C   C288      1.0  0.03672  0.9860999999999999  0.1059  1.0000
