data_image0
_chemical_formula_structural       ZnNCHCHC2HCHCH2NCHCHC2HCHCH2NCHCHC2HCHCH2ZnNCHCHC2HCHCH2NCHCHC2HCHCH2NCHCHC2HCHCH2NCHCHC2HCHCH2ZnNCHCHC2HCHCH2NCHCHC2HCHCH2ZnNCHCHC2HCHCH2NCHCHC2HCHCH2NCHCHC2HCHCH2ZnNCHCHC2HCHCH2NCHCHC2HCHCH2NCHCHC2HCHCH2NCHCHC2HCHCH2ZnNCHCHC2HCHCH2NCHCHC2HCHCH2
_chemical_formula_sum              "Zn6 N18 C108 H108"
_cell_length_a       13.2249
_cell_length_b       13.2989
_cell_length_c       20.3488
_cell_angle_alpha    81.266
_cell_angle_beta     81.426
_cell_angle_gamma    81.246

_symmetry_space_group_name_H-M    'P 1'
_symmetry_Int_Tables_number       1

loop_
  _symmetry_equiv_pos_as_xyz
  'x,y,z'

loop_
  _atom_site_type_symbol
  _atom_site_label
  _atom_site_symmetry_multiplicity
  _atom_site_fract_x
  _atom_site_fract_y
  _atom_site_fract_z
  _atom_site_occupancy
  Zn  Zn1       1.0  0.84308  0.7352899999999999  0.29524  1.0000
  N   N1        1.0  0.73473  0.81938  0.35314  1.0000
  C   C1        1.0  0.7328999999999999  0.9201000000000003  0.35484  1.0000
  H   H1        1.0  0.7877  0.9536  0.3298  1.0000
  C   C2        1.0  0.6538  0.9774  0.3917  1.0000
  H   H2        1.0  0.6547  0.048799999999999996  0.3915  1.0000
  C   C3        1.0  0.5741  0.9294  0.42871  1.0000
  C   C4        1.0  0.5773000000000001  0.8248999999999999  0.42814  1.0000
  H   H3        1.0  0.5243  0.7893  0.45370000000000005  1.0000
  C   C5        1.0  0.6583  0.7726  0.38999  1.0000
  H   H4        1.0  0.6596  0.7009999999999998  0.39  1.0000
  C   C6        1.0  0.4863  0.9915999999999999  0.4675  1.0000
  H   H5        1.0  0.46859999999999996  0.058799999999999984  0.44050000000000006  1.0000
  H   H6        1.0  0.4247  0.9552000000000003  0.47559999999999997  1.0000
  N   N2        1.0  0.8914099999999999  0.8287099999999998  0.20964999999999998  1.0000
  C   C7        1.0  0.8358000000000001  0.9148999999999998  0.18392  1.0000
  H   H7        1.0  0.7684  0.934  0.2057  1.0000
  C   C8        1.0  0.8723  0.9775999999999998  0.12689  1.0000
  H   H8        1.0  0.8306999999999999  0.0383  0.11059999999999999  1.0000
  C   C9        1.0  0.9701  0.9504999999999999  0.09411  1.0000
  C   C10       1.0  0.02770000000000001  0.8609999999999999  0.12057  1.0000
  H   H9        1.0  0.095  0.8399  0.0994  1.0000
  C   C11       1.0  0.9868  0.8029  0.17759  1.0000
  H   H10       1.0  0.027399999999999987  0.7423  0.195  1.0000
  C   C12       1.0  0.013099999999999997  0.0164  0.03211  1.0000
  H   H11       1.0  0.08899999999999998  0.0107  0.0303  1.0000
  H   H12       1.0  0.9843  0.08909999999999998  0.0346  1.0000
  N   N3        1.0  0.7564  0.6431  0.26369  1.0000
  C   C13       1.0  0.7433  0.5495999999999999  0.29787  1.0000
  H   H13       1.0  0.7787  0.5255  0.3358  1.0000
  C   C14       1.0  0.6802  0.488  0.27931  1.0000
  H   H14       1.0  0.6739999999999999  0.422  0.3038  1.0000
  C   C15       1.0  0.6258999999999999  0.5218  0.22509  1.0000
  C   C16       1.0  0.6399  0.6189  0.19016  1.0000
  H   H15       1.0  0.6043999999999998  0.6454  0.1527  1.0000
  C   C17       1.0  0.7051  0.6755  0.21032  1.0000
  H   H16       1.0  0.7144999999999999  0.7407  0.1855  1.0000
  C   C18       1.0  0.5558999999999997  0.4561  0.2048  1.0000
  H   H17       1.0  0.48590000000000005  0.495  0.204  1.0000
  H   H18       1.0  0.5508  0.39449999999999996  0.23860000000000003  1.0000
  Zn  Zn2       1.0  0.29404  0.1753  0.03335  1.0000
  N   N4        1.0  0.40112  0.2401  0.06589  1.0000
  C   C19       1.0  0.40269999999999995  0.23919999999999994  0.13173  1.0000
  H   H19       1.0  0.3586  0.19899999999999998  0.1625  1.0000
  C   C20       1.0  0.4652  0.29390000000000005  0.15661  1.0000
  H   H20       1.0  0.4655  0.289  0.20359999999999998  1.0000
  C   C21       1.0  0.5281999999999998  0.3566  0.11284999999999999  1.0000
  C   C22       1.0  0.5289  0.3538  0.0447  1.0000
  H   H21       1.0  0.573  0.39249999999999996  0.0128  1.0000
  C   C23       1.0  0.4667  0.2959  0.02335  1.0000
  H   H22       1.0  0.4694999999999999  0.2947  0.9764999999999999  1.0000
  C   C24       1.0  0.5946999999999998  0.4225999999999999  0.13605  1.0000
  H   H23       1.0  0.6001  0.4847  0.1027  1.0000
  H   H24       1.0  0.6649  0.3844  0.1372  1.0000
  N   N5        1.0  0.2117  0.1095  0.11876  1.0000
  C   C25       1.0  0.2474  0.0155  0.14729  1.0000
  H   H25       1.0  0.3122  0.9832  0.1286  1.0000
  C   C26       1.0  0.19459999999999994  0.9639  0.2024  1.0000
  H   H26       1.0  0.22379999999999997  0.8983  0.2217  1.0000
  C   C27       1.0  0.09970000000000001  0.007400000000000006  0.22944999999999996  1.0000
  C   C28       1.0  0.062099999999999995  0.10489999999999998  0.20083  1.0000
  H   H27       1.0  0.9974  0.13819999999999993  0.2188  1.0000
  C   C29       1.0  0.1196  0.1532  0.14592  1.0000
  H   H28       1.0  0.09290000000000001  0.2198  0.1267  1.0000
  C   C30       1.0  0.039099999999999996  0.9528  0.289  1.0000
  H   H29       1.0  0.056500000000000015  0.8777  0.289  1.0000
  H   H30       1.0  0.9645  0.9710999999999997  0.2857  1.0000
  N   N6        1.0  0.8628  0.85952  0.52516  1.0000
  C   C31       1.0  0.944  0.8002  0.49662999999999996  1.0000
  H   H31       1.0  0.9569  0.7302  0.5152  1.0000
  C   C32       1.0  0.009500000000000038  0.8363999999999999  0.44151  1.0000
  H   H32       1.0  0.066  0.7919  0.4228  1.0000
  C   C33       1.0  0.9917000000000002  0.9386999999999999  0.41383  1.0000
  C   C34       1.0  0.9067  0.999  0.44204  1.0000
  H   H33       1.0  0.8906  0.06850000000000002  0.4233  1.0000
  C   C35       1.0  0.8451  0.9581  0.4974100000000001  1.0000
  H   H34       1.0  0.788  0.001199999999999996  0.5167  1.0000
  C   C36       1.0  0.06260000000000002  0.9815  0.35438  1.0000
  H   H35       1.0  0.13510000000000005  0.9546999999999999  0.3606  1.0000
  H   H36       1.0  0.0546  0.05719999999999999  0.3518  1.0000
  N   N7        1.0  0.19448999999999997  0.29569  0.99581  1.0000
  C   C37       1.0  0.21369999999999997  0.3936  0.98905  1.0000
  H   H37       1.0  0.2706  0.4077  0.008  1.0000
  C   C38       1.0  0.15430000000000002  0.47430000000000005  0.9558299999999998  1.0000
  H   H38       1.0  0.17120000000000007  0.5421  0.9514999999999999  1.0000
  C   C39       1.0  0.06959999999999998  0.4555  0.92873  1.0000
  C   C40       1.0  0.047  0.35569999999999996  0.93854  1.0000
  H   H39       1.0  0.9878999999999999  0.3402000000000001  0.9226999999999999  1.0000
  C   C41       1.0  0.11079999999999997  0.2784  0.9715300000000001  1.0000
  H   H40       1.0  0.09460000000000002  0.2102  0.9772  1.0000
  C   C42       1.0  0.00739999999999996  0.5382  0.8869700000000001  1.0000
  H   H41       1.0  0.014600000000000012  0.6064  0.8981999999999999  1.0000
  H   H42       1.0  0.9334999999999999  0.5288999999999999  0.8964  1.0000
  Zn  Zn3       1.0  0.7675300000000003  0.8116799999999998  0.60981  1.0000
  N   N8        1.0  0.8612999999999998  0.72516  0.6734499999999999  1.0000
  C   C43       1.0  0.9641000000000002  0.7242  0.66653  1.0000
  H   H43       1.0  0.9958000000000001  0.7663  0.6296  1.0000
  C   C44       1.0  0.02570000000000003  0.6645  0.71097  1.0000
  H   H44       1.0  0.09799999999999996  0.6665  0.7046  1.0000
  C   C45       1.0  0.9813000000000001  0.6017000000000001  0.7649  1.0000
  C   C46       1.0  0.8750999999999999  0.6028999999999999  0.77129  1.0000
  H   H45       1.0  0.8415000000000001  0.5608  0.8072999999999999  1.0000
  C   C47       1.0  0.8181  0.6648  0.72552  1.0000
  H   H46       1.0  0.7455  0.6647  0.7311  1.0000
  C   C48       1.0  0.04599999999999998  0.5322  0.81274  1.0000
  H   H47       1.0  0.11730000000000002  0.5495999999999996  0.8032000000000001  1.0000
  H   H48       1.0  0.048499999999999995  0.46049999999999996  0.8041  1.0000
  N   N9        1.0  0.68345  0.712  0.58438  1.0000
  C   C49       1.0  0.7276  0.6431  0.54251  1.0000
  H   H49       1.0  0.7973  0.6455999999999998  0.5233  1.0000
  C   C50       1.0  0.6762  0.5696999999999998  0.52667  1.0000
  H   H50       1.0  0.7108000000000002  0.5221999999999998  0.4977  1.0000
  C   C51       1.0  0.5732  0.5647  0.55305  1.0000
  C   C52       1.0  0.5272  0.6379  0.59465  1.0000
  H   H51       1.0  0.4566  0.639  0.6126  1.0000
  C   C53       1.0  0.5833  0.7083  0.60983  1.0000
  H   H52       1.0  0.5506  0.7561  0.6392  1.0000
  C   C54       1.0  0.5145  0.48589999999999994  0.53599  1.0000
  H   H53       1.0  0.45089999999999997  0.4815  0.5682  1.0000
  H   H54       1.0  0.5570999999999999  0.4179  0.5399  1.0000
  Zn  Zn4       1.0  0.15692  0.26471  0.70476  1.0000
  N   N10       1.0  0.26526999999999995  0.18062000000000003  0.64686  1.0000
  C   C55       1.0  0.26709999999999995  0.0799  0.64516  1.0000
  H   H55       1.0  0.21229999999999996  0.04639999999999998  0.6702  1.0000
  C   C56       1.0  0.3462  0.022600000000000012  0.6083  1.0000
  H   H56       1.0  0.3453  0.9512  0.6085  1.0000
  C   C57       1.0  0.42589999999999995  0.07059999999999998  0.57129  1.0000
  C   C58       1.0  0.4227  0.1751  0.57186  1.0000
  H   H57       1.0  0.4757000000000002  0.21069999999999997  0.5463  1.0000
  C   C59       1.0  0.3417  0.22740000000000005  0.61001  1.0000
  H   H58       1.0  0.3404  0.299  0.61  1.0000
  C   C60       1.0  0.5137  0.008399999999999989  0.5325  1.0000
  H   H59       1.0  0.5314  0.9411999999999999  0.5595  1.0000
  H   H60       1.0  0.5753000000000001  0.04479999999999999  0.5244  1.0000
  N   N11       1.0  0.10859000000000003  0.17128999999999994  0.79035  1.0000
  C   C61       1.0  0.16419999999999998  0.08509999999999995  0.8160800000000001  1.0000
  H   H61       1.0  0.2316  0.06600000000000003  0.7943  1.0000
  C   C62       1.0  0.12769999999999998  0.022399999999999982  0.87311  1.0000
  H   H62       1.0  0.1693  0.9617  0.8894  1.0000
  C   C63       1.0  0.02990000000000002  0.049499999999999975  0.90589  1.0000
  C   C64       1.0  0.9723  0.139  0.87943  1.0000
  H   H63       1.0  0.905  0.16009999999999996  0.9006  1.0000
  C   C65       1.0  0.013200000000000019  0.1971  0.8224099999999999  1.0000
  H   H64       1.0  0.9726  0.2577  0.805  1.0000
  C   C66       1.0  0.9869  0.9835999999999999  0.96789  1.0000
  H   H65       1.0  0.911  0.9893  0.9696999999999999  1.0000
  H   H66       1.0  0.01570000000000001  0.9109  0.9654  1.0000
  N   N12       1.0  0.24359999999999998  0.35689999999999994  0.73631  1.0000
  C   C67       1.0  0.2567  0.4504  0.70213  1.0000
  H   H67       1.0  0.22129999999999994  0.47450000000000003  0.6642  1.0000
  C   C68       1.0  0.31980000000000003  0.5119999999999999  0.72069  1.0000
  H   H68       1.0  0.326  0.578  0.6962  1.0000
  C   C69       1.0  0.3741  0.47820000000000007  0.77491  1.0000
  C   C70       1.0  0.36010000000000003  0.38109999999999994  0.8098399999999999  1.0000
  H   H69       1.0  0.39560000000000006  0.3546  0.8472999999999999  1.0000
  C   C71       1.0  0.2949  0.3245  0.78968  1.0000
  H   H70       1.0  0.2855  0.2593  0.8145  1.0000
  C   C72       1.0  0.4441  0.5439  0.7952  1.0000
  H   H71       1.0  0.5141  0.505  0.796  1.0000
  H   H72       1.0  0.44920000000000004  0.6055  0.7614  1.0000
  Zn  Zn5       1.0  0.70596  0.8247  0.96664  1.0000
  N   N13       1.0  0.5988799999999997  0.7598999999999999  0.9341100000000001  1.0000
  C   C73       1.0  0.5972999999999999  0.7608  0.8682700000000001  1.0000
  H   H73       1.0  0.6414  0.801  0.8374999999999999  1.0000
  C   C74       1.0  0.5348000000000002  0.7061  0.84339  1.0000
  H   H74       1.0  0.5345  0.711  0.7964  1.0000
  C   C75       1.0  0.47180000000000016  0.6434  0.8871499999999999  1.0000
  C   C76       1.0  0.4711000000000001  0.6462  0.9552999999999999  1.0000
  H   H75       1.0  0.427  0.6075  0.9872  1.0000
  C   C77       1.0  0.5333000000000001  0.7041  0.9766499999999999  1.0000
  H   H76       1.0  0.5305000000000001  0.7053  0.0235  1.0000
  C   C78       1.0  0.40529999999999994  0.5774000000000001  0.86395  1.0000
  H   H77       1.0  0.3999  0.5153  0.8973  1.0000
  H   H78       1.0  0.3351000000000002  0.6156  0.8627999999999999  1.0000
  N   N14       1.0  0.7883  0.8904999999999998  0.88124  1.0000
  C   C79       1.0  0.7526  0.9845  0.85271  1.0000
  H   H79       1.0  0.6878  0.01680000000000001  0.8714  1.0000
  C   C80       1.0  0.8053999999999999  0.036099999999999986  0.7976  1.0000
  H   H80       1.0  0.7761999999999998  0.10169999999999998  0.7783  1.0000
  C   C81       1.0  0.9002999999999998  0.9925999999999999  0.77055  1.0000
  C   C82       1.0  0.9379  0.8950999999999998  0.79917  1.0000
  H   H81       1.0  0.0025999999999999934  0.8618  0.7812  1.0000
  C   C83       1.0  0.8804  0.8467999999999999  0.85408  1.0000
  H   H82       1.0  0.9071  0.7802  0.8733  1.0000
  C   C84       1.0  0.9609  0.047200000000000006  0.711  1.0000
  H   H83       1.0  0.9435  0.1223  0.711  1.0000
  H   H84       1.0  0.03549999999999996  0.028899999999999995  0.7143  1.0000
  N   N15       1.0  0.1372  0.14048  0.47484000000000004  1.0000
  C   C85       1.0  0.056  0.1998  0.50337  1.0000
  H   H85       1.0  0.04309999999999999  0.2698  0.4848  1.0000
  C   C86       1.0  0.9905  0.16360000000000002  0.55849  1.0000
  H   H86       1.0  0.934  0.20810000000000003  0.5772  1.0000
  C   C87       1.0  0.008299999999999983  0.061299999999999986  0.58617  1.0000
  C   C88       1.0  0.0933  0.0009999999999999994  0.55796  1.0000
  H   H87       1.0  0.10939999999999998  0.9315  0.5767  1.0000
  C   C89       1.0  0.1549  0.04190000000000001  0.50259  1.0000
  H   H88       1.0  0.21199999999999997  0.9988  0.4833  1.0000
  C   C90       1.0  0.9374  0.018500000000000006  0.64562  1.0000
  H   H89       1.0  0.8649  0.045300000000000014  0.6394  1.0000
  H   H90       1.0  0.9454000000000001  0.9427999999999997  0.6482  1.0000
  N   N16       1.0  0.80551  0.70431  0.00419  1.0000
  C   C91       1.0  0.7863000000000001  0.6064  0.01095  1.0000
  H   H91       1.0  0.7294  0.5923  0.9919999999999999  1.0000
  C   C92       1.0  0.8457  0.5257  0.04417  1.0000
  H   H92       1.0  0.8288000000000001  0.4579  0.0485  1.0000
  C   C93       1.0  0.9304  0.5445  0.07127  1.0000
  C   C94       1.0  0.953  0.6443  0.06146  1.0000
  H   H93       1.0  0.012099999999999982  0.6598  0.0773  1.0000
  C   C95       1.0  0.8892  0.7216  0.028469999999999995  1.0000
  H   H94       1.0  0.9054  0.7897999999999998  0.0228  1.0000
  C   C96       1.0  0.9926  0.4618  0.11303  1.0000
  H   H95       1.0  0.9853999999999999  0.3936  0.10179999999999999  1.0000
  H   H96       1.0  0.06650000000000002  0.47109999999999996  0.10360000000000001  1.0000
  Zn  Zn6       1.0  0.23246999999999998  0.18831999999999996  0.39019  1.0000
  N   N17       1.0  0.1387  0.27484  0.32655  1.0000
  C   C97       1.0  0.0359  0.2758  0.33347  1.0000
  H   H97       1.0  0.004199999999999996  0.2337  0.3704  1.0000
  C   C98       1.0  0.9743  0.3355  0.28903  1.0000
  H   H98       1.0  0.902  0.3335  0.2954  1.0000
  C   C99       1.0  0.018700000000000005  0.3983  0.2351  1.0000
  C   C100      1.0  0.1249  0.3971  0.22870999999999997  1.0000
  H   H99       1.0  0.15850000000000003  0.4392  0.1927  1.0000
  C   C101      1.0  0.1819  0.33519999999999994  0.27448  1.0000
  H   H100      1.0  0.2545  0.3353  0.2689  1.0000
  C   C102      1.0  0.954  0.4678  0.18726  1.0000
  H   H101      1.0  0.8827  0.4504  0.1968  1.0000
  H   H102      1.0  0.9515  0.5395000000000002  0.1959  1.0000
  N   N18       1.0  0.31655  0.28799999999999987  0.41562  1.0000
  C   C103      1.0  0.2724  0.35689999999999994  0.45749  1.0000
  H   H103      1.0  0.20270000000000016  0.35439999999999994  0.47669999999999996  1.0000
  C   C104      1.0  0.3238  0.4303  0.47333  1.0000
  H   H104      1.0  0.2892  0.4778  0.5023  1.0000
  C   C105      1.0  0.4268  0.4353  0.44695  1.0000
  C   C106      1.0  0.4728  0.3621  0.40535  1.0000
  H   H105      1.0  0.5434  0.361  0.3874  1.0000
  C   C107      1.0  0.4167  0.29170000000000007  0.39017  1.0000
  H   H106      1.0  0.44940000000000013  0.24389999999999995  0.3608  1.0000
  C   C108      1.0  0.48549999999999993  0.5141  0.4640099999999999  1.0000
  H   H107      1.0  0.5491000000000001  0.5185  0.43179999999999996  1.0000
  H   H108      1.0  0.44290000000000007  0.5820999999999998  0.46009999999999995  1.0000
