# generated using pymatgen
data_H17(C14N3)2
_symmetry_space_group_name_H-M   'P 1'
_cell_length_a   53.48320000
_cell_length_b   61.23670000
_cell_length_c   61.27860000
_cell_angle_alpha   89.98340000
_cell_angle_beta   89.97900000
_cell_angle_gamma   89.95800000
_symmetry_Int_Tables_number   1
_chemical_formula_structural   H17(C14N3)2
_chemical_formula_sum   'H272 C448 N96'
_cell_volume   200695.59179047
_cell_formula_units_Z   16
loop_
 _symmetry_equiv_pos_site_id
 _symmetry_equiv_pos_as_xyz
  1  'x, y, z'
loop_
 _atom_site_type_symbol
 _atom_site_label
 _atom_site_symmetry_multiplicity
 _atom_site_fract_x
 _atom_site_fract_y
 _atom_site_fract_z
 _atom_site_occupancy
  H  49  1  0.04736800  0.93561200  0.90653800  1
  H  50  1  0.02342400  0.96062100  0.92833900  1
  H  51  1  0.11090000  0.94823700  0.94534300  1
  H  52  1  0.08703200  0.97308800  0.96710400  1
  H  53  1  0.07031700  0.00564800  0.93003600  1
  H  54  1  0.06991400  0.04688200  0.93009800  1
  H  55  1  0.02322400  0.02584700  0.97848300  1
  H  56  1  0.99022400  0.02558000  0.00361000  1
  H  57  1  0.02422600  0.94240200  0.97616200  1
  H  58  1  0.99107300  0.94212900  0.00593000  1
  H  59  1  0.92768900  0.97209400  0.01628600  1
  H  60  1  0.90481600  0.94691100  0.03845200  1
  H  61  1  0.99256300  0.96007000  0.05358800  1
  H  62  1  0.96963100  0.93472100  0.07578200  1
  H  63  1  0.94474300  0.00466000  0.05291300  1
  H  64  1  0.94445700  0.04588600  0.05297300  1
  H  65  1  0.02244900  0.10931500  0.97611500  1
  H  66  1  0.98980000  0.10905400  0.00639400  1
  H  67  1  0.99005400  0.08637900  0.05739200  1
  H  68  1  0.96665000  0.11121400  0.07983600  1
  H  69  1  0.92939800  0.08257500  0.01353200  1
  H  70  1  0.90612300  0.10742700  0.03583500  1
  H  71  1  0.02429200  0.08551700  0.92413900  1
  H  72  1  0.04760500  0.11081000  0.90215600  1
  H  73  1  0.10570000  0.11030000  0.94874300  1
  H  74  1  0.08254000  0.08497300  0.97057300  1
  H  127  1  0.54710500  0.61567200  0.08023100  1
  H  128  1  0.52319500  0.59067700  0.05843900  1
  H  129  1  0.61078700  0.60268900  0.04167400  1
  H  130  1  0.58695100  0.57785600  0.01991900  1
  H  131  1  0.57005100  0.54538700  0.05685800  1
  H  132  1  0.56961500  0.50415700  0.05675300  1
  H  133  1  0.52306800  0.52530900  0.00833000  1
  H  134  1  0.49011100  0.52558500  0.98318300  1
  H  135  1  0.52413200  0.60874000  0.01065700  1
  H  136  1  0.49100700  0.60904700  0.98088500  1
  H  137  1  0.42761300  0.57926500  0.97065200  1
  H  138  1  0.40477200  0.60446700  0.94846400  1
  H  139  1  0.49246900  0.59099900  0.93321400  1
  H  140  1  0.46956900  0.61636600  0.91099800  1
  H  141  1  0.44457200  0.54661800  0.93398300  1
  H  142  1  0.44423300  0.50539600  0.93389500  1
  H  143  1  0.52226700  0.44182800  0.01064000  1
  H  144  1  0.48963100  0.44212200  0.98037000  1
  H  145  1  0.48989600  0.46475400  0.92943000  1
  H  146  1  0.46653000  0.43996800  0.90695500  1
  H  147  1  0.42911500  0.46871700  0.97318000  1
  H  148  1  0.40587400  0.44391700  0.95084200  1
  H  149  1  0.52402300  0.46555800  0.06261200  1
  H  150  1  0.54735000  0.44023600  0.08457400  1
  H  151  1  0.60550900  0.44079900  0.03801100  1
  H  152  1  0.58233700  0.46615400  0.01620100  1
  H  205  1  0.29481400  0.36304400  0.65315000  1
  H  206  1  0.27147100  0.34119900  0.67851700  1
  H  207  1  0.35865300  0.32416700  0.66467700  1
  H  208  1  0.33538400  0.30239400  0.68987400  1
  H  209  1  0.31918500  0.33937900  0.72282900  1
  H  210  1  0.31937500  0.33929800  0.76404100  1
  H  211  1  0.27244100  0.29090600  0.74352600  1
  H  212  1  0.23973900  0.26554600  0.74361400  1
  H  213  1  0.27237000  0.29312500  0.66012500  1
  H  214  1  0.23935200  0.26323600  0.66022200  1
  H  215  1  0.17656100  0.25364500  0.69034100  1
  H  216  1  0.15309600  0.23139700  0.66572700  1
  H  217  1  0.24057700  0.21501300  0.67883700  1
  H  218  1  0.21704200  0.19269400  0.65406100  1
  H  219  1  0.19354300  0.21656200  0.72320200  1
  H  220  1  0.19378800  0.21652200  0.76439600  1
  H  221  1  0.27276600  0.29329000  0.82694000  1
  H  222  1  0.24015400  0.26298800  0.82702800  1
  H  223  1  0.23995800  0.21193000  0.80452900  1
  H  224  1  0.21663100  0.18946600  0.82938200  1
  H  225  1  0.17933500  0.25593900  0.80096300  1
  H  226  1  0.15613800  0.23361000  0.82582700  1
  H  227  1  0.27418900  0.34537300  0.80287900  1
  H  228  1  0.29754200  0.36735500  0.82811200  1
  H  229  1  0.35560400  0.32065500  0.82764000  1
  H  230  1  0.33240200  0.29882300  0.80237000  1
  H  283  1  0.79494200  0.18806200  0.33348200  1
  H  284  1  0.77158200  0.20990800  0.30811700  1
  H  285  1  0.85868900  0.22700900  0.32202900  1
  H  286  1  0.83540500  0.24878000  0.29683200  1
  H  287  1  0.81926400  0.21175400  0.26382400  1
  H  288  1  0.81945300  0.21185800  0.22261000  1
  H  289  1  0.77250000  0.26028700  0.24317700  1
  H  290  1  0.73969900  0.28559000  0.24309000  1
  H  291  1  0.77237600  0.25799300  0.32657000  1
  H  292  1  0.73931900  0.28789000  0.32648600  1
  H  293  1  0.67661000  0.29741600  0.29646100  1
  H  294  1  0.65312000  0.31964100  0.32112500  1
  H  295  1  0.74051000  0.33616800  0.30778300  1
  H  296  1  0.71694700  0.35846600  0.33260500  1
  H  297  1  0.69349300  0.33461300  0.26355700  1
  H  298  1  0.69371000  0.33466300  0.22236200  1
  H  299  1  0.77279100  0.25789200  0.15975800  1
  H  300  1  0.74011700  0.28818400  0.15968400  1
  H  301  1  0.73982900  0.33924700  0.18219100  1
  H  302  1  0.71646300  0.36169700  0.15734000  1
  H  303  1  0.67930800  0.29521000  0.18578400  1
  H  304  1  0.65606800  0.31752100  0.16092200  1
  H  305  1  0.77428300  0.20584800  0.18380500  1
  H  306  1  0.79769100  0.18388000  0.15855500  1
  H  307  1  0.85568100  0.23057900  0.15905100  1
  H  308  1  0.83242900  0.25239600  0.18434000  1
  H  361  1  0.72209700  0.68914500  0.33343000  1
  H  362  1  0.74588400  0.71107600  0.30844000  1
  H  363  1  0.65850300  0.72813300  0.32133400  1
  H  364  1  0.68221300  0.75002300  0.29649900  1
  H  365  1  0.69858100  0.71283700  0.26391800  1
  H  366  1  0.69849500  0.71284600  0.22272400  1
  H  367  1  0.74546500  0.76122000  0.24324000  1
  H  368  1  0.77802100  0.78670600  0.24318200  1
  H  369  1  0.74535600  0.75905900  0.32663400  1
  H  370  1  0.77844900  0.78886800  0.32657800  1
  H  371  1  0.84149000  0.79923500  0.29614100  1
  H  372  1  0.86449100  0.82126800  0.32132400  1
  H  373  1  0.77663900  0.83646600  0.30866900  1
  H  374  1  0.79969500  0.85851800  0.33402300  1
  H  375  1  0.82432900  0.83559600  0.26360300  1
  H  376  1  0.82407700  0.83564300  0.22240000  1
  H  377  1  0.74496400  0.75898200  0.15983300  1
  H  378  1  0.77743000  0.78940700  0.15975900  1
  H  379  1  0.77832000  0.84139200  0.18392800  1
  H  380  1  0.80119500  0.86376900  0.15869100  1
  H  381  1  0.83726200  0.79554900  0.18400100  1
  H  382  1  0.85999100  0.81775900  0.15873400  1
  H  383  1  0.74320800  0.70642500  0.18422300  1
  H  384  1  0.71929200  0.68425000  0.15957700  1
  H  385  1  0.66188700  0.73157900  0.15969100  1
  H  386  1  0.68564400  0.75358100  0.18437400  1
  H  439  1  0.22217700  0.86213900  0.65324500  1
  H  440  1  0.24599200  0.84023600  0.67825300  1
  H  441  1  0.15864800  0.82315100  0.66539800  1
  H  442  1  0.18238500  0.80129200  0.69025100  1
  H  443  1  0.19870900  0.83850000  0.72282700  1
  H  444  1  0.19864400  0.83848300  0.76402200  1
  H  445  1  0.24565500  0.79009100  0.74345800  1
  H  446  1  0.27816100  0.76454300  0.74351800  1
  H  447  1  0.24549200  0.79222600  0.66007000  1
  H  448  1  0.27860700  0.76239500  0.66011900  1
  H  449  1  0.34162500  0.75214900  0.69043200  1
  H  450  1  0.36464400  0.73011100  0.66522300  1
  H  451  1  0.27688500  0.71477200  0.67815600  1
  H  452  1  0.29995800  0.69271400  0.65277800  1
  H  453  1  0.32461300  0.71570800  0.72304900  1
  H  454  1  0.32436800  0.71564100  0.76425300  1
  H  455  1  0.24512400  0.79229700  0.82686900  1
  H  456  1  0.27760300  0.76184200  0.82693400  1
  H  457  1  0.27853100  0.70987500  0.80272500  1
  H  458  1  0.30136800  0.68748600  0.82798500  1
  H  459  1  0.33744300  0.75567600  0.80270100  1
  H  460  1  0.36013400  0.73345200  0.82799100  1
  H  461  1  0.24334600  0.84486200  0.80245500  1
  H  462  1  0.21942100  0.86700100  0.82717500  1
  H  463  1  0.16212800  0.81963300  0.82713900  1
  H  464  1  0.18588900  0.79766800  0.80238000  1
  H  517  1  0.54489900  0.43512800  0.40617200  1
  H  518  1  0.52162000  0.46055300  0.42803200  1
  H  519  1  0.60856900  0.44601200  0.44534900  1
  H  520  1  0.58537100  0.47127200  0.46712900  1
  H  521  1  0.56967100  0.50435100  0.42994800  1
  H  522  1  0.57036500  0.54558100  0.43000000  1
  H  523  1  0.52300000  0.52551600  0.47828700  1
  H  524  1  0.49077200  0.52591600  0.50402700  1
  H  525  1  0.52211400  0.44206600  0.47625900  1
  H  526  1  0.48914700  0.44247500  0.50620000  1
  H  527  1  0.42674600  0.47299900  0.51578900  1
  H  528  1  0.40316600  0.44842100  0.53802000  1
  H  529  1  0.49068400  0.46123800  0.55437400  1
  H  530  1  0.46703900  0.43649700  0.57667200  1
  H  531  1  0.44376000  0.50594000  0.55261200  1
  H  532  1  0.44457200  0.54716100  0.55267900  1
  H  533  1  0.52470200  0.60897200  0.47612900  1
  H  534  1  0.49226900  0.60937600  0.50658700  1
  H  535  1  0.49112300  0.58538100  0.55840200  1
  H  536  1  0.46838700  0.61061100  0.58091100  1
  H  537  1  0.43190600  0.58540300  0.51291200  1
  H  538  1  0.40931400  0.61065700  0.53525700  1
  H  539  1  0.52621800  0.58429200  0.42345400  1
  H  540  1  0.55023500  0.60903000  0.40142900  1
  H  541  1  0.60725300  0.60899900  0.44903100  1
  H  542  1  0.58339900  0.58421700  0.47088300  1
  H  595  1  0.04485500  0.11607200  0.58051600  1
  H  596  1  0.02159900  0.09069500  0.55863700  1
  H  597  1  0.10864900  0.10491700  0.54151500  1
  H  598  1  0.08547000  0.07970800  0.51971400  1
  H  599  1  0.06958900  0.04668500  0.55679900  1
  H  600  1  0.07025900  0.00545600  0.55670200  1
  H  601  1  0.02307200  0.02563700  0.50834500  1
  H  602  1  0.99072000  0.02524200  0.48271500  1
  H  603  1  0.02211700  0.10907700  0.51048400  1
  H  604  1  0.98915100  0.10869800  0.48056300  1
  H  605  1  0.92678600  0.07825800  0.47099400  1
  H  606  1  0.90321400  0.10286400  0.44876400  1
  H  607  1  0.99073800  0.08992600  0.43237700  1
  H  608  1  0.96709900  0.11469200  0.41008200  1
  H  609  1  0.94383200  0.04533500  0.43410100  1
  H  610  1  0.94459500  0.00411100  0.43400600  1
  H  611  1  0.02468500  0.94216300  0.51050500  1
  H  612  1  0.99223600  0.94179200  0.48007700  1
  H  613  1  0.99106200  0.96577400  0.42825400  1
  H  614  1  0.96831300  0.94060300  0.40573400  1
  H  615  1  0.93182600  0.96584400  0.47375200  1
  H  616  1  0.90921900  0.94065200  0.45139700  1
  H  617  1  0.02612900  0.96673800  0.56312100  1
  H  618  1  0.05018000  0.94200900  0.58514600  1
  H  619  1  0.10732900  0.94219800  0.53762500  1
  H  620  1  0.08344300  0.96697000  0.51577300  1
  H  631  1  0.16482900  0.91646700  0.89321200  1
  H  632  1  0.10512900  0.86751300  0.86120800  1
  H  634  1  0.12958200  0.93346400  0.91340000  1
  H  636  1  0.14053300  0.84985200  0.84181300  1
  H  643  1  0.66461300  0.63460100  0.09369400  1
  H  644  1  0.60495700  0.68374700  0.12559700  1
  H  646  1  0.62938300  0.61763900  0.07352800  1
  H  648  1  0.64036300  0.70140600  0.14492700  1
  H  655  1  0.41183400  0.37291300  0.62796700  1
  H  656  1  0.34980000  0.41218500  0.58713200  1
  H  658  1  0.37711100  0.35414400  0.64711700  1
  H  660  1  0.38457900  0.43088900  0.56791100  1
  H  667  1  0.91191000  0.17845600  0.35896600  1
  H  668  1  0.84985100  0.13881700  0.39938500  1
  H  670  1  0.87719400  0.19713600  0.33970300  1
  H  672  1  0.88463200  0.12018300  0.41870800  1
  H  679  1  0.35287000  0.63788100  0.89575100  1
  H  680  1  0.41486900  0.68463300  0.86373200  1
  H  682  1  0.38714400  0.62020500  0.91663300  1
  H  684  1  0.38043000  0.70310400  0.84377000  1
  H  691  1  0.85287800  0.91348200  0.09110300  1
  H  692  1  0.91476900  0.86647700  0.12298100  1
  H  694  1  0.88718400  0.93110200  0.07023600  1
  H  696  1  0.88029400  0.84806200  0.14292700  1
  H  703  1  0.09980500  0.18202500  0.62987500  1
  H  704  1  0.16182100  0.14151000  0.59023700  1
  H  706  1  0.13458300  0.20124700  0.64853900  1
  H  708  1  0.12710000  0.12230200  0.57157200  1
  H  715  1  0.59975900  0.36910100  0.35692500  1
  H  716  1  0.66181400  0.40951100  0.39651700  1
  H  718  1  0.63454000  0.34985700  0.33820700  1
  H  720  1  0.62709100  0.42877800  0.41519900  1
  H  727  1  0.85086800  0.13806900  0.08808100  1
  H  728  1  0.91211000  0.18060400  0.12640500  1
  H  730  1  0.88596500  0.12079800  0.06784200  1
  H  732  1  0.87691000  0.19945000  0.14503200  1
  H  739  1  0.35071600  0.41326200  0.89860000  1
  H  740  1  0.41195400  0.37058600  0.86031500  1
  H  742  1  0.38579400  0.43046300  0.91886000  1
  H  744  1  0.37677100  0.35175400  0.84172600  1
  H  751  1  0.60472700  0.67548700  0.35244000  1
  H  752  1  0.66434600  0.64348500  0.40152000  1
  H  754  1  0.63993300  0.69589000  0.33568100  1
  H  756  1  0.62894000  0.62397000  0.41902700  1
  H  763  1  0.10478800  0.87570000  0.63419900  1
  H  764  1  0.16441800  0.90774400  0.58516800  1
  H  766  1  0.14002200  0.85535700  0.65101300  1
  H  768  1  0.12899400  0.92724500  0.56764300  1
  H  775  1  0.66189300  0.40842000  0.08808900  1
  H  776  1  0.60070300  0.36971700  0.13039800  1
  H  778  1  0.62667200  0.42702600  0.06928200  1
  H  780  1  0.63584900  0.34959800  0.14772400  1
  H  787  1  0.16207900  0.14271400  0.89867900  1
  H  788  1  0.10086700  0.18136100  0.85631700  1
  H  790  1  0.12687400  0.12411300  0.91749300  1
  H  792  1  0.13598500  0.20150300  0.83901000  1
  H  799  1  0.91653000  0.87338700  0.35545300  1
  H  800  1  0.85459600  0.90532700  0.40235000  1
  H  802  1  0.88220500  0.85271700  0.33765200  1
  H  804  1  0.88906300  0.92506000  0.42094600  1
  H  811  1  0.41674300  0.67795000  0.63107600  1
  H  812  1  0.35468900  0.64593100  0.58443300  1
  H  814  1  0.38242500  0.69862400  0.64896700  1
  H  816  1  0.38913400  0.62614500  0.56578400  1
  C  1  1  0.06010000  0.01490600  0.94067000  1
  C  2  1  0.05985200  0.03743000  0.94067100  1
  C  3  1  0.04352200  0.04448300  0.95703100  1
  C  5  1  0.04403900  0.00755300  0.95711000  1
  C  6  1  0.03928400  0.98516600  0.96197100  1
  C  7  1  0.02191200  0.97780000  0.97792000  1
  C  9  1  0.99282900  0.97755800  0.00437700  1
  C  10  1  0.99851800  0.95591800  0.99915800  1
  C  11  1  0.01656000  0.95606700  0.98301200  1
  C  12  1  0.97542300  0.98463900  0.02043500  1
  C  13  1  0.97033900  0.00695800  0.02537900  1
  C  15  1  0.97020500  0.04389300  0.02553700  1
  C  16  1  0.95433800  0.03659200  0.04212900  1
  C  17  1  0.95450800  0.01406800  0.04209400  1
  C  18  1  0.97508100  0.06626500  0.02075900  1
  C  19  1  0.99216700  0.07366700  0.00461900  1
  C  21  1  0.02093000  0.07389800  0.97795500  1
  C  22  1  0.01516400  0.09554800  0.98306900  1
  C  23  1  0.99743000  0.09540500  0.99947900  1
  C  24  1  0.03819800  0.06677400  0.96183100  1
  C  25  1  0.05112900  0.08306600  0.94952100  1
  C  26  1  0.07489000  0.09050100  0.95629200  1
  C  27  1  0.08859900  0.10523900  0.94331600  1
  C  28  1  0.07903600  0.11280400  0.92312700  1
  C  29  1  0.05505800  0.10564600  0.91665300  1
  C  30  1  0.04132000  0.09085300  0.92956700  1
  C  31  1  0.96200600  0.08234800  0.03324400  1
  C  32  1  0.97248400  0.09094300  0.05258600  1
  C  33  1  0.95868700  0.10544800  0.06578700  1
  C  34  1  0.93401800  0.11151500  0.06021200  1
  C  35  1  0.92376400  0.10316100  0.04061100  1
  C  36  1  0.93752400  0.08870700  0.02735100  1
  C  37  1  0.96235800  0.96833400  0.03270500  1
  C  38  1  0.93679100  0.96413500  0.02864600  1
  C  39  1  0.92328400  0.94946200  0.04185200  1
  C  40  1  0.93493200  0.93854300  0.05951500  1
  C  41  1  0.96063400  0.94236800  0.06316900  1
  C  42  1  0.97414600  0.95718900  0.05009800  1
  C  43  1  0.05291400  0.96907400  0.94989400  1
  C  44  1  0.04177800  0.95790400  0.93221200  1
  C  45  1  0.07841200  0.96511600  0.95450400  1
  C  46  1  0.09250400  0.95064400  0.94154000  1
  C  47  1  0.08152600  0.93971500  0.92357700  1
  C  48  1  0.05587600  0.94327800  0.91938300  1
  C  79  1  0.55986600  0.53616100  0.04619200  1
  C  80  1  0.55961400  0.51363700  0.04615600  1
  C  81  1  0.54330000  0.50662700  0.02978300  1
  C  83  1  0.54385400  0.54355800  0.02974100  1
  C  84  1  0.53912100  0.56596300  0.02491100  1
  C  85  1  0.52175900  0.57334700  0.00896000  1
  C  87  1  0.49269900  0.57361400  0.98249500  1
  C  88  1  0.49840900  0.59524900  0.98769300  1
  C  89  1  0.51642800  0.59508400  0.00384800  1
  C  90  1  0.47530700  0.56655500  0.96643700  1
  C  91  1  0.47016100  0.54425000  0.96150300  1
  C  93  1  0.46998700  0.50731300  0.96131300  1
  C  94  1  0.45412800  0.51466000  0.94473900  1
  C  95  1  0.45429500  0.53718400  0.94481300  1
  C  96  1  0.47486600  0.48492500  0.96604200  1
  C  97  1  0.49195700  0.47750500  0.98217300  1
  C  99  1  0.52070600  0.47724700  0.00883500  1
  C  100  1  0.51496400  0.45560400  0.00370400  1
  C  101  1  0.49724100  0.45576400  0.98729500  1
  C  102  1  0.53796800  0.48434900  0.02495600  1
  C  103  1  0.55089700  0.46803500  0.03724800  1
  C  104  1  0.57467500  0.46060500  0.03047000  1
  C  105  1  0.58839300  0.44585800  0.04343700  1
  C  106  1  0.57881400  0.43827600  0.06361600  1
  C  107  1  0.55482000  0.44542900  0.07009400  1
  C  108  1  0.54106600  0.46022200  0.05718200  1
  C  109  1  0.46179400  0.46886300  0.95353900  1
  C  110  1  0.47231100  0.46022700  0.93421600  1
  C  111  1  0.45853500  0.44574800  0.92099400  1
  C  112  1  0.43383000  0.43974200  0.92651400  1
  C  113  1  0.42353700  0.44813500  0.94609700  1
  C  114  1  0.43728000  0.46256100  0.95937800  1
  C  115  1  0.46226900  0.58288600  0.95416900  1
  C  116  1  0.43671900  0.58717100  0.95826300  1
  C  117  1  0.42323100  0.60185500  0.94504400  1
  C  118  1  0.43488500  0.61268900  0.92733500  1
  C  119  1  0.46057500  0.60878700  0.92365200  1
  C  120  1  0.47406700  0.59395500  0.93673500  1
  C  121  1  0.55275600  0.58203600  0.03700100  1
  C  122  1  0.54157600  0.59331400  0.05461200  1
  C  123  1  0.57829300  0.58589300  0.03247100  1
  C  124  1  0.59236800  0.60036000  0.04543100  1
  C  125  1  0.58134400  0.61139100  0.06332900  1
  C  126  1  0.55566300  0.60791800  0.06745200  1
  C  157  1  0.30912700  0.32872600  0.73219100  1
  C  158  1  0.30923400  0.32869100  0.75470500  1
  C  159  1  0.29299700  0.31234500  0.76193200  1
  C  161  1  0.29297500  0.31228500  0.72501400  1
  C  162  1  0.28787800  0.30745200  0.70269300  1
  C  163  1  0.27047600  0.29144300  0.69552200  1
  C  165  1  0.24149700  0.26490400  0.69560100  1
  C  166  1  0.24692300  0.27007600  0.67391300  1
  C  167  1  0.26487600  0.28629600  0.67386300  1
  C  168  1  0.22420700  0.24884600  0.70287200  1
  C  169  1  0.21936600  0.24395000  0.72522500  1
  C  171  1  0.21970500  0.24381500  0.76213200  1
  C  172  1  0.20364500  0.22729500  0.75500400  1
  C  173  1  0.20349200  0.22733900  0.73249700  1
  C  174  1  0.22488800  0.24859200  0.78443500  1
  C  175  1  0.24208600  0.26472300  0.79164400  1
  C  177  1  0.27081400  0.29141700  0.79156700  1
  C  178  1  0.26532100  0.28631600  0.81325900  1
  C  179  1  0.24761400  0.26988800  0.81330700  1
  C  180  1  0.28796600  0.30755700  0.78426700  1
  C  181  1  0.30101500  0.31994300  0.80042500  1
  C  182  1  0.32478100  0.31314200  0.80785500  1
  C  183  1  0.33851200  0.32611800  0.82256700  1
  C  184  1  0.32896900  0.34633600  0.83012300  1
  C  185  1  0.30500300  0.35285200  0.82294000  1
  C  186  1  0.29123400  0.33993000  0.80818900  1
  C  187  1  0.21193600  0.23617200  0.80063600  1
  C  188  1  0.22242500  0.21677900  0.80916700  1
  C  189  1  0.20867900  0.20357100  0.82369400  1
  C  190  1  0.18402500  0.20916300  0.82980800  1
  C  191  1  0.17376900  0.22882200  0.82153000  1
  C  192  1  0.18749100  0.24210300  0.80708000  1
  C  193  1  0.21087400  0.23660400  0.68673500  1
  C  194  1  0.18537200  0.24100300  0.68256700  1
  C  195  1  0.17151800  0.22775600  0.66819800  1
  C  196  1  0.18272500  0.20967600  0.65758900  1
  C  197  1  0.20836500  0.20564900  0.66142400  1
  C  198  1  0.22223600  0.21879000  0.67591400  1
  C  199  1  0.30116200  0.31961100  0.68645000  1
  C  200  1  0.28976600  0.33732600  0.67549200  1
  C  201  1  0.32657000  0.31500700  0.68205700  1
  C  202  1  0.34031100  0.32798100  0.66734800  1
  C  203  1  0.32907400  0.34595600  0.65658200  1
  C  204  1  0.30352600  0.35019000  0.66066000  1
  C  235  1  0.80923600  0.22244600  0.25447300  1
  C  236  1  0.80931700  0.22247500  0.23196100  1
  C  237  1  0.79306100  0.23883600  0.22475500  1
  C  239  1  0.79304800  0.23887600  0.26166500  1
  C  240  1  0.78793400  0.24369100  0.28398900  1
  C  241  1  0.77050600  0.25969300  0.29117500  1
  C  243  1  0.74149900  0.28623300  0.29110600  1
  C  244  1  0.74691000  0.28105100  0.31279200  1
  C  245  1  0.76488400  0.26482900  0.31283500  1
  C  246  1  0.72419800  0.30229700  0.28383700  1
  C  247  1  0.71934600  0.30721500  0.26149400  1
  C  249  1  0.71965700  0.30735600  0.22459400  1
  C  250  1  0.70358400  0.32388200  0.23174000  1
  C  251  1  0.70343500  0.32382500  0.25424600  1
  C  252  1  0.72483000  0.30257800  0.20228800  1
  C  253  1  0.74205400  0.28645100  0.19506600  1
  C  255  1  0.77083400  0.25977200  0.19513500  1
  C  256  1  0.76533500  0.26486700  0.17344200  1
  C  257  1  0.74759300  0.28128900  0.17339900  1
  C  258  1  0.78800900  0.24363700  0.20243100  1
  C  259  1  0.80107900  0.23126800  0.18626600  1
  C  260  1  0.82483600  0.23808100  0.17884300  1
  C  261  1  0.83859300  0.22511800  0.16412200  1
  C  262  1  0.82908000  0.20490500  0.15656600  1
  C  263  1  0.80511500  0.19838300  0.16373000  1
  C  264  1  0.79131700  0.21129500  0.17848800  1
  C  265  1  0.71185800  0.31499700  0.18610000  1
  C  266  1  0.72230800  0.33439500  0.17756400  1
  C  267  1  0.70853200  0.34759900  0.16305100  1
  C  268  1  0.68390200  0.34198100  0.15693300  1
  C  269  1  0.67368500  0.32232000  0.16521800  1
  C  270  1  0.68742400  0.30905700  0.17967800  1
  C  271  1  0.71085800  0.31453200  0.29998000  1
  C  272  1  0.68538800  0.31007600  0.30421200  1
  C  273  1  0.67152000  0.32331400  0.31859800  1
  C  274  1  0.68269400  0.34141600  0.32916300  1
  C  275  1  0.70830700  0.34548800  0.32527200  1
  C  276  1  0.72219600  0.33235700  0.31076800  1
  C  277  1  0.80122600  0.23152900  0.30022200  1
  C  278  1  0.78986000  0.21379300  0.31115600  1
  C  279  1  0.82661800  0.23614200  0.30462400  1
  C  280  1  0.84036400  0.22318100  0.31934500  1
  C  281  1  0.82915500  0.20519300  0.33009300  1
  C  282  1  0.80362700  0.20093700  0.32599400  1
  C  313  1  0.70870700  0.72344600  0.25456400  1
  C  314  1  0.70869400  0.72341400  0.23205500  1
  C  315  1  0.72494400  0.73975700  0.22483200  1
  C  317  1  0.72484700  0.73989500  0.26174100  1
  C  318  1  0.72982800  0.74480500  0.28406200  1
  C  319  1  0.74725600  0.76078400  0.29124500  1
  C  321  1  0.77628800  0.78728900  0.29119000  1
  C  322  1  0.77085200  0.78208200  0.31287100  1
  C  323  1  0.75284500  0.76591000  0.31290400  1
  C  324  1  0.79360000  0.80335000  0.28394200  1
  C  325  1  0.79843900  0.80825900  0.26158500  1
  C  327  1  0.79805200  0.80843700  0.22466500  1
  C  328  1  0.81418600  0.82489800  0.23179600  1
  C  329  1  0.81432200  0.82486200  0.25430800  1
  C  330  1  0.79281100  0.80370100  0.20236000  1
  C  331  1  0.77569100  0.78750800  0.19514300  1
  C  333  1  0.74705800  0.76073400  0.19520300  1
  C  334  1  0.75245400  0.76591600  0.17351300  1
  C  335  1  0.77008400  0.78241000  0.17347500  1
  C  336  1  0.72996300  0.74455100  0.20249800  1
  C  337  1  0.71680900  0.73221900  0.18636800  1
  C  338  1  0.69306100  0.73913600  0.17900200  1
  C  339  1  0.67899700  0.72605200  0.16463300  1
  C  340  1  0.68816600  0.70559300  0.15737500  1
  C  341  1  0.71212700  0.69896200  0.16447400  1
  C  342  1  0.72623100  0.71199500  0.17888300  1
  C  343  1  0.80554400  0.81626500  0.18613700  1
  C  344  1  0.79540800  0.83616500  0.17850000  1
  C  345  1  0.80890200  0.84932100  0.16374800  1
  C  346  1  0.83291700  0.84311600  0.15640600  1
  C  347  1  0.84282300  0.82298500  0.16385300  1
  C  348  1  0.82937500  0.80978500  0.17857900  1
  C  349  1  0.80682600  0.81564300  0.30012600  1
  C  350  1  0.83242900  0.81157300  0.30417900  1
  C  351  1  0.84600900  0.82469600  0.31886400  1
  C  352  1  0.83440100  0.84228400  0.32995500  1
  C  353  1  0.80867400  0.84596600  0.32624700  1
  C  354  1  0.79509200  0.83298200  0.31141400  1
  C  355  1  0.71636000  0.73275400  0.30026900  1
  C  356  1  0.72756200  0.71498200  0.31129200  1
  C  357  1  0.69089300  0.73737800  0.30438300  1
  C  358  1  0.67688800  0.72433500  0.31883800  1
  C  359  1  0.68792000  0.70626500  0.32959300  1
  C  360  1  0.71355200  0.70207300  0.32590200  1
  C  391  1  0.20884300  0.82788100  0.73217100  1
  C  392  1  0.20882800  0.82789700  0.75467800  1
  C  393  1  0.22511000  0.81155300  0.76188100  1
  C  395  1  0.22499600  0.81142300  0.72497900  1
  C  396  1  0.22998700  0.80652200  0.70265300  1
  C  397  1  0.24743100  0.79053900  0.69546100  1
  C  399  1  0.27647800  0.76402200  0.69550800  1
  C  400  1  0.27103100  0.76921500  0.67382700  1
  C  401  1  0.25301800  0.78540300  0.67379900  1
  C  402  1  0.29379900  0.74795300  0.70275700  1
  C  403  1  0.29868100  0.74304600  0.72510200  1
  C  405  1  0.29829000  0.74284300  0.76201600  1
  C  406  1  0.31445100  0.72638500  0.75486900  1
  C  407  1  0.31461300  0.72645500  0.73235700  1
  C  408  1  0.29302300  0.74755900  0.78432200  1
  C  409  1  0.27589100  0.76375900  0.79155000  1
  C  411  1  0.24725200  0.79055400  0.79149600  1
  C  412  1  0.25263100  0.78536300  0.81318700  1
  C  413  1  0.27026500  0.76885200  0.81322000  1
  C  414  1  0.23014900  0.80674500  0.78420300  1
  C  415  1  0.21698400  0.81906800  0.80034000  1
  C  416  1  0.19327800  0.81211500  0.80775000  1
  C  417  1  0.17920800  0.82517900  0.82215100  1
  C  418  1  0.18834900  0.84563600  0.82940200  1
  C  419  1  0.21227400  0.85230000  0.82226000  1
  C  420  1  0.22639100  0.83928200  0.80782600  1
  C  421  1  0.30574700  0.73497900  0.80053600  1
  C  422  1  0.29560000  0.71509100  0.80817300  1
  C  423  1  0.30906900  0.70192900  0.82293900  1
  C  424  1  0.33307100  0.70811700  0.83029400  1
  C  425  1  0.34298100  0.72823700  0.82285500  1
  C  426  1  0.32955800  0.74144400  0.80811300  1
  C  427  1  0.30702200  0.73566100  0.68656600  1
  C  428  1  0.33259500  0.73978000  0.68243900  1
  C  429  1  0.34618200  0.72665600  0.66774200  1
  C  430  1  0.33460600  0.70902700  0.65672600  1
  C  431  1  0.30890300  0.70530300  0.66049900  1
  C  432  1  0.29531400  0.71828800  0.67534400  1
  C  433  1  0.21649800  0.81856900  0.68645700  1
  C  434  1  0.22767700  0.83632600  0.67540900  1
  C  435  1  0.19104200  0.81393500  0.68235800  1
  C  436  1  0.17702200  0.82695900  0.66789100  1
  C  437  1  0.18802700  0.84502100  0.65712000  1
  C  438  1  0.21364500  0.84923000  0.66080700  1
  C  469  1  0.55966600  0.51381800  0.44055200  1
  C  470  1  0.56003400  0.53634000  0.44056200  1
  C  471  1  0.54384200  0.54373000  0.45688000  1
  C  473  1  0.54339200  0.50679800  0.45697600  1
  C  474  1  0.53806300  0.48451600  0.46186200  1
  C  475  1  0.52060000  0.47750100  0.47789100  1
  C  477  1  0.49166900  0.47786000  0.50447200  1
  C  478  1  0.49685600  0.45610500  0.49932900  1
  C  479  1  0.51477900  0.45588200  0.48308100  1
  C  480  1  0.47447700  0.48530400  0.52053600  1
  C  481  1  0.46987500  0.50771600  0.52541300  1
  C  483  1  0.47075200  0.54464200  0.52559700  1
  C  484  1  0.45442400  0.53766700  0.54198800  1
  C  485  1  0.45395400  0.51514600  0.54192300  1
  C  486  1  0.47632200  0.56690300  0.52088300  1
  C  487  1  0.49355700  0.57395400  0.50470500  1
  C  489  1  0.52215100  0.57359900  0.47789700  1
  C  490  1  0.51704900  0.59535900  0.48308200  1
  C  491  1  0.49944300  0.59557600  0.49959900  1
  C  492  1  0.53912500  0.56612200  0.46169200  1
  C  493  1  0.55244300  0.58214700  0.44934200  1
  C  494  1  0.57610700  0.58955800  0.45639000  1
  C  495  1  0.59022300  0.60398700  0.44340000  1
  C  496  1  0.58118300  0.61126400  0.42291900  1
  C  497  1  0.55732000  0.60408900  0.41614300  1
  C  498  1  0.54315300  0.58963600  0.42909000  1
  C  499  1  0.46376100  0.58324700  0.53342600  1
  C  500  1  0.47402400  0.59085400  0.55326200  1
  C  501  1  0.46061800  0.60561000  0.56649100  1
  C  502  1  0.43654900  0.61294300  0.56044100  1
  C  503  1  0.42652900  0.60554500  0.54036400  1
  C  504  1  0.43990100  0.59084000  0.52707800  1
  C  505  1  0.46102000  0.46927200  0.53282300  1
  C  506  1  0.43550900  0.46518900  0.52842700  1
  C  507  1  0.42159300  0.45083500  0.54166000  1
  C  508  1  0.43275100  0.44015200  0.55970800  1
  C  509  1  0.45839500  0.44391700  0.56374000  1
  C  510  1  0.47232800  0.45839000  0.55061700  1
  C  511  1  0.55123400  0.46815000  0.44977200  1
  C  512  1  0.53985400  0.45736000  0.43197500  1
  C  513  1  0.57656900  0.46355700  0.45446700  1
  C  514  1  0.59027200  0.44882200  0.44148400  1
  C  515  1  0.57906500  0.43824300  0.42341300  1
  C  516  1  0.55357600  0.44250200  0.41910100  1
  C  547  1  0.05964300  0.03724900  0.54614400  1
  C  548  1  0.05997800  0.01472400  0.54612200  1
  C  549  1  0.04382200  0.00737700  0.52977800  1
  C  551  1  0.04340100  0.04431300  0.52971700  1
  C  552  1  0.03809200  0.06661400  0.52486600  1
  C  553  1  0.02062100  0.07364600  0.50885000  1
  C  555  1  0.99169200  0.07331100  0.48228000  1
  C  556  1  0.99686600  0.09506000  0.48743100  1
  C  557  1  0.01478800  0.09526800  0.50366700  1
  C  558  1  0.97450900  0.06588700  0.46621800  1
  C  559  1  0.96990200  0.04348800  0.46131400  1
  C  561  1  0.97073200  0.00655700  0.46110500  1
  C  562  1  0.95443500  0.01357800  0.44471200  1
  C  563  1  0.95398100  0.03610000  0.44480100  1
  C  564  1  0.97626800  0.98427800  0.46579800  1
  C  565  1  0.99351100  0.97721100  0.48196300  1
  C  567  1  0.02212100  0.97754100  0.50874500  1
  C  568  1  0.01702400  0.95578600  0.50356000  1
  C  569  1  0.99940800  0.95558300  0.48706100  1
  C  570  1  0.03909500  0.98499600  0.52494100  1
  C  571  1  0.05241500  0.96894900  0.53726900  1
  C  572  1  0.07612600  0.96159100  0.53024600  1
  C  573  1  0.09026000  0.94716700  0.54323400  1
  C  574  1  0.08119200  0.93985400  0.56369300  1
  C  575  1  0.05727800  0.94697000  0.57044200  1
  C  576  1  0.04309000  0.96141300  0.55749200  1
  C  577  1  0.96370200  0.96795400  0.45324300  1
  C  578  1  0.97395400  0.96033600  0.43339500  1
  C  579  1  0.96053100  0.94562300  0.42015100  1
  C  580  1  0.93645600  0.93831400  0.42620200  1
  C  581  1  0.92644200  0.94572900  0.44628700  1
  C  582  1  0.93981800  0.96041400  0.45957500  1
  C  583  1  0.96106400  0.08194200  0.45394100  1
  C  584  1  0.93555300  0.08606100  0.45835500  1
  C  585  1  0.92163800  0.10041800  0.44511700  1
  C  586  1  0.93280800  0.11107700  0.42706100  1
  C  587  1  0.95845500  0.10729000  0.42302400  1
  C  588  1  0.97238700  0.09281300  0.43615100  1
  C  589  1  0.05126500  0.08296000  0.53697000  1
  C  590  1  0.03985600  0.09381900  0.55473100  1
  C  591  1  0.07663900  0.08745800  0.53235400  1
  C  592  1  0.09032800  0.10217900  0.54533900  1
  C  593  1  0.07908500  0.11283500  0.56336500  1
  C  594  1  0.05356500  0.10865900  0.56761300  1
  C  625  1  0.15184000  0.90620600  0.88654800  1
  C  627  1  0.14379600  0.87605300  0.86259900  1
  C  628  1  0.11811200  0.87779900  0.86784300  1
  C  630  1  0.12615600  0.90795200  0.89179000  1
  C  633  1  0.11731000  0.92357300  0.90629000  1
  C  635  1  0.15267400  0.86029700  0.84826200  1
  C  637  1  0.65163200  0.64490200  0.10033700  1
  C  639  1  0.64361800  0.67513200  0.12422200  1
  C  640  1  0.61793300  0.67342000  0.11898400  1
  C  642  1  0.62594700  0.64319000  0.09509900  1
  C  645  1  0.61709900  0.62754600  0.08062800  1
  C  647  1  0.65250500  0.69091600  0.13852200  1
  C  649  1  0.39835200  0.38111200  0.61943500  1
  C  651  1  0.38902000  0.40773100  0.59189600  1
  C  652  1  0.36327900  0.40397600  0.59566100  1
  C  654  1  0.37261100  0.37736900  0.62321100  1
  C  657  1  0.36438200  0.36239600  0.63865100  1
  C  659  1  0.39727800  0.42271300  0.57647900  1
  C  661  1  0.89842100  0.17017800  0.36741000  1
  C  663  1  0.88907300  0.14343700  0.39481600  1
  C  664  1  0.86333400  0.14710300  0.39094500  1
  C  666  1  0.87268400  0.17383400  0.36352700  1
  C  669  1  0.86446500  0.18881700  0.34809300  1
  C  671  1  0.89732800  0.12844300  0.41022300  1
  C  673  1  0.36634000  0.64767100  0.88909500  1
  C  675  1  0.37588900  0.67720100  0.86476700  1
  C  676  1  0.40140300  0.67482500  0.87036800  1
  C  678  1  0.39185600  0.64528800  0.89468600  1
  C  681  1  0.39988900  0.62963000  0.90951300  1
  C  683  1  0.36783900  0.69296900  0.85006500  1
  C  685  1  0.86632500  0.90363700  0.09772900  1
  C  687  1  0.87580300  0.87401800  0.12198100  1
  C  688  1  0.90132500  0.87633800  0.11637400  1
  C  690  1  0.89184900  0.90596600  0.09213200  1
  C  693  1  0.89991500  0.92164200  0.07733800  1
  C  695  1  0.86771600  0.85823100  0.13664700  1
  C  697  1  0.11328100  0.17356300  0.62159000  1
  C  699  1  0.12259900  0.14614100  0.59485200  1
  C  700  1  0.14834100  0.14997300  0.59851700  1
  C  702  1  0.13902400  0.17738600  0.62526000  1
  C  705  1  0.14728700  0.19278100  0.64025600  1
  C  707  1  0.11436700  0.13073600  0.57985400  1
  C  709  1  0.61324000  0.37753900  0.36520100  1
  C  711  1  0.62259100  0.40492900  0.39193800  1
  C  712  1  0.64833000  0.40106800  0.38825000  1
  C  714  1  0.63898100  0.37368800  0.36150600  1
  C  717  1  0.64723400  0.35830400  0.34649500  1
  C  719  1  0.61436600  0.42033400  0.40693900  1
  C  721  1  0.86418100  0.14695000  0.09609800  1
  C  723  1  0.87301700  0.17464300  0.12266100  1
  C  724  1  0.89879900  0.17167900  0.11843300  1
  C  726  1  0.88996300  0.14398200  0.09187600  1
  C  729  1  0.89848900  0.12900400  0.07657600  1
  C  731  1  0.86447800  0.18987700  0.13770300  1
  C  733  1  0.36403100  0.40435200  0.89058900  1
  C  735  1  0.37286100  0.37661000  0.86405000  1
  C  736  1  0.39864300  0.37954100  0.86827700  1
  C  738  1  0.38981300  0.40728500  0.89481400  1
  C  741  1  0.39833300  0.42226500  0.91011400  1
  C  743  1  0.36432600  0.36135900  0.84902700  1
  C  745  1  0.61770100  0.66882500  0.36272900  1
  C  747  1  0.62571700  0.64477300  0.39282300  1
  C  748  1  0.65137900  0.65011700  0.39120400  1
  C  750  1  0.64336400  0.67416800  0.36111000  1
  C  753  1  0.65220400  0.68877400  0.34558300  1
  C  755  1  0.61683400  0.63034600  0.40849800  1
  C  757  1  0.11776300  0.88237100  0.62392100  1
  C  759  1  0.12577500  0.90641700  0.59382600  1
  C  760  1  0.15145000  0.90110100  0.59547100  1
  C  762  1  0.14343800  0.87705600  0.62556600  1
  C  765  1  0.15229000  0.86247600  0.64111500  1
  C  767  1  0.11688200  0.92083200  0.57814300  1
  C  769  1  0.64859300  0.40036700  0.09696500  1
  C  771  1  0.63980000  0.37368300  0.12457000  1
  C  772  1  0.61400500  0.37781700  0.12156700  1
  C  774  1  0.62279800  0.40450300  0.09396200  1
  C  777  1  0.61423500  0.41955900  0.07875200  1
  C  779  1  0.64835600  0.35836500  0.13952000  1
  C  781  1  0.14877400  0.15075400  0.88979000  1
  C  783  1  0.13996400  0.17742600  0.86217100  1
  C  784  1  0.11417400  0.17327300  0.86515900  1
  C  786  1  0.12298500  0.14660100  0.89278000  1
  C  789  1  0.11443300  0.13154400  0.90799300  1
  C  791  1  0.14850500  0.19275100  0.84722200  1
  C  793  1  0.90307200  0.88002900  0.36527300  1
  C  795  1  0.89359000  0.90419200  0.39495200  1
  C  796  1  0.86805300  0.89870600  0.39251200  1
  C  798  1  0.87753100  0.87455300  0.36282700  1
  C  801  1  0.86946300  0.85985200  0.34707000  1
  C  803  1  0.90166900  0.91876100  0.41082300  1
  C  805  1  0.40326400  0.67129200  0.62131000  1
  C  807  1  0.39370700  0.64708600  0.59170500  1
  C  808  1  0.36816800  0.65256900  0.59421400  1
  C  810  1  0.37772300  0.67676600  0.62382500  1
  C  813  1  0.36967700  0.69147100  0.63958500  1
  C  815  1  0.40175700  0.63249200  0.57584600  1
  N  4  1  0.03462900  0.02594300  0.96638500  1
  N  8  1  0.00727100  0.99000400  0.99118200  1
  N  14  1  0.97921500  0.02549000  0.01598800  1
  N  20  1  0.00669100  0.06144700  0.99129300  1
  N  75  1  0.92192200  0.12504300  0.07370300  1
  N  76  1  0.92321100  0.92463800  0.07288800  1
  N  77  1  0.09385400  0.92597300  0.91046100  1
  N  78  1  0.09112700  0.12658000  0.90988900  1
  N  82  1  0.53444500  0.52519300  0.02044000  1
  N  86  1  0.50711300  0.56115700  0.99571100  1
  N  92  1  0.47901100  0.52569400  0.97087600  1
  N  98  1  0.50646100  0.48971000  0.99550500  1
  N  153  1  0.42175700  0.42622200  0.91300600  1
  N  154  1  0.42318200  0.62659300  0.91394900  1
  N  155  1  0.59365100  0.62515000  0.07643800  1
  N  156  1  0.59091500  0.42449500  0.07684500  1
  N  160  1  0.28385000  0.30299600  0.74349700  1
  N  164  1  0.25603600  0.27816300  0.70787600  1
  N  170  1  0.22853900  0.25330600  0.74364700  1
  N  176  1  0.25644000  0.27804900  0.77928000  1
  N  231  1  0.17194100  0.19563600  0.84330500  1
  N  232  1  0.17066400  0.19611900  0.64409200  1
  N  233  1  0.34102200  0.35917700  0.64266500  1
  N  234  1  0.34105300  0.35956600  0.84390800  1
  N  238  1  0.78390500  0.24817900  0.24319800  1
  N  242  1  0.75606100  0.27297800  0.27882300  1
  N  248  1  0.72851700  0.29785800  0.24306600  1
  N  254  1  0.75643300  0.27313400  0.20742800  1
  N  309  1  0.67179500  0.35549900  0.14344000  1
  N  310  1  0.67061700  0.35496200  0.34266500  1
  N  311  1  0.84110800  0.19197700  0.34400900  1
  N  312  1  0.84119000  0.19168900  0.14278000  1
  N  316  1  0.73405400  0.74913200  0.24326500  1
  N  320  1  0.76173500  0.77405000  0.27890300  1
  N  326  1  0.78923400  0.79893600  0.24315600  1
  N  332  1  0.76144000  0.77409000  0.20749800  1
  N  387  1  0.84471900  0.85664500  0.14270600  1
  N  388  1  0.84615800  0.85553900  0.34394100  1
  N  389  1  0.67564700  0.69303500  0.34326300  1
  N  390  1  0.67569300  0.69212300  0.14408800  1
  N  394  1  0.23422500  0.80217900  0.74344100  1
  N  398  1  0.26192600  0.77727800  0.70780100  1
  N  404  1  0.28946100  0.75236000  0.74353900  1
  N  410  1  0.26164500  0.77719000  0.77919600  1
  N  465  1  0.34484500  0.69458900  0.84401300  1
  N  466  1  0.34636900  0.69577200  0.64274000  1
  N  467  1  0.17573900  0.85823100  0.64343900  1
  N  468  1  0.17587200  0.85908000  0.84271800  1
  N  472  1  0.53444300  0.52537700  0.46622200  1
  N  476  1  0.50630900  0.49000400  0.49116500  1
  N  482  1  0.47938300  0.52605900  0.51613300  1
  N  488  1  0.50762500  0.56144500  0.49127300  1
  N  543  1  0.42478800  0.62656900  0.57407100  1
  N  544  1  0.42065200  0.42665300  0.57324500  1
  N  545  1  0.59100100  0.42434900  0.41016300  1
  N  546  1  0.59367500  0.62466200  0.40956800  1
  N  550  1  0.03445500  0.02575700  0.52044600  1
  N  554  1  0.00633800  0.06115600  0.49558100  1
  N  560  1  0.97937200  0.02511900  0.47058700  1
  N  566  1  0.00758100  0.98970700  0.49538300  1
  N  621  1  0.92469000  0.92471200  0.41256000  1
  N  622  1  0.92070700  0.12457800  0.41352400  1
  N  623  1  0.09100900  0.12672200  0.57662700  1
  N  624  1  0.09370300  0.92647000  0.57704900  1
  N  626  1  0.15954100  0.89053800  0.87235300  1
  N  629  1  0.11041200  0.89346200  0.88204300  1
  N  638  1  0.65934600  0.66058900  0.11449400  1
  N  641  1  0.61021900  0.65773900  0.10482000  1
  N  650  1  0.40544200  0.39594500  0.60414300  1
  N  653  1  0.35618500  0.38915200  0.61096200  1
  N  662  1  0.90550400  0.15532500  0.38268600  1
  N  665  1  0.85625100  0.16195000  0.37565800  1
  N  674  1  0.35945700  0.66331700  0.87455400  1
  N  677  1  0.40828600  0.65917800  0.88490800  1
  N  686  1  0.85940500  0.88797400  0.11223300  1
  N  689  1  0.90824500  0.89200500  0.10187200  1
  N  698  1  0.10618000  0.15830000  0.60673900  1
  N  701  1  0.15544000  0.16522800  0.61337200  1
  N  710  1  0.60615600  0.39280300  0.38006600  1
  N  713  1  0.65541200  0.38581400  0.37337900  1
  N  722  1  0.85682500  0.16196300  0.11111600  1
  N  725  1  0.90615300  0.15667300  0.10340900  1
  N  734  1  0.35667300  0.38933300  0.87558600  1
  N  737  1  0.40599900  0.39455100  0.88328800  1
  N  746  1  0.60999600  0.65453600  0.37830900  1
  N  749  1  0.65908400  0.66441300  0.37563000  1
  N  758  1  0.11005100  0.89664400  0.60832900  1
  N  761  1  0.15916300  0.88682100  0.61106000  1
  N  770  1  0.65597300  0.38531900  0.11194200  1
  N  773  1  0.60662300  0.39285400  0.10657900  1
  N  782  1  0.15614400  0.16580300  0.87481300  1
  N  785  1  0.10680300  0.15823500  0.88014700  1
  N  794  1  0.90999700  0.89443300  0.38101700  1
  N  797  1  0.86112700  0.88430500  0.37676800  1
  N  806  1  0.41015200  0.65686500  0.60556600  1
  N  809  1  0.36128000  0.66699300  0.60995900  1
