# generated using pymatgen
data_CuH14(C11O2)2
_symmetry_space_group_name_H-M   'P 1'
_cell_length_a   33.64026000
_cell_length_b   33.64026000
_cell_length_c   33.64026000
_cell_angle_alpha   90.00000000
_cell_angle_beta   90.00000000
_cell_angle_gamma   90.00000000
_symmetry_Int_Tables_number   1
_chemical_formula_structural   CuH14(C11O2)2
_chemical_formula_sum   'Cu24 H336 C528 O96'
_cell_volume   38069.57523751
_cell_formula_units_Z   24
loop_
 _symmetry_equiv_pos_site_id
 _symmetry_equiv_pos_as_xyz
  1  'x, y, z'
loop_
 _atom_site_type_symbol
 _atom_site_label
 _atom_site_symmetry_multiplicity
 _atom_site_fract_x
 _atom_site_fract_y
 _atom_site_fract_z
 _atom_site_occupancy
  Cu  Cu0  1  0.03644000  0.75013000  0.24981000  1
  Cu  Cu1  1  0.46348000  0.75012000  0.24964000  1
  Cu  Cu2  1  0.24981000  0.03644000  0.75013000  1
  Cu  Cu3  1  0.24963000  0.46348000  0.75012000  1
  Cu  Cu4  1  0.75013000  0.24981000  0.03644000  1
  Cu  Cu5  1  0.75012000  0.24964000  0.46348000  1
  Cu  Cu6  1  0.24984000  0.96356000  0.75040000  1
  Cu  Cu7  1  0.24990000  0.53652000  0.75015000  1
  Cu  Cu8  1  0.96356000  0.75040000  0.24984000  1
  Cu  Cu9  1  0.53652000  0.75015000  0.24990000  1
  Cu  Cu10  1  0.75014000  0.24990000  0.53652000  1
  Cu  Cu11  1  0.75040000  0.24984000  0.96356000  1
  Cu  Cu12  1  0.75016000  0.03644000  0.24960000  1
  Cu  Cu13  1  0.75010000  0.46348000  0.24985000  1
  Cu  Cu14  1  0.03644000  0.24960000  0.75016000  1
  Cu  Cu15  1  0.46348000  0.24985000  0.75010000  1
  Cu  Cu16  1  0.24985000  0.75010000  0.46348000  1
  Cu  Cu17  1  0.24960000  0.75016000  0.03644000  1
  Cu  Cu18  1  0.96356000  0.24987000  0.75019000  1
  Cu  Cu19  1  0.53651000  0.24988000  0.75036000  1
  Cu  Cu20  1  0.75018000  0.96356000  0.24987000  1
  Cu  Cu21  1  0.75036000  0.53652000  0.24988000  1
  Cu  Cu22  1  0.24987000  0.75018000  0.96356000  1
  Cu  Cu23  1  0.24987000  0.75036000  0.53652000  1
  H  H24  1  0.91780000  0.96771000  0.02210000  1
  H  H25  1  0.90799000  0.90361000  0.03730000  1
  H  H26  1  0.91191000  0.85882000  0.09531000  1
  H  H27  1  0.03983000  0.86131000  0.08843000  1
  H  H28  1  0.03606000  0.90648000  0.03151000  1
  H  H29  1  0.94747000  0.82341000  0.14404000  1
  H  H30  1  0.03893000  0.82382000  0.14155000  1
  H  H31  1  0.58220000  0.53228000  0.02210000  1
  H  H32  1  0.59201000  0.59639000  0.03728000  1
  H  H33  1  0.58813000  0.64117000  0.09528000  1
  H  H34  1  0.46020000  0.63870000  0.08844000  1
  H  H35  1  0.46395000  0.59353000  0.03153000  1
  H  H36  1  0.55256000  0.67663000  0.14406000  1
  H  H37  1  0.46114000  0.67614000  0.14155000  1
  H  H38  1  0.58218000  0.96771000  0.47790000  1
  H  H39  1  0.59200000  0.90361000  0.46272000  1
  H  H40  1  0.58812000  0.85884000  0.40471000  1
  H  H41  1  0.46018000  0.86130000  0.41155000  1
  H  H42  1  0.46394000  0.90647000  0.46847000  1
  H  H43  1  0.55255000  0.82339000  0.35593000  1
  H  H44  1  0.46115000  0.82378000  0.35839000  1
  H  H45  1  0.91780000  0.53229000  0.47789000  1
  H  H46  1  0.90799000  0.59639000  0.46270000  1
  H  H47  1  0.91189000  0.64117000  0.40470000  1
  H  H48  1  0.03982000  0.63869000  0.41156000  1
  H  H49  1  0.03605000  0.59352000  0.46847000  1
  H  H50  1  0.94741000  0.67662000  0.35595000  1
  H  H51  1  0.03880000  0.67625000  0.35831000  1
  H  H52  1  0.02209000  0.91780000  0.96771000  1
  H  H53  1  0.03729000  0.90799000  0.90361000  1
  H  H54  1  0.09530000  0.91191000  0.85882000  1
  H  H55  1  0.08843000  0.03983000  0.86131000  1
  H  H56  1  0.03151000  0.03606000  0.90648000  1
  H  H57  1  0.14404000  0.94747000  0.82341000  1
  H  H58  1  0.14155000  0.03893000  0.82383000  1
  H  H59  1  0.02210000  0.58220000  0.53228000  1
  H  H60  1  0.03728000  0.59201000  0.59639000  1
  H  H61  1  0.09528000  0.58813000  0.64117000  1
  H  H62  1  0.08844000  0.46020000  0.63870000  1
  H  H63  1  0.03153000  0.46395000  0.59353000  1
  H  H64  1  0.14406000  0.55256000  0.67663000  1
  H  H65  1  0.14155000  0.46114000  0.67614000  1
  H  H66  1  0.47790000  0.58218000  0.96771000  1
  H  H67  1  0.46272000  0.59200000  0.90361000  1
  H  H68  1  0.40470000  0.58812000  0.85884000  1
  H  H69  1  0.41155000  0.46018000  0.86130000  1
  H  H70  1  0.46847000  0.46394000  0.90647000  1
  H  H71  1  0.35592000  0.55255000  0.82339000  1
  H  H72  1  0.35839000  0.46115000  0.82378000  1
  H  H73  1  0.47789000  0.91780000  0.53229000  1
  H  H74  1  0.46270000  0.90799000  0.59640000  1
  H  H75  1  0.40469000  0.91189000  0.64117000  1
  H  H76  1  0.41156000  0.03982000  0.63869000  1
  H  H77  1  0.46847000  0.03605000  0.59352000  1
  H  H78  1  0.35594000  0.94741000  0.67662000  1
  H  H79  1  0.35831000  0.03880000  0.67626000  1
  H  H80  1  0.96771000  0.02210000  0.91780000  1
  H  H81  1  0.90360000  0.03729000  0.90799000  1
  H  H82  1  0.85882000  0.09530000  0.91191000  1
  H  H83  1  0.86131000  0.08843000  0.03983000  1
  H  H84  1  0.90648000  0.03151000  0.03606000  1
  H  H85  1  0.82341000  0.14404000  0.94747000  1
  H  H86  1  0.82382000  0.14155000  0.03893000  1
  H  H87  1  0.53228000  0.02210000  0.58220000  1
  H  H88  1  0.59639000  0.03728000  0.59202000  1
  H  H89  1  0.64116000  0.09528000  0.58813000  1
  H  H90  1  0.63870000  0.08844000  0.46020000  1
  H  H91  1  0.59353000  0.03153000  0.46395000  1
  H  H92  1  0.67662000  0.14406000  0.55256000  1
  H  H93  1  0.67614000  0.14155000  0.46115000  1
  H  H94  1  0.96770000  0.47790000  0.58219000  1
  H  H95  1  0.90361000  0.46272000  0.59200000  1
  H  H96  1  0.85883000  0.40471000  0.58812000  1
  H  H97  1  0.86130000  0.41155000  0.46019000  1
  H  H98  1  0.90646000  0.46847000  0.46394000  1
  H  H99  1  0.82339000  0.35593000  0.55256000  1
  H  H100  1  0.82378000  0.35839000  0.46116000  1
  H  H101  1  0.53229000  0.47789000  0.91781000  1
  H  H102  1  0.59639000  0.46270000  0.90799000  1
  H  H103  1  0.64117000  0.40469000  0.91189000  1
  H  H104  1  0.63869000  0.41156000  0.03982000  1
  H  H105  1  0.59352000  0.46847000  0.03605000  1
  H  H106  1  0.67661000  0.35594000  0.94741000  1
  H  H107  1  0.67625000  0.35831000  0.03880000  1
  H  H108  1  0.03230000  0.08219000  0.52211000  1
  H  H109  1  0.09640000  0.09200000  0.53730000  1
  H  H110  1  0.14117000  0.08809000  0.59531000  1
  H  H111  1  0.13869000  0.96017000  0.58844000  1
  H  H112  1  0.09352000  0.96394000  0.53152000  1
  H  H113  1  0.17660000  0.05256000  0.64405000  1
  H  H114  1  0.17625000  0.96114000  0.64165000  1
  H  H115  1  0.46771000  0.41781000  0.52211000  1
  H  H116  1  0.40361000  0.40799000  0.53728000  1
  H  H117  1  0.35884000  0.41186000  0.59528000  1
  H  H118  1  0.36130000  0.53980000  0.58845000  1
  H  H119  1  0.40646000  0.53605000  0.53154000  1
  H  H120  1  0.32337000  0.44741000  0.64407000  1
  H  H121  1  0.32377000  0.53878000  0.64165000  1
  H  H122  1  0.03228000  0.41781000  0.97791000  1
  H  H123  1  0.09639000  0.40799000  0.96272000  1
  H  H124  1  0.14116000  0.41188000  0.90471000  1
  H  H125  1  0.13869000  0.53981000  0.91156000  1
  H  H126  1  0.09353000  0.53606000  0.96848000  1
  H  H127  1  0.17660000  0.44748000  0.85594000  1
  H  H128  1  0.17613000  0.53892000  0.85851000  1
  H  H129  1  0.46771000  0.08220000  0.97790000  1
  H  H130  1  0.40360000  0.09201000  0.96271000  1
  H  H131  1  0.35882000  0.08810000  0.90470000  1
  H  H132  1  0.36130000  0.96018000  0.91157000  1
  H  H133  1  0.40648000  0.96395000  0.96848000  1
  H  H134  1  0.32338000  0.05256000  0.85596000  1
  H  H135  1  0.32382000  0.96113000  0.85841000  1
  H  H136  1  0.08220000  0.97789000  0.46771000  1
  H  H137  1  0.09201000  0.96270000  0.40361000  1
  H  H138  1  0.08810000  0.90470000  0.35882000  1
  H  H139  1  0.96018000  0.91157000  0.36131000  1
  H  H140  1  0.96395000  0.96848000  0.40648000  1
  H  H141  1  0.05256000  0.85596000  0.32339000  1
  H  H142  1  0.96113000  0.85841000  0.32383000  1
  H  H143  1  0.41781000  0.97791000  0.03229000  1
  H  H144  1  0.40799000  0.96272000  0.09639000  1
  H  H145  1  0.41188000  0.90471000  0.14117000  1
  H  H146  1  0.53981000  0.91156000  0.13870000  1
  H  H147  1  0.53606000  0.96848000  0.09353000  1
  H  H148  1  0.44748000  0.85594000  0.17661000  1
  H  H149  1  0.53892000  0.85851000  0.17613000  1
  H  H150  1  0.41781000  0.52211000  0.46772000  1
  H  H151  1  0.40799000  0.53728000  0.40361000  1
  H  H152  1  0.41186000  0.59528000  0.35884000  1
  H  H153  1  0.53980000  0.58845000  0.36130000  1
  H  H154  1  0.53604000  0.53154000  0.40647000  1
  H  H155  1  0.44740000  0.64407000  0.32337000  1
  H  H156  1  0.53878000  0.64165000  0.32378000  1
  H  H157  1  0.08219000  0.52211000  0.03230000  1
  H  H158  1  0.09200000  0.53730000  0.09640000  1
  H  H159  1  0.08809000  0.59531000  0.14117000  1
  H  H160  1  0.96017000  0.58844000  0.13869000  1
  H  H161  1  0.96394000  0.53152000  0.09352000  1
  H  H162  1  0.05256000  0.64405000  0.17660000  1
  H  H163  1  0.96114000  0.64165000  0.17625000  1
  H  H164  1  0.97790000  0.03229000  0.41781000  1
  H  H165  1  0.96272000  0.09639000  0.40799000  1
  H  H166  1  0.90471000  0.14117000  0.41188000  1
  H  H167  1  0.91156000  0.13869000  0.53981000  1
  H  H168  1  0.96848000  0.09353000  0.53606000  1
  H  H169  1  0.85594000  0.17661000  0.44748000  1
  H  H170  1  0.85851000  0.17613000  0.53893000  1
  H  H171  1  0.97789000  0.46771000  0.08220000  1
  H  H172  1  0.96270000  0.40361000  0.09202000  1
  H  H173  1  0.90470000  0.35882000  0.08810000  1
  H  H174  1  0.91157000  0.36131000  0.96019000  1
  H  H175  1  0.96848000  0.40648000  0.96395000  1
  H  H176  1  0.85596000  0.32339000  0.05256000  1
  H  H177  1  0.85840000  0.32383000  0.96113000  1
  H  H178  1  0.52211000  0.03230000  0.08219000  1
  H  H179  1  0.53730000  0.09640000  0.09200000  1
  H  H180  1  0.59531000  0.14117000  0.08810000  1
  H  H181  1  0.58843000  0.13869000  0.96017000  1
  H  H182  1  0.53152000  0.09352000  0.96394000  1
  H  H183  1  0.64405000  0.17660000  0.05256000  1
  H  H184  1  0.64165000  0.17625000  0.96114000  1
  H  H185  1  0.52210000  0.46772000  0.41781000  1
  H  H186  1  0.53728000  0.40361000  0.40799000  1
  H  H187  1  0.59528000  0.35884000  0.41186000  1
  H  H188  1  0.58845000  0.36130000  0.53980000  1
  H  H189  1  0.53154000  0.40647000  0.53605000  1
  H  H190  1  0.64407000  0.32337000  0.44741000  1
  H  H191  1  0.64164000  0.32378000  0.53878000  1
  H  H192  1  0.96770000  0.91781000  0.47789000  1
  H  H193  1  0.90360000  0.90800000  0.46270000  1
  H  H194  1  0.85882000  0.91190000  0.40469000  1
  H  H195  1  0.86131000  0.03983000  0.41156000  1
  H  H196  1  0.90648000  0.03606000  0.46848000  1
  H  H197  1  0.82340000  0.94744000  0.35595000  1
  H  H198  1  0.82375000  0.03886000  0.35835000  1
  H  H199  1  0.53228000  0.58219000  0.47789000  1
  H  H200  1  0.59638000  0.59201000  0.46272000  1
  H  H201  1  0.64116000  0.58814000  0.40472000  1
  H  H202  1  0.63870000  0.46020000  0.41155000  1
  H  H203  1  0.59353000  0.46395000  0.46846000  1
  H  H204  1  0.67663000  0.55259000  0.35593000  1
  H  H205  1  0.67622000  0.46122000  0.35835000  1
  H  H206  1  0.96771000  0.58219000  0.02210000  1
  H  H207  1  0.90361000  0.59201000  0.03728000  1
  H  H208  1  0.85883000  0.58812000  0.09529000  1
  H  H209  1  0.86130000  0.46019000  0.08844000  1
  H  H210  1  0.90647000  0.46394000  0.03152000  1
  H  H211  1  0.82339000  0.55252000  0.14406000  1
  H  H212  1  0.82386000  0.46107000  0.14149000  1
  H  H213  1  0.53228000  0.91780000  0.02211000  1
  H  H214  1  0.59639000  0.90798000  0.03730000  1
  H  H215  1  0.64117000  0.91190000  0.09530000  1
  H  H216  1  0.63869000  0.03982000  0.08843000  1
  H  H217  1  0.59352000  0.03605000  0.03152000  1
  H  H218  1  0.67661000  0.94744000  0.14404000  1
  H  H219  1  0.67617000  0.03887000  0.14159000  1
  H  H220  1  0.91780000  0.02210000  0.53229000  1
  H  H221  1  0.90798000  0.03729000  0.59640000  1
  H  H222  1  0.91190000  0.09530000  0.64118000  1
  H  H223  1  0.03981000  0.08843000  0.63869000  1
  H  H224  1  0.03605000  0.03152000  0.59352000  1
  H  H225  1  0.94744000  0.14404000  0.67661000  1
  H  H226  1  0.03887000  0.14159000  0.67617000  1
  H  H227  1  0.58219000  0.02209000  0.96771000  1
  H  H228  1  0.59201000  0.03728000  0.90361000  1
  H  H229  1  0.58811000  0.09529000  0.85883000  1
  H  H230  1  0.46019000  0.08843000  0.86130000  1
  H  H231  1  0.46394000  0.03152000  0.90647000  1
  H  H232  1  0.55252000  0.14406000  0.82339000  1
  H  H233  1  0.46107000  0.14149000  0.82387000  1
  H  H234  1  0.58219000  0.47789000  0.53228000  1
  H  H235  1  0.59201000  0.46272000  0.59639000  1
  H  H236  1  0.58814000  0.40471000  0.64116000  1
  H  H237  1  0.46020000  0.41155000  0.63870000  1
  H  H238  1  0.46395000  0.46846000  0.59353000  1
  H  H239  1  0.55259000  0.35593000  0.67663000  1
  H  H240  1  0.46122000  0.35835000  0.67622000  1
  H  H241  1  0.91781000  0.47789000  0.96770000  1
  H  H242  1  0.90800000  0.46270000  0.90360000  1
  H  H243  1  0.91190000  0.40469000  0.85883000  1
  H  H244  1  0.03983000  0.41156000  0.86131000  1
  H  H245  1  0.03606000  0.46848000  0.90648000  1
  H  H246  1  0.94744000  0.35594000  0.82340000  1
  H  H247  1  0.03886000  0.35835000  0.82375000  1
  H  H248  1  0.02209000  0.96771000  0.58219000  1
  H  H249  1  0.03728000  0.90361000  0.59201000  1
  H  H250  1  0.09528000  0.85883000  0.58812000  1
  H  H251  1  0.08843000  0.86130000  0.46019000  1
  H  H252  1  0.03152000  0.90647000  0.46394000  1
  H  H253  1  0.14406000  0.82339000  0.55252000  1
  H  H254  1  0.14149000  0.82386000  0.46107000  1
  H  H255  1  0.02210000  0.53228000  0.91780000  1
  H  H256  1  0.03729000  0.59639000  0.90798000  1
  H  H257  1  0.09530000  0.64117000  0.91190000  1
  H  H258  1  0.08843000  0.63869000  0.03982000  1
  H  H259  1  0.03152000  0.59352000  0.03605000  1
  H  H260  1  0.14404000  0.67661000  0.94744000  1
  H  H261  1  0.14159000  0.67617000  0.03887000  1
  H  H262  1  0.47789000  0.96770000  0.91781000  1
  H  H263  1  0.46270000  0.90360000  0.90800000  1
  H  H264  1  0.40469000  0.85882000  0.91191000  1
  H  H265  1  0.41156000  0.86131000  0.03983000  1
  H  H266  1  0.46848000  0.90648000  0.03606000  1
  H  H267  1  0.35594000  0.82340000  0.94744000  1
  H  H268  1  0.35835000  0.82375000  0.03886000  1
  H  H269  1  0.47789000  0.53228000  0.58219000  1
  H  H270  1  0.46272000  0.59639000  0.59201000  1
  H  H271  1  0.40471000  0.64116000  0.58814000  1
  H  H272  1  0.41155000  0.63870000  0.46020000  1
  H  H273  1  0.46846000  0.59353000  0.46395000  1
  H  H274  1  0.35593000  0.67663000  0.55259000  1
  H  H275  1  0.35835000  0.67622000  0.46122000  1
  H  H276  1  0.08219000  0.03229000  0.97790000  1
  H  H277  1  0.09200000  0.09639000  0.96270000  1
  H  H278  1  0.08809000  0.14117000  0.90470000  1
  H  H279  1  0.96017000  0.13869000  0.91157000  1
  H  H280  1  0.96394000  0.09352000  0.96849000  1
  H  H281  1  0.05253000  0.17659000  0.85596000  1
  H  H282  1  0.96107000  0.17617000  0.85845000  1
  H  H283  1  0.41780000  0.46772000  0.97790000  1
  H  H284  1  0.40798000  0.40361000  0.96272000  1
  H  H285  1  0.41187000  0.35883000  0.90472000  1
  H  H286  1  0.53979000  0.36130000  0.91156000  1
  H  H287  1  0.53605000  0.40647000  0.96847000  1
  H  H288  1  0.44744000  0.32337000  0.85594000  1
  H  H289  1  0.53885000  0.32385000  0.85845000  1
  H  H290  1  0.41781000  0.03229000  0.52210000  1
  H  H291  1  0.40800000  0.09639000  0.53728000  1
  H  H292  1  0.41188000  0.14116000  0.59529000  1
  H  H293  1  0.53981000  0.13870000  0.58845000  1
  H  H294  1  0.53606000  0.09353000  0.53153000  1
  H  H295  1  0.44744000  0.17661000  0.64407000  1
  H  H296  1  0.53884000  0.17622000  0.64161000  1
  H  H297  1  0.08219000  0.46771000  0.52211000  1
  H  H298  1  0.09201000  0.40360000  0.53730000  1
  H  H299  1  0.08810000  0.35883000  0.59531000  1
  H  H300  1  0.96018000  0.36131000  0.58844000  1
  H  H301  1  0.96395000  0.40648000  0.53153000  1
  H  H302  1  0.05259000  0.32338000  0.64406000  1
  H  H303  1  0.96120000  0.32374000  0.64169000  1
  H  H304  1  0.97790000  0.08220000  0.03229000  1
  H  H305  1  0.96270000  0.09201000  0.09640000  1
  H  H306  1  0.90469000  0.08809000  0.14118000  1
  H  H307  1  0.91157000  0.96017000  0.13869000  1
  H  H308  1  0.96848000  0.96394000  0.09352000  1
  H  H309  1  0.85596000  0.05253000  0.17659000  1
  H  H310  1  0.85845000  0.96107000  0.17618000  1
  H  H311  1  0.97790000  0.41780000  0.46772000  1
  H  H312  1  0.96272000  0.40798000  0.40361000  1
  H  H313  1  0.90472000  0.41187000  0.35883000  1
  H  H314  1  0.91156000  0.53980000  0.36130000  1
  H  H315  1  0.96847000  0.53605000  0.40647000  1
  H  H316  1  0.85594000  0.44744000  0.32337000  1
  H  H317  1  0.85845000  0.53885000  0.32386000  1
  H  H318  1  0.52210000  0.41781000  0.03229000  1
  H  H319  1  0.53728000  0.40800000  0.09639000  1
  H  H320  1  0.59529000  0.41188000  0.14116000  1
  H  H321  1  0.58845000  0.53982000  0.13870000  1
  H  H322  1  0.53153000  0.53606000  0.09353000  1
  H  H323  1  0.64407000  0.44744000  0.17661000  1
  H  H324  1  0.64161000  0.53885000  0.17622000  1
  H  H325  1  0.52211000  0.08219000  0.46771000  1
  H  H326  1  0.53730000  0.09201000  0.40361000  1
  H  H327  1  0.59530000  0.08811000  0.35883000  1
  H  H328  1  0.58843000  0.96018000  0.36131000  1
  H  H329  1  0.53152000  0.96395000  0.40648000  1
  H  H330  1  0.64405000  0.05259000  0.32338000  1
  H  H331  1  0.64169000  0.96120000  0.32375000  1
  H  H332  1  0.03229000  0.97790000  0.08220000  1
  H  H333  1  0.09639000  0.96270000  0.09201000  1
  H  H334  1  0.14117000  0.90470000  0.08809000  1
  H  H335  1  0.13868000  0.91157000  0.96017000  1
  H  H336  1  0.09351000  0.96848000  0.96394000  1
  H  H337  1  0.17659000  0.85596000  0.05253000  1
  H  H338  1  0.17617000  0.85845000  0.96107000  1
  H  H339  1  0.46772000  0.97790000  0.41780000  1
  H  H340  1  0.40361000  0.96272000  0.40798000  1
  H  H341  1  0.35883000  0.90472000  0.41187000  1
  H  H342  1  0.36130000  0.91156000  0.53980000  1
  H  H343  1  0.40647000  0.96847000  0.53605000  1
  H  H344  1  0.32337000  0.85594000  0.44744000  1
  H  H345  1  0.32385000  0.85845000  0.53885000  1
  H  H346  1  0.03229000  0.52210000  0.41782000  1
  H  H347  1  0.09639000  0.53728000  0.40800000  1
  H  H348  1  0.14116000  0.59529000  0.41188000  1
  H  H349  1  0.13869000  0.58845000  0.53982000  1
  H  H350  1  0.09353000  0.53153000  0.53606000  1
  H  H351  1  0.17661000  0.64407000  0.44745000  1
  H  H352  1  0.17622000  0.64161000  0.53885000  1
  H  H353  1  0.46771000  0.52211000  0.08220000  1
  H  H354  1  0.40360000  0.53730000  0.09201000  1
  H  H355  1  0.35883000  0.59531000  0.08811000  1
  H  H356  1  0.36130000  0.58844000  0.96018000  1
  H  H357  1  0.40647000  0.53152000  0.96395000  1
  H  H358  1  0.32338000  0.64406000  0.05259000  1
  H  H359  1  0.32374000  0.64169000  0.96120000  1
  C  C360  1  0.93975000  0.96784000  0.99836000  1
  C  C361  1  0.96956000  0.93864000  0.99797000  1
  C  C362  1  0.97165000  0.90904000  0.03029000  1
  C  C363  1  0.93692000  0.89481000  0.04875000  1
  C  C364  1  0.93909000  0.86940000  0.08129000  1
  C  C365  1  0.97600000  0.85699000  0.09675000  1
  C  C366  1  0.01078000  0.87040000  0.07749000  1
  C  C367  1  0.00865000  0.89577000  0.04498000  1
  C  C368  1  0.97636000  0.83162000  0.13179000  1
  C  C369  1  0.00866000  0.81756000  0.15102000  1
  C  C370  1  0.00541000  0.79262000  0.18684000  1
  C  C371  1  0.56024000  0.53215000  0.99837000  1
  C  C372  1  0.53044000  0.56135000  0.99797000  1
  C  C373  1  0.52835000  0.59096000  0.03029000  1
  C  C374  1  0.56309000  0.60519000  0.04875000  1
  C  C375  1  0.56093000  0.63060000  0.08129000  1
  C  C376  1  0.52402000  0.64303000  0.09678000  1
  C  C377  1  0.48925000  0.62961000  0.07751000  1
  C  C378  1  0.49137000  0.60423000  0.04499000  1
  C  C379  1  0.52366000  0.66842000  0.13183000  1
  C  C380  1  0.49138000  0.68247000  0.15109000  1
  C  C381  1  0.49447000  0.70755000  0.18686000  1
  C  C382  1  0.56023000  0.96784000  0.50164000  1
  C  C383  1  0.53043000  0.93864000  0.50203000  1
  C  C384  1  0.52834000  0.90903000  0.46970000  1
  C  C385  1  0.56307000  0.89480000  0.45124000  1
  C  C386  1  0.56090000  0.86938000  0.41869000  1
  C  C387  1  0.52398000  0.85692000  0.40318000  1
  C  C388  1  0.48924000  0.87039000  0.42248000  1
  C  C389  1  0.49136000  0.89576000  0.45501000  1
  C  C390  1  0.52360000  0.83151000  0.36809000  1
  C  C391  1  0.49134000  0.81741000  0.34874000  1
  C  C392  1  0.49441000  0.79266000  0.31265000  1
  C  C393  1  0.93975000  0.53216000  0.50163000  1
  C  C394  1  0.96956000  0.56136000  0.50202000  1
  C  C395  1  0.97165000  0.59097000  0.46970000  1
  C  C396  1  0.93692000  0.60520000  0.45123000  1
  C  C397  1  0.93910000  0.63062000  0.41869000  1
  C  C398  1  0.97601000  0.64306000  0.40319000  1
  C  C399  1  0.01076000  0.62961000  0.42248000  1
  C  C400  1  0.00863000  0.60424000  0.45501000  1
  C  C401  1  0.97635000  0.66848000  0.36810000  1
  C  C402  1  0.00856000  0.68259000  0.34872000  1
  C  C403  1  0.00547000  0.70744000  0.31267000  1
  C  C404  1  0.99836000  0.93975000  0.96784000  1
  C  C405  1  0.99797000  0.96956000  0.93864000  1
  C  C406  1  0.03029000  0.97165000  0.90904000  1
  C  C407  1  0.04875000  0.93692000  0.89481000  1
  C  C408  1  0.08128000  0.93909000  0.86940000  1
  C  C409  1  0.09674000  0.97600000  0.85699000  1
  C  C410  1  0.07749000  0.01078000  0.87040000  1
  C  C411  1  0.04497000  0.00865000  0.89577000  1
  C  C412  1  0.13178000  0.97636000  0.83162000  1
  C  C413  1  0.15102000  0.00866000  0.81756000  1
  C  C414  1  0.18684000  0.00541000  0.79262000  1
  C  C415  1  0.99836000  0.56025000  0.53215000  1
  C  C416  1  0.99797000  0.53044000  0.56135000  1
  C  C417  1  0.03029000  0.52835000  0.59096000  1
  C  C418  1  0.04874000  0.56309000  0.60519000  1
  C  C419  1  0.08128000  0.56093000  0.63060000  1
  C  C420  1  0.09677000  0.52402000  0.64303000  1
  C  C421  1  0.07750000  0.48925000  0.62961000  1
  C  C422  1  0.04498000  0.49137000  0.60423000  1
  C  C423  1  0.13183000  0.52366000  0.66842000  1
  C  C424  1  0.15108000  0.49138000  0.68248000  1
  C  C425  1  0.18686000  0.49447000  0.70755000  1
  C  C426  1  0.50163000  0.56024000  0.96784000  1
  C  C427  1  0.50203000  0.53043000  0.93864000  1
  C  C428  1  0.46970000  0.52834000  0.90903000  1
  C  C429  1  0.45124000  0.56307000  0.89480000  1
  C  C430  1  0.41868000  0.56090000  0.86938000  1
  C  C431  1  0.40317000  0.52398000  0.85693000  1
  C  C432  1  0.42247000  0.48924000  0.87039000  1
  C  C433  1  0.45500000  0.49136000  0.89576000  1
  C  C434  1  0.36808000  0.52360000  0.83151000  1
  C  C435  1  0.34874000  0.49134000  0.81741000  1
  C  C436  1  0.31265000  0.49441000  0.79266000  1
  C  C437  1  0.50162000  0.93975000  0.53216000  1
  C  C438  1  0.50202000  0.96956000  0.56136000  1
  C  C439  1  0.46969000  0.97165000  0.59097000  1
  C  C440  1  0.45123000  0.93692000  0.60520000  1
  C  C441  1  0.41868000  0.93910000  0.63062000  1
  C  C442  1  0.40318000  0.97601000  0.64306000  1
  C  C443  1  0.42248000  0.01076000  0.62961000  1
  C  C444  1  0.45500000  0.00863000  0.60424000  1
  C  C445  1  0.36810000  0.97635000  0.66848000  1
  C  C446  1  0.34871000  0.00856000  0.68260000  1
  C  C447  1  0.31267000  0.00547000  0.70744000  1
  C  C448  1  0.96784000  0.99836000  0.93975000  1
  C  C449  1  0.93864000  0.99797000  0.96956000  1
  C  C450  1  0.90904000  0.03029000  0.97166000  1
  C  C451  1  0.89481000  0.04875000  0.93692000  1
  C  C452  1  0.86940000  0.08128000  0.93909000  1
  C  C453  1  0.85698000  0.09675000  0.97600000  1
  C  C454  1  0.87040000  0.07749000  0.01078000  1
  C  C455  1  0.89577000  0.04498000  0.00865000  1
  C  C456  1  0.83161000  0.13178000  0.97636000  1
  C  C457  1  0.81756000  0.15102000  0.00866000  1
  C  C458  1  0.79262000  0.18684000  0.00542000  1
  C  C459  1  0.53215000  0.99836000  0.56025000  1
  C  C460  1  0.56134000  0.99797000  0.53044000  1
  C  C461  1  0.59096000  0.03029000  0.52836000  1
  C  C462  1  0.60519000  0.04874000  0.56309000  1
  C  C463  1  0.63060000  0.08129000  0.56093000  1
  C  C464  1  0.64303000  0.09678000  0.52403000  1
  C  C465  1  0.62961000  0.07751000  0.48925000  1
  C  C466  1  0.60423000  0.04498000  0.49137000  1
  C  C467  1  0.66842000  0.13183000  0.52366000  1
  C  C468  1  0.68247000  0.15108000  0.49138000  1
  C  C469  1  0.70754000  0.18686000  0.49447000  1
  C  C470  1  0.96784000  0.50163000  0.56024000  1
  C  C471  1  0.93864000  0.50203000  0.53043000  1
  C  C472  1  0.90903000  0.46970000  0.52835000  1
  C  C473  1  0.89480000  0.45124000  0.56307000  1
  C  C474  1  0.86937000  0.41868000  0.56090000  1
  C  C475  1  0.85692000  0.40318000  0.52399000  1
  C  C476  1  0.87038000  0.42247000  0.48924000  1
  C  C477  1  0.89576000  0.45501000  0.49136000  1
  C  C478  1  0.83151000  0.36808000  0.52361000  1
  C  C479  1  0.81741000  0.34874000  0.49134000  1
  C  C480  1  0.79266000  0.31265000  0.49441000  1
  C  C481  1  0.53216000  0.50162000  0.93975000  1
  C  C482  1  0.56135000  0.50202000  0.96956000  1
  C  C483  1  0.59096000  0.46969000  0.97165000  1
  C  C484  1  0.60519000  0.45123000  0.93692000  1
  C  C485  1  0.63061000  0.41868000  0.93910000  1
  C  C486  1  0.64306000  0.40319000  0.97601000  1
  C  C487  1  0.62961000  0.42248000  0.01076000  1
  C  C488  1  0.60424000  0.45501000  0.00863000  1
  C  C489  1  0.66848000  0.36810000  0.97635000  1
  C  C490  1  0.68259000  0.34872000  0.00857000  1
  C  C491  1  0.70744000  0.31267000  0.00547000  1
  C  C492  1  0.03216000  0.06024000  0.49837000  1
  C  C493  1  0.06136000  0.03043000  0.49797000  1
  C  C494  1  0.09097000  0.02834000  0.53030000  1
  C  C495  1  0.10520000  0.06307000  0.54877000  1
  C  C496  1  0.13062000  0.06089000  0.58132000  1
  C  C497  1  0.14306000  0.02397000  0.59680000  1
  C  C498  1  0.12961000  0.98922000  0.57751000  1
  C  C499  1  0.10423000  0.99135000  0.54499000  1
  C  C500  1  0.16847000  0.02361000  0.63189000  1
  C  C501  1  0.18258000  0.99136000  0.65124000  1
  C  C502  1  0.20732000  0.99452000  0.68733000  1
  C  C503  1  0.46784000  0.43975000  0.49837000  1
  C  C504  1  0.43865000  0.46956000  0.49798000  1
  C  C505  1  0.40903000  0.47165000  0.53030000  1
  C  C506  1  0.39480000  0.43692000  0.54876000  1
  C  C507  1  0.36938000  0.43909000  0.58131000  1
  C  C508  1  0.35692000  0.47599000  0.59683000  1
  C  C509  1  0.37038000  0.51074000  0.57753000  1
  C  C510  1  0.39576000  0.50863000  0.54500000  1
  C  C511  1  0.33150000  0.47635000  0.63192000  1
  C  C512  1  0.31740000  0.50858000  0.65128000  1
  C  C513  1  0.29256000  0.50557000  0.68733000  1
  C  C514  1  0.03215000  0.43976000  0.00164000  1
  C  C515  1  0.06135000  0.46957000  0.00204000  1
  C  C516  1  0.09096000  0.47165000  0.96971000  1
  C  C517  1  0.10519000  0.43691000  0.95126000  1
  C  C518  1  0.13060000  0.43908000  0.91871000  1
  C  C519  1  0.14303000  0.47599000  0.90323000  1
  C  C520  1  0.12960000  0.51076000  0.92250000  1
  C  C521  1  0.10423000  0.50864000  0.95502000  1
  C  C522  1  0.16840000  0.47638000  0.86818000  1
  C  C523  1  0.18244000  0.50870000  0.84897000  1
  C  C524  1  0.20740000  0.50557000  0.81313000  1
  C  C525  1  0.46784000  0.06025000  0.00163000  1
  C  C526  1  0.43865000  0.03044000  0.00203000  1
  C  C527  1  0.40903000  0.02835000  0.96971000  1
  C  C528  1  0.39481000  0.06308000  0.95125000  1
  C  C529  1  0.36940000  0.06092000  0.91871000  1
  C  C530  1  0.35698000  0.02401000  0.90324000  1
  C  C531  1  0.37040000  0.98923000  0.92250000  1
  C  C532  1  0.39577000  0.99136000  0.95502000  1
  C  C533  1  0.33160000  0.02367000  0.86820000  1
  C  C534  1  0.31753000  0.99139000  0.84893000  1
  C  C535  1  0.29246000  0.99457000  0.81317000  1
  C  C536  1  0.06025000  0.00163000  0.46784000  1
  C  C537  1  0.03044000  0.00202000  0.43865000  1
  C  C538  1  0.02835000  0.96970000  0.40904000  1
  C  C539  1  0.06308000  0.95125000  0.39481000  1
  C  C540  1  0.06091000  0.91871000  0.36940000  1
  C  C541  1  0.02401000  0.90324000  0.35698000  1
  C  C542  1  0.98923000  0.92250000  0.37040000  1
  C  C543  1  0.99136000  0.95502000  0.39577000  1
  C  C544  1  0.02367000  0.86820000  0.33161000  1
  C  C545  1  0.99139000  0.84893000  0.31754000  1
  C  C546  1  0.99456000  0.81317000  0.29246000  1
  C  C547  1  0.43976000  0.00164000  0.03215000  1
  C  C548  1  0.46957000  0.00203000  0.06135000  1
  C  C549  1  0.47165000  0.96971000  0.09097000  1
  C  C550  1  0.43691000  0.95126000  0.10519000  1
  C  C551  1  0.43908000  0.91871000  0.13061000  1
  C  C552  1  0.47599000  0.90323000  0.14303000  1
  C  C553  1  0.51076000  0.92250000  0.12960000  1
  C  C554  1  0.50864000  0.95502000  0.10424000  1
  C  C555  1  0.47638000  0.86818000  0.16840000  1
  C  C556  1  0.50870000  0.84896000  0.18244000  1
  C  C557  1  0.50557000  0.81313000  0.20740000  1
  C  C558  1  0.43975000  0.49837000  0.46785000  1
  C  C559  1  0.46956000  0.49797000  0.43865000  1
  C  C560  1  0.47165000  0.53030000  0.40904000  1
  C  C561  1  0.43692000  0.54876000  0.39480000  1
  C  C562  1  0.43908000  0.58131000  0.36938000  1
  C  C563  1  0.47599000  0.59683000  0.35692000  1
  C  C564  1  0.51074000  0.57753000  0.37038000  1
  C  C565  1  0.50863000  0.54500000  0.39576000  1
  C  C566  1  0.47635000  0.63191000  0.33151000  1
  C  C567  1  0.50858000  0.65128000  0.31741000  1
  C  C568  1  0.50556000  0.68732000  0.29257000  1
  C  C569  1  0.06024000  0.49837000  0.03216000  1
  C  C570  1  0.03043000  0.49797000  0.06136000  1
  C  C571  1  0.02834000  0.53030000  0.09097000  1
  C  C572  1  0.06307000  0.54877000  0.10520000  1
  C  C573  1  0.06089000  0.58131000  0.13062000  1
  C  C574  1  0.02397000  0.59680000  0.14306000  1
  C  C575  1  0.98922000  0.57751000  0.12961000  1
  C  C576  1  0.99135000  0.54499000  0.10424000  1
  C  C577  1  0.02361000  0.63188000  0.16847000  1
  C  C578  1  0.99136000  0.65124000  0.18258000  1
  C  C579  1  0.99452000  0.68733000  0.20732000  1
  C  C580  1  0.00164000  0.03215000  0.43976000  1
  C  C581  1  0.00203000  0.06135000  0.46957000  1
  C  C582  1  0.96971000  0.09097000  0.47165000  1
  C  C583  1  0.95125000  0.10519000  0.43692000  1
  C  C584  1  0.91871000  0.13060000  0.43908000  1
  C  C585  1  0.90323000  0.14303000  0.47599000  1
  C  C586  1  0.92250000  0.12960000  0.51076000  1
  C  C587  1  0.95502000  0.10423000  0.50864000  1
  C  C588  1  0.86818000  0.16840000  0.47638000  1
  C  C589  1  0.84896000  0.18244000  0.50870000  1
  C  C590  1  0.81312000  0.20740000  0.50557000  1
  C  C591  1  0.00163000  0.46784000  0.06025000  1
  C  C592  1  0.00202000  0.43865000  0.03044000  1
  C  C593  1  0.96970000  0.40904000  0.02835000  1
  C  C594  1  0.95125000  0.39481000  0.06309000  1
  C  C595  1  0.91871000  0.36940000  0.06092000  1
  C  C596  1  0.90324000  0.35698000  0.02401000  1
  C  C597  1  0.92250000  0.37040000  0.98924000  1
  C  C598  1  0.95502000  0.39577000  0.99136000  1
  C  C599  1  0.86820000  0.33161000  0.02367000  1
  C  C600  1  0.84892000  0.31754000  0.99140000  1
  C  C601  1  0.81317000  0.29246000  0.99457000  1
  C  C602  1  0.49837000  0.03216000  0.06024000  1
  C  C603  1  0.49797000  0.06136000  0.03043000  1
  C  C604  1  0.53030000  0.09097000  0.02834000  1
  C  C605  1  0.54877000  0.10520000  0.06307000  1
  C  C606  1  0.58131000  0.13062000  0.06089000  1
  C  C607  1  0.59680000  0.14306000  0.02398000  1
  C  C608  1  0.57751000  0.12961000  0.98923000  1
  C  C609  1  0.54498000  0.10423000  0.99135000  1
  C  C610  1  0.63188000  0.16847000  0.02361000  1
  C  C611  1  0.65124000  0.18258000  0.99137000  1
  C  C612  1  0.68732000  0.20732000  0.99452000  1
  C  C613  1  0.49837000  0.46785000  0.43976000  1
  C  C614  1  0.49797000  0.43865000  0.46957000  1
  C  C615  1  0.53030000  0.40903000  0.47165000  1
  C  C616  1  0.54876000  0.39480000  0.43692000  1
  C  C617  1  0.58131000  0.36938000  0.43909000  1
  C  C618  1  0.59682000  0.35692000  0.47599000  1
  C  C619  1  0.57753000  0.37038000  0.51074000  1
  C  C620  1  0.54500000  0.39576000  0.50863000  1
  C  C621  1  0.63191000  0.33151000  0.47635000  1
  C  C622  1  0.65128000  0.31741000  0.50858000  1
  C  C623  1  0.68732000  0.29256000  0.50557000  1
  C  C624  1  0.96783000  0.93976000  0.50163000  1
  C  C625  1  0.93864000  0.96957000  0.50203000  1
  C  C626  1  0.90903000  0.97166000  0.46970000  1
  C  C627  1  0.89480000  0.93693000  0.45123000  1
  C  C628  1  0.86938000  0.93911000  0.41869000  1
  C  C629  1  0.85693000  0.97602000  0.40320000  1
  C  C630  1  0.87039000  0.01077000  0.42249000  1
  C  C631  1  0.89576000  0.00865000  0.45501000  1
  C  C632  1  0.83152000  0.97639000  0.36812000  1
  C  C633  1  0.81742000  0.00863000  0.34876000  1
  C  C634  1  0.79268000  0.00547000  0.31267000  1
  C  C635  1  0.53215000  0.56024000  0.50163000  1
  C  C636  1  0.56135000  0.53043000  0.50203000  1
  C  C637  1  0.59096000  0.52835000  0.46970000  1
  C  C638  1  0.60520000  0.56308000  0.45124000  1
  C  C639  1  0.63062000  0.56091000  0.41869000  1
  C  C640  1  0.64307000  0.52401000  0.40317000  1
  C  C641  1  0.62962000  0.48926000  0.42247000  1
  C  C642  1  0.60424000  0.49137000  0.45500000  1
  C  C643  1  0.66849000  0.52365000  0.36809000  1
  C  C644  1  0.68259000  0.49142000  0.34872000  1
  C  C645  1  0.70743000  0.49443000  0.31268000  1
  C  C646  1  0.96784000  0.56024000  0.99836000  1
  C  C647  1  0.93864000  0.53043000  0.99797000  1
  C  C648  1  0.90903000  0.52835000  0.03029000  1
  C  C649  1  0.89481000  0.56308000  0.04875000  1
  C  C650  1  0.86939000  0.56092000  0.08129000  1
  C  C651  1  0.85697000  0.52401000  0.09677000  1
  C  C652  1  0.87040000  0.48924000  0.07750000  1
  C  C653  1  0.89576000  0.49136000  0.04498000  1
  C  C654  1  0.83159000  0.52362000  0.13182000  1
  C  C655  1  0.81756000  0.49130000  0.15104000  1
  C  C656  1  0.79260000  0.49443000  0.18687000  1
  C  C657  1  0.53215000  0.93974000  0.99837000  1
  C  C658  1  0.56135000  0.96956000  0.99798000  1
  C  C659  1  0.59096000  0.97165000  0.03030000  1
  C  C660  1  0.60519000  0.93691000  0.04875000  1
  C  C661  1  0.63060000  0.93908000  0.08129000  1
  C  C662  1  0.64301000  0.97599000  0.09676000  1
  C  C663  1  0.62960000  0.01076000  0.07750000  1
  C  C664  1  0.60423000  0.00864000  0.04498000  1
  C  C665  1  0.66839000  0.97633000  0.13181000  1
  C  C666  1  0.68246000  0.00860000  0.15107000  1
  C  C667  1  0.70754000  0.00543000  0.18683000  1
  C  C668  1  0.93974000  0.99837000  0.53216000  1
  C  C669  1  0.96955000  0.99797000  0.56135000  1
  C  C670  1  0.97165000  0.03029000  0.59097000  1
  C  C671  1  0.93691000  0.04875000  0.60519000  1
  C  C672  1  0.93908000  0.08128000  0.63060000  1
  C  C673  1  0.97598000  0.09676000  0.64302000  1
  C  C674  1  0.01076000  0.07750000  0.62960000  1
  C  C675  1  0.00863000  0.04498000  0.60423000  1
  C  C676  1  0.97633000  0.13180000  0.66840000  1
  C  C677  1  0.00860000  0.15107000  0.68246000  1
  C  C678  1  0.00543000  0.18683000  0.70754000  1
  C  C679  1  0.56024000  0.99836000  0.96785000  1
  C  C680  1  0.53043000  0.99796000  0.93865000  1
  C  C681  1  0.52835000  0.03029000  0.90903000  1
  C  C682  1  0.56308000  0.04874000  0.89481000  1
  C  C683  1  0.56092000  0.08129000  0.86940000  1
  C  C684  1  0.52401000  0.09676000  0.85697000  1
  C  C685  1  0.48924000  0.07750000  0.87040000  1
  C  C686  1  0.49136000  0.04498000  0.89577000  1
  C  C687  1  0.52362000  0.13182000  0.83160000  1
  C  C688  1  0.49130000  0.15103000  0.81756000  1
  C  C689  1  0.49443000  0.18687000  0.79260000  1
  C  C690  1  0.56024000  0.50163000  0.53215000  1
  C  C691  1  0.53043000  0.50202000  0.56135000  1
  C  C692  1  0.52835000  0.46970000  0.59097000  1
  C  C693  1  0.56308000  0.45124000  0.60520000  1
  C  C694  1  0.56091000  0.41869000  0.63062000  1
  C  C695  1  0.52401000  0.40317000  0.64308000  1
  C  C696  1  0.48925000  0.42247000  0.62962000  1
  C  C697  1  0.49137000  0.45500000  0.60424000  1
  C  C698  1  0.52365000  0.36808000  0.66849000  1
  C  C699  1  0.49142000  0.34872000  0.68259000  1
  C  C700  1  0.49443000  0.31267000  0.70743000  1
  C  C701  1  0.93975000  0.50163000  0.96784000  1
  C  C702  1  0.96956000  0.50202000  0.93864000  1
  C  C703  1  0.97165000  0.46970000  0.90903000  1
  C  C704  1  0.93693000  0.45123000  0.89480000  1
  C  C705  1  0.93911000  0.41868000  0.86938000  1
  C  C706  1  0.97602000  0.40319000  0.85694000  1
  C  C707  1  0.01077000  0.42248000  0.87039000  1
  C  C708  1  0.00864000  0.45501000  0.89576000  1
  C  C709  1  0.97639000  0.36811000  0.83153000  1
  C  C710  1  0.00863000  0.34876000  0.81742000  1
  C  C711  1  0.00547000  0.31267000  0.79268000  1
  C  C712  1  0.99836000  0.96784000  0.56024000  1
  C  C713  1  0.99796000  0.93864000  0.53043000  1
  C  C714  1  0.03028000  0.90903000  0.52835000  1
  C  C715  1  0.04874000  0.89481000  0.56308000  1
  C  C716  1  0.08128000  0.86939000  0.56092000  1
  C  C717  1  0.09676000  0.85697000  0.52401000  1
  C  C718  1  0.07750000  0.87040000  0.48924000  1
  C  C719  1  0.04497000  0.89576000  0.49136000  1
  C  C720  1  0.13182000  0.83160000  0.52362000  1
  C  C721  1  0.15103000  0.81756000  0.49130000  1
  C  C722  1  0.18687000  0.79260000  0.49443000  1
  C  C723  1  0.99837000  0.53215000  0.93975000  1
  C  C724  1  0.99797000  0.56135000  0.96956000  1
  C  C725  1  0.03029000  0.59096000  0.97165000  1
  C  C726  1  0.04874000  0.60519000  0.93691000  1
  C  C727  1  0.08128000  0.63060000  0.93908000  1
  C  C728  1  0.09676000  0.64301000  0.97599000  1
  C  C729  1  0.07750000  0.62960000  0.01076000  1
  C  C730  1  0.04498000  0.60423000  0.00864000  1
  C  C731  1  0.13180000  0.66839000  0.97633000  1
  C  C732  1  0.15107000  0.68246000  0.00860000  1
  C  C733  1  0.18683000  0.70754000  0.00543000  1
  C  C734  1  0.50163000  0.96783000  0.93976000  1
  C  C735  1  0.50202000  0.93864000  0.96957000  1
  C  C736  1  0.46970000  0.90903000  0.97166000  1
  C  C737  1  0.45123000  0.89480000  0.93693000  1
  C  C738  1  0.41868000  0.86938000  0.93911000  1
  C  C739  1  0.40319000  0.85693000  0.97603000  1
  C  C740  1  0.42248000  0.87039000  0.01078000  1
  C  C741  1  0.45501000  0.89576000  0.00865000  1
  C  C742  1  0.36811000  0.83152000  0.97639000  1
  C  C743  1  0.34876000  0.81742000  0.00863000  1
  C  C744  1  0.31267000  0.79268000  0.00548000  1
  C  C745  1  0.50163000  0.53215000  0.56025000  1
  C  C746  1  0.50202000  0.56135000  0.53044000  1
  C  C747  1  0.46970000  0.59096000  0.52835000  1
  C  C748  1  0.45124000  0.60520000  0.56308000  1
  C  C749  1  0.41868000  0.63062000  0.56091000  1
  C  C750  1  0.40317000  0.64307000  0.52401000  1
  C  C751  1  0.42247000  0.62962000  0.48926000  1
  C  C752  1  0.45500000  0.60424000  0.49137000  1
  C  C753  1  0.36808000  0.66849000  0.52365000  1
  C  C754  1  0.34872000  0.68259000  0.49142000  1
  C  C755  1  0.31267000  0.70743000  0.49444000  1
  C  C756  1  0.06025000  0.03216000  0.00164000  1
  C  C757  1  0.03044000  0.06136000  0.00203000  1
  C  C758  1  0.02834000  0.09096000  0.96971000  1
  C  C759  1  0.06307000  0.10518000  0.95125000  1
  C  C760  1  0.06091000  0.13060000  0.91872000  1
  C  C761  1  0.02400000  0.14301000  0.90325000  1
  C  C762  1  0.98922000  0.12959000  0.92251000  1
  C  C763  1  0.99135000  0.10422000  0.95502000  1
  C  C764  1  0.02363000  0.16838000  0.86822000  1
  C  C765  1  0.99133000  0.18244000  0.84898000  1
  C  C766  1  0.99458000  0.20738000  0.81316000  1
  C  C767  1  0.43975000  0.46785000  0.00163000  1
  C  C768  1  0.46956000  0.43865000  0.00203000  1
  C  C769  1  0.47164000  0.40904000  0.96971000  1
  C  C770  1  0.43691000  0.39481000  0.95126000  1
  C  C771  1  0.43907000  0.36939000  0.91871000  1
  C  C772  1  0.47597000  0.35697000  0.90322000  1
  C  C773  1  0.51074000  0.37039000  0.92249000  1
  C  C774  1  0.50863000  0.39576000  0.95502000  1
  C  C775  1  0.47633000  0.33158000  0.86817000  1
  C  C776  1  0.50862000  0.31752000  0.84892000  1
  C  C777  1  0.50553000  0.29245000  0.81314000  1
  C  C778  1  0.43976000  0.03216000  0.49837000  1
  C  C779  1  0.46957000  0.06136000  0.49797000  1
  C  C780  1  0.47165000  0.09097000  0.53030000  1
  C  C781  1  0.43692000  0.10520000  0.54876000  1
  C  C782  1  0.43910000  0.13062000  0.58132000  1
  C  C783  1  0.47601000  0.14307000  0.59682000  1
  C  C784  1  0.51076000  0.12961000  0.57753000  1
  C  C785  1  0.50864000  0.10424000  0.54499000  1
  C  C786  1  0.47639000  0.16849000  0.63192000  1
  C  C787  1  0.50866000  0.18258000  0.65126000  1
  C  C788  1  0.50559000  0.20734000  0.68735000  1
  C  C789  1  0.06025000  0.46784000  0.49837000  1
  C  C790  1  0.03044000  0.43864000  0.49798000  1
  C  C791  1  0.02835000  0.40903000  0.53030000  1
  C  C792  1  0.06308000  0.39480000  0.54877000  1
  C  C793  1  0.06090000  0.36938000  0.58132000  1
  C  C794  1  0.02399000  0.35694000  0.59681000  1
  C  C795  1  0.98924000  0.37039000  0.57752000  1
  C  C796  1  0.99136000  0.39576000  0.54500000  1
  C  C797  1  0.02365000  0.33152000  0.63190000  1
  C  C798  1  0.99143000  0.31740000  0.65129000  1
  C  C799  1  0.99453000  0.29256000  0.68733000  1
  C  C800  1  0.00164000  0.06025000  0.03216000  1
  C  C801  1  0.00203000  0.03044000  0.06136000  1
  C  C802  1  0.96971000  0.02835000  0.09096000  1
  C  C803  1  0.95125000  0.06308000  0.10519000  1
  C  C804  1  0.91872000  0.06091000  0.13060000  1
  C  C805  1  0.90325000  0.02400000  0.14302000  1
  C  C806  1  0.92250000  0.98922000  0.12960000  1
  C  C807  1  0.95502000  0.99135000  0.10423000  1
  C  C808  1  0.86821000  0.02364000  0.16838000  1
  C  C809  1  0.84898000  0.99134000  0.18244000  1
  C  C810  1  0.81315000  0.99458000  0.20738000  1
  C  C811  1  0.00163000  0.43975000  0.46785000  1
  C  C812  1  0.00203000  0.46956000  0.43865000  1
  C  C813  1  0.96971000  0.47164000  0.40904000  1
  C  C814  1  0.95125000  0.43691000  0.39481000  1
  C  C815  1  0.91871000  0.43907000  0.36940000  1
  C  C816  1  0.90322000  0.47597000  0.35697000  1
  C  C817  1  0.92249000  0.51075000  0.37039000  1
  C  C818  1  0.95501000  0.50863000  0.39577000  1
  C  C819  1  0.86817000  0.47634000  0.33158000  1
  C  C820  1  0.84891000  0.50862000  0.31753000  1
  C  C821  1  0.81314000  0.50553000  0.29246000  1
  C  C822  1  0.49836000  0.43976000  0.03216000  1
  C  C823  1  0.49797000  0.46957000  0.06136000  1
  C  C824  1  0.53030000  0.47166000  0.09097000  1
  C  C825  1  0.54876000  0.43693000  0.10520000  1
  C  C826  1  0.58131000  0.43910000  0.13062000  1
  C  C827  1  0.59682000  0.47601000  0.14308000  1
  C  C828  1  0.57752000  0.51076000  0.12961000  1
  C  C829  1  0.54499000  0.50864000  0.10424000  1
  C  C830  1  0.63191000  0.47639000  0.16849000  1
  C  C831  1  0.65126000  0.50866000  0.18259000  1
  C  C832  1  0.68735000  0.50559000  0.20734000  1
  C  C833  1  0.49837000  0.06025000  0.46784000  1
  C  C834  1  0.49798000  0.03044000  0.43864000  1
  C  C835  1  0.53030000  0.02835000  0.40903000  1
  C  C836  1  0.54877000  0.06308000  0.39480000  1
  C  C837  1  0.58131000  0.06090000  0.36938000  1
  C  C838  1  0.59681000  0.02399000  0.35694000  1
  C  C839  1  0.57752000  0.98924000  0.37039000  1
  C  C840  1  0.54499000  0.99137000  0.39576000  1
  C  C841  1  0.63190000  0.02365000  0.33152000  1
  C  C842  1  0.65128000  0.99143000  0.31741000  1
  C  C843  1  0.68732000  0.99453000  0.29256000  1
  C  C844  1  0.03216000  0.00164000  0.06025000  1
  C  C845  1  0.06136000  0.00203000  0.03044000  1
  C  C846  1  0.09096000  0.96971000  0.02835000  1
  C  C847  1  0.10518000  0.95125000  0.06308000  1
  C  C848  1  0.13060000  0.91872000  0.06091000  1
  C  C849  1  0.14301000  0.90325000  0.02400000  1
  C  C850  1  0.12959000  0.92250000  0.98922000  1
  C  C851  1  0.10422000  0.95502000  0.99135000  1
  C  C852  1  0.16838000  0.86822000  0.02364000  1
  C  C853  1  0.18244000  0.84898000  0.99134000  1
  C  C854  1  0.20737000  0.81315000  0.99458000  1
  C  C855  1  0.46785000  0.00163000  0.43975000  1
  C  C856  1  0.43865000  0.00203000  0.46956000  1
  C  C857  1  0.40903000  0.96971000  0.47164000  1
  C  C858  1  0.39481000  0.95125000  0.43691000  1
  C  C859  1  0.36939000  0.91871000  0.43907000  1
  C  C860  1  0.35697000  0.90322000  0.47598000  1
  C  C861  1  0.37039000  0.92249000  0.51075000  1
  C  C862  1  0.39576000  0.95501000  0.50863000  1
  C  C863  1  0.33158000  0.86817000  0.47634000  1
  C  C864  1  0.31752000  0.84891000  0.50862000  1
  C  C865  1  0.29245000  0.81314000  0.50553000  1
  C  C866  1  0.03216000  0.49836000  0.43976000  1
  C  C867  1  0.06136000  0.49797000  0.46957000  1
  C  C868  1  0.09097000  0.53030000  0.47166000  1
  C  C869  1  0.10520000  0.54876000  0.43693000  1
  C  C870  1  0.13062000  0.58132000  0.43910000  1
  C  C871  1  0.14307000  0.59682000  0.47601000  1
  C  C872  1  0.12961000  0.57752000  0.51076000  1
  C  C873  1  0.10424000  0.54499000  0.50864000  1
  C  C874  1  0.16849000  0.63191000  0.47640000  1
  C  C875  1  0.18258000  0.65126000  0.50866000  1
  C  C876  1  0.20733000  0.68735000  0.50559000  1
  C  C877  1  0.46784000  0.49837000  0.06025000  1
  C  C878  1  0.43864000  0.49798000  0.03044000  1
  C  C879  1  0.40903000  0.53030000  0.02835000  1
  C  C880  1  0.39480000  0.54877000  0.06308000  1
  C  C881  1  0.36938000  0.58132000  0.06090000  1
  C  C882  1  0.35694000  0.59681000  0.02399000  1
  C  C883  1  0.37038000  0.57752000  0.98924000  1
  C  C884  1  0.39576000  0.54499000  0.99137000  1
  C  C885  1  0.33152000  0.63190000  0.02365000  1
  C  C886  1  0.31740000  0.65128000  0.99143000  1
  C  C887  1  0.29256000  0.68732000  0.99453000  1
  O  O888  1  0.03889000  0.78189000  0.20203000  1
  O  O889  1  0.97094000  0.78362000  0.20024000  1
  O  O890  1  0.46079000  0.71768000  0.20214000  1
  O  O891  1  0.52887000  0.71722000  0.20008000  1
  O  O892  1  0.46084000  0.78202000  0.29741000  1
  O  O893  1  0.52887000  0.78378000  0.29907000  1
  O  O894  1  0.03902000  0.71760000  0.29722000  1
  O  O895  1  0.97115000  0.71697000  0.29922000  1
  O  O896  1  0.20203000  0.03890000  0.78189000  1
  O  O897  1  0.20024000  0.97094000  0.78362000  1
  O  O898  1  0.20214000  0.46079000  0.71768000  1
  O  O899  1  0.20008000  0.52887000  0.71722000  1
  O  O900  1  0.29741000  0.46084000  0.78202000  1
  O  O901  1  0.29906000  0.52887000  0.78378000  1
  O  O902  1  0.29722000  0.03903000  0.71760000  1
  O  O903  1  0.29922000  0.97115000  0.71697000  1
  O  O904  1  0.78189000  0.20203000  0.03890000  1
  O  O905  1  0.78362000  0.20024000  0.97094000  1
  O  O906  1  0.71767000  0.20214000  0.46079000  1
  O  O907  1  0.71721000  0.20008000  0.52888000  1
  O  O908  1  0.78202000  0.29741000  0.46084000  1
  O  O909  1  0.78377000  0.29907000  0.52887000  1
  O  O910  1  0.71760000  0.29722000  0.03903000  1
  O  O911  1  0.71697000  0.29922000  0.97116000  1
  O  O912  1  0.21798000  0.96107000  0.70267000  1
  O  O913  1  0.21623000  0.02895000  0.70090000  1
  O  O914  1  0.28248000  0.53923000  0.70271000  1
  O  O915  1  0.28302000  0.47121000  0.70077000  1
  O  O916  1  0.21809000  0.53915000  0.79800000  1
  O  O917  1  0.21640000  0.47106000  0.79973000  1
  O  O918  1  0.28221000  0.96099000  0.79786000  1
  O  O919  1  0.28280000  0.02893000  0.79993000  1
  O  O920  1  0.96099000  0.79786000  0.28222000  1
  O  O921  1  0.02893000  0.79993000  0.28280000  1
  O  O922  1  0.53915000  0.79799000  0.21809000  1
  O  O923  1  0.47106000  0.79973000  0.21640000  1
  O  O924  1  0.53923000  0.70271000  0.28248000  1
  O  O925  1  0.47121000  0.70077000  0.28302000  1
  O  O926  1  0.96107000  0.70267000  0.21798000  1
  O  O927  1  0.02895000  0.70090000  0.21623000  1
  O  O928  1  0.79799000  0.21809000  0.53916000  1
  O  O929  1  0.79973000  0.21640000  0.47106000  1
  O  O930  1  0.79786000  0.28222000  0.96099000  1
  O  O931  1  0.79993000  0.28280000  0.02893000  1
  O  O932  1  0.70267000  0.21798000  0.96107000  1
  O  O933  1  0.70090000  0.21623000  0.02895000  1
  O  O934  1  0.70271000  0.28248000  0.53923000  1
  O  O935  1  0.70077000  0.28302000  0.47122000  1
  O  O936  1  0.78202000  0.03893000  0.29733000  1
  O  O937  1  0.78377000  0.97105000  0.29910000  1
  O  O938  1  0.71752000  0.46077000  0.29729000  1
  O  O939  1  0.71698000  0.52878000  0.29923000  1
  O  O940  1  0.78191000  0.46085000  0.20201000  1
  O  O941  1  0.78360000  0.52894000  0.20027000  1
  O  O942  1  0.71778000  0.03901000  0.20214000  1
  O  O943  1  0.71719000  0.97107000  0.20008000  1
  O  O944  1  0.03901000  0.20214000  0.71778000  1
  O  O945  1  0.97107000  0.20007000  0.71720000  1
  O  O946  1  0.46084000  0.20200000  0.78191000  1
  O  O947  1  0.52893000  0.20027000  0.78360000  1
  O  O948  1  0.46077000  0.29729000  0.71752000  1
  O  O949  1  0.52878000  0.29922000  0.71698000  1
  O  O950  1  0.03893000  0.29733000  0.78202000  1
  O  O951  1  0.97105000  0.29910000  0.78377000  1
  O  O952  1  0.20200000  0.78191000  0.46085000  1
  O  O953  1  0.20026000  0.78360000  0.52894000  1
  O  O954  1  0.20214000  0.71778000  0.03901000  1
  O  O955  1  0.20007000  0.71719000  0.97107000  1
  O  O956  1  0.29733000  0.78202000  0.03893000  1
  O  O957  1  0.29909000  0.78377000  0.97105000  1
  O  O958  1  0.29728000  0.71752000  0.46077000  1
  O  O959  1  0.29922000  0.71698000  0.52878000  1
  O  O960  1  0.96110000  0.21811000  0.79797000  1
  O  O961  1  0.02906000  0.21638000  0.79976000  1
  O  O962  1  0.53921000  0.28232000  0.79786000  1
  O  O963  1  0.47112000  0.28278000  0.79992000  1
  O  O964  1  0.53916000  0.21798000  0.70259000  1
  O  O965  1  0.47113000  0.21622000  0.70093000  1
  O  O966  1  0.96097000  0.28240000  0.70278000  1
  O  O967  1  0.02884000  0.28303000  0.70078000  1
  O  O968  1  0.79797000  0.96110000  0.21811000  1
  O  O969  1  0.79976000  0.02906000  0.21638000  1
  O  O970  1  0.79785000  0.53921000  0.28233000  1
  O  O971  1  0.79992000  0.47112000  0.28278000  1
  O  O972  1  0.70259000  0.53916000  0.21798000  1
  O  O973  1  0.70093000  0.47113000  0.21622000  1
  O  O974  1  0.70278000  0.96097000  0.28240000  1
  O  O975  1  0.70078000  0.02884000  0.28303000  1
  O  O976  1  0.21810000  0.79797000  0.96110000  1
  O  O977  1  0.21638000  0.79976000  0.02906000  1
  O  O978  1  0.28232000  0.79785000  0.53921000  1
  O  O979  1  0.28278000  0.79992000  0.47112000  1
  O  O980  1  0.21798000  0.70259000  0.53916000  1
  O  O981  1  0.21622000  0.70093000  0.47113000  1
  O  O982  1  0.28240000  0.70278000  0.96097000  1
  O  O983  1  0.28303000  0.70078000  0.02885000  1
