# generated using pymatgen
data_H12C22N3O4
_symmetry_space_group_name_H-M   'P 1'
_cell_length_a   38.43650000
_cell_length_b   38.43650000
_cell_length_c   47.78640000
_cell_angle_alpha   90.00000000
_cell_angle_beta   90.00000000
_cell_angle_gamma   90.00000000
_symmetry_Int_Tables_number   1
_chemical_formula_structural   H12C22N3O4
_chemical_formula_sum   'H384 C704 N96 O128'
_cell_volume   70597.93248391
_cell_formula_units_Z   32
loop_
 _symmetry_equiv_pos_site_id
 _symmetry_equiv_pos_as_xyz
  1  'x, y, z'
loop_
 _atom_site_type_symbol
 _atom_site_label
 _atom_site_symmetry_multiplicity
 _atom_site_fract_x
 _atom_site_fract_y
 _atom_site_fract_z
 _atom_site_occupancy
  H  9  1  0.08209700  0.05549000  0.12904900  1
  H  17  1  0.09437000  0.29209500  0.12552800  1
  H  19  1  0.11991300  0.20494500  0.19256800  1
  H  20  1  0.12212500  0.14364900  0.19218800  1
  H  21  1  0.06632500  0.20440400  0.05964700  1
  H  22  1  0.05850800  0.14342700  0.06178200  1
  H  24  1  0.02790700  0.08926100  0.08545400  1
  H  26  1  0.07645300  0.28785400  0.07582300  1
  H  28  1  0.10867500  0.29004800  0.17508300  1
  H  30  1  0.13110200  0.06314200  0.16685800  1
  H  39  1  0.57947100  0.29531600  0.62710700  1
  H  47  1  0.57658300  0.05942600  0.64466800  1
  H  49  1  0.57775900  0.15450200  0.70798700  1
  H  50  1  0.57157500  0.21514900  0.70345700  1
  H  51  1  0.57315900  0.13965500  0.56871400  1
  H  52  1  0.58076900  0.20007500  0.56435000  1
  H  54  1  0.61923300  0.25188600  0.57412700  1
  H  56  1  0.53628000  0.06957900  0.60071400  1
  H  58  1  0.61491900  0.10075200  0.69924200  1
  H  60  1  0.53679500  0.28639700  0.66931700  1
  H  69  1  0.07954800  0.53894700  0.61782000  1
  H  77  1  0.08393000  0.77583100  0.61449600  1
  H  79  1  0.06547000  0.68732400  0.54715100  1
  H  80  1  0.05994900  0.62619500  0.54880400  1
  H  81  1  0.10635500  0.68924400  0.68307400  1
  H  82  1  0.10965200  0.62800800  0.68313300  1
  H  84  1  0.12411800  0.54765700  0.65828300  1
  H  86  1  0.06382900  0.74167900  0.67504900  1
  H  88  1  0.06579800  0.77038300  0.56483600  1
  H  90  1  0.03142000  0.55658100  0.57809700  1
  H  99  1  0.57441000  0.79061400  0.12705500  1
  H  107  1  0.57683800  0.55365200  0.13071600  1
  H  109  1  0.59621800  0.63988000  0.06104300  1
  H  110  1  0.60043500  0.70106400  0.06091300  1
  H  111  1  0.56076500  0.64254400  0.19793100  1
  H  112  1  0.55538900  0.70376400  0.19625800  1
  H  114  1  0.52574100  0.77135100  0.16854300  1
  H  116  1  0.56435000  0.55931800  0.18169500  1
  H  118  1  0.55606600  0.58828800  0.06855100  1
  H  120  1  0.61889400  0.78056900  0.08681400  1
  H  129  1  0.71698600  0.34946000  0.33228500  1
  H  137  1  0.93456600  0.44292100  0.34294200  1
  H  139  1  0.85132200  0.42675600  0.27067300  1
  H  140  1  0.79629100  0.40047400  0.26752800  1
  H  141  1  0.85655700  0.38939300  0.40726600  1
  H  142  1  0.79883800  0.36889500  0.40510000  1
  H  144  1  0.73047100  0.32978300  0.38247900  1
  H  146  1  0.93736000  0.40958300  0.38957700  1
  H  148  1  0.89327700  0.47575400  0.29319400  1
  H  150  1  0.74999900  0.33531500  0.28152100  1
  H  159  1  0.94187900  0.91175200  0.87150900  1
  H  167  1  0.71326000  0.86761100  0.83612800  1
  H  169  1  0.81587100  0.87616300  0.78120900  1
  H  170  1  0.87528400  0.88510300  0.79077400  1
  H  171  1  0.77934100  0.89953900  0.91685600  1
  H  172  1  0.83806400  0.91295400  0.92556600  1
  H  174  1  0.92295700  0.90741500  0.92193300  1
  H  176  1  0.71892700  0.85083600  0.88854700  1
  H  178  1  0.76427500  0.83976800  0.78772800  1
  H  180  1  0.93066600  0.86412200  0.81753300  1
  H  189  1  0.22277500  0.45473500  0.91350800  1
  H  197  1  0.44450000  0.45713400  0.84876800  1
  H  199  1  0.39202900  0.44547800  0.93849400  1
  H  200  1  0.33478400  0.44488500  0.95522700  1
  H  201  1  0.33259800  0.44732300  0.80700900  1
  H  202  1  0.27544400  0.44667200  0.82370200  1
  H  204  1  0.21753300  0.47840800  0.86130500  1
  H  206  1  0.38276900  0.48442300  0.80553600  1
  H  208  1  0.45106900  0.47785100  0.90097300  1
  H  210  1  0.28364200  0.48151400  0.95733600  1
  H  219  1  0.44788700  0.89114600  0.40478600  1
  H  227  1  0.22937500  0.97941400  0.42600200  1
  H  229  1  0.31612700  0.93503200  0.48726000  1
  H  230  1  0.37182200  0.91076600  0.48170100  1
  H  231  1  0.30938600  0.96898600  0.35016800  1
  H  232  1  0.36688900  0.94869800  0.34517900  1
  H  234  1  0.44773400  0.92598000  0.35806000  1
  H  236  1  0.24168800  0.00608600  0.37742300  1
  H  238  1  0.27145300  0.98637400  0.48189800  1
  H  240  1  0.41448700  0.85654600  0.45091900  1
  H  247  1  0.97455100  0.06355000  0.00500500  1
  H  248  1  0.01326000  0.08874700  0.03777100  1
  H  255  1  0.00969700  0.96921300  0.96406000  1
  H  256  1  0.97093000  0.94510300  0.93055700  1
  H  257  1  0.88672300  0.99684500  0.96921000  1
  H  258  1  0.92553600  0.02063500  0.00310600  1
  H  259  1  0.02402400  0.96654300  0.01501000  1
  H  273  1  0.64536100  0.27458800  0.48579300  1
  H  274  1  0.61323300  0.25424400  0.52479100  1
  H  281  1  0.63966600  0.30652200  0.44067300  1
  H  282  1  0.67537700  0.32543600  0.40304100  1
  H  283  1  0.72428400  0.39788800  0.45663800  1
  H  284  1  0.68881200  0.37871300  0.49432400  1
  H  285  1  0.62759700  0.37814900  0.51092100  1
  H  299  1  0.18254200  0.51711300  0.73600800  1
  H  300  1  0.15657700  0.55106800  0.70028900  1
  H  307  1  0.12496500  0.50443000  0.80908100  1
  H  308  1  0.15629500  0.47646200  0.84594100  1
  H  309  1  0.21568300  0.42130600  0.78619600  1
  H  310  1  0.18431900  0.44920400  0.74940700  1
  H  311  1  0.08345600  0.48745900  0.76504500  1
  H  325  1  0.46892200  0.78963800  0.24945200  1
  H  326  1  0.50380000  0.76028400  0.21607200  1
  H  333  1  0.52194700  0.85733500  0.30705800  1
  H  334  1  0.48534700  0.88219900  0.34178500  1
  H  335  1  0.39856700  0.87021300  0.28833100  1
  H  336  1  0.43530000  0.84554100  0.25347400  1
  H  337  1  0.54592500  0.86701800  0.25801300  1
  H  351  1  0.12487200  0.90329900  0.48769700  1
  H  352  1  0.16021100  0.95322000  0.48060300  1
  H  359  1  0.12279700  0.86724500  0.53245400  1
  H  360  1  0.09923700  0.81941500  0.55700300  1
  H  361  1  0.14289600  0.75062600  0.49767500  1
  H  362  1  0.16673500  0.79892900  0.47299000  1
  H  363  1  0.21429700  0.84013000  0.48909300  1
  H  377  1  0.64667000  0.45457100  0.28585900  1
  H  378  1  0.67980300  0.40286000  0.29437800  1
  H  385  1  0.62738400  0.46688200  0.21552300  1
  H  386  1  0.59842900  0.51217000  0.19121300  1
  H  387  1  0.65002100  0.58666700  0.24137200  1
  H  388  1  0.68001300  0.54090800  0.26504400  1
  H  389  1  0.71402000  0.48119200  0.21972300  1
  H  403  1  0.52748600  0.41766100  0.76356000  1
  H  404  1  0.49050300  0.46259200  0.77930300  1
  H  411  1  0.46951500  0.32637800  0.73681400  1
  H  412  1  0.50154700  0.28834100  0.70792700  1
  H  413  1  0.59545600  0.32879200  0.74036300  1
  H  414  1  0.56307200  0.36554600  0.77083600  1
  H  415  1  0.45073400  0.34332000  0.78327400  1
  H  429  1  0.96684800  0.54100200  0.50069800  1
  H  430  1  0.00405100  0.56985000  0.53265700  1
  H  437  1  0.01588100  0.47785900  0.43736900  1
  H  438  1  0.97637000  0.45402000  0.40422800  1
  H  439  1  0.89498900  0.46142700  0.46337800  1
  H  440  1  0.93464900  0.48481600  0.49669300  1
  H  441  1  0.04538400  0.46729900  0.48401000  1
  H  455  1  0.67874100  0.81175600  0.01011300  1
  H  456  1  0.65140300  0.77732500  0.04489700  1
  H  463  1  0.62280500  0.82680100  0.93746900  1
  H  464  1  0.65515400  0.85429800  0.90093100  1
  H  465  1  0.71423100  0.90891800  0.96117200  1
  H  466  1  0.68199800  0.88118700  0.99776600  1
  H  467  1  0.58088400  0.84578800  0.98150000  1
  H  481  1  0.20131900  0.04233500  0.24142400  1
  H  482  1  0.16956700  0.07051200  0.20545000  1
  H  489  1  0.15169100  0.03580900  0.32040900  1
  H  490  1  0.18493600  0.00996100  0.35706200  1
  H  491  1  0.24221000  0.95266100  0.29729600  1
  H  492  1  0.20868800  0.97827700  0.26068100  1
  H  493  1  0.10772300  0.01473800  0.28145000  1
  H  507  1  0.13849600  0.40730100  0.99033100  1
  H  508  1  0.17410500  0.45432100  0.97551700  1
  H  515  1  0.13992200  0.37607300  0.03619400  1
  H  516  1  0.11419900  0.33257800  0.06430300  1
  H  517  1  0.14761400  0.25563100  0.00721000  1
  H  518  1  0.17352100  0.29957500  0.97884500  1
  H  519  1  0.22469600  0.33976100  0.98600600  1
  H  533  1  0.62245600  0.92244000  0.75819200  1
  H  534  1  0.65654100  0.87350900  0.77016800  1
  H  541  1  0.68389300  0.00739200  0.72421800  1
  H  542  1  0.65054100  0.04915300  0.69973800  1
  H  543  1  0.56107200  0.01910800  0.74492900  1
  H  544  1  0.59486800  0.97772300  0.77023300  1
  H  545  1  0.70988300  0.98746900  0.76778100  1
  H  559  1  0.47366500  0.03906100  0.52816400  1
  H  560  1  0.50823100  0.07705100  0.55582500  1
  H  567  1  0.51800600  0.97606800  0.46570700  1
  H  568  1  0.48571100  0.92721900  0.44829500  1
  H  569  1  0.43070800  0.92173400  0.52466600  1
  H  570  1  0.46238400  0.97056800  0.54183100  1
  H  571  1  0.56131100  0.97623000  0.51253900  1
  H  585  1  0.03967000  0.79202400  0.75393300  1
  H  586  1  0.07062600  0.75915400  0.72067500  1
  H  593  1  0.04075600  0.83170800  0.79195100  1
  H  594  1  0.00019900  0.85925700  0.82233200  1
  H  595  1  0.96920200  0.92607100  0.75681700  1
  H  596  1  0.00807400  0.89713800  0.72580600  1
  H  597  1  0.06641100  0.88441300  0.71158000  1
  H  611  1  0.03069800  0.37974400  0.28933500  1
  H  612  1  0.99484200  0.42559900  0.30742400  1
  H  619  1  0.02902900  0.37341600  0.20552700  1
  H  620  1  0.06014700  0.33001700  0.18024700  1
  H  621  1  0.04814500  0.26044300  0.24802200  1
  H  622  1  0.01694000  0.30418800  0.27343100  1
  H  623  1  0.95899900  0.36348800  0.22392100  1
  H  637  1  0.54171500  0.54066900  0.98569400  1
  H  638  1  0.56949800  0.57123600  0.02236700  1
  H  645  1  0.54909600  0.49747800  0.94836500  1
  H  646  1  0.51268000  0.47304100  0.91318200  1
  H  647  1  0.45700600  0.41792100  0.97514700  1
  H  648  1  0.49270900  0.44302200  0.01038000  1
  H  649  1  0.55125800  0.44707300  0.03098000  1
  H  665  1  0.08209700  0.52379500  0.21275500  1
  H  673  1  0.09437000  0.76040000  0.20923400  1
  H  675  1  0.11991300  0.67325000  0.27627400  1
  H  676  1  0.12212500  0.61195400  0.27589400  1
  H  677  1  0.06632500  0.67270900  0.14335300  1
  H  678  1  0.05850800  0.61173200  0.14548800  1
  H  680  1  0.02790700  0.55756600  0.16916000  1
  H  682  1  0.07645300  0.75615900  0.15952900  1
  H  684  1  0.10867500  0.75835300  0.25878900  1
  H  686  1  0.13110200  0.53144700  0.25056400  1
  H  695  1  0.57947100  0.76362100  0.71081300  1
  H  703  1  0.57658300  0.52773100  0.72837400  1
  H  705  1  0.57775900  0.62280700  0.79169300  1
  H  706  1  0.57157500  0.68345400  0.78716300  1
  H  707  1  0.57315900  0.60796000  0.65242000  1
  H  708  1  0.58076900  0.66838000  0.64805600  1
  H  710  1  0.61923300  0.72019100  0.65783300  1
  H  712  1  0.53628000  0.53788400  0.68442000  1
  H  714  1  0.61491900  0.56905700  0.78294800  1
  H  716  1  0.53679500  0.75470200  0.75302300  1
  H  725  1  0.07954800  0.00725187  0.70152600  1
  H  733  1  0.08393000  0.24413600  0.69820200  1
  H  735  1  0.06547000  0.15562900  0.63085700  1
  H  736  1  0.05994900  0.09449990  0.63251000  1
  H  737  1  0.10635500  0.15754900  0.76678000  1
  H  738  1  0.10965200  0.09631290  0.76683900  1
  H  740  1  0.12411800  0.01596190  0.74198900  1
  H  742  1  0.06382900  0.20998400  0.75875500  1
  H  744  1  0.06579800  0.23868800  0.64854200  1
  H  746  1  0.03142000  0.02488590  0.66180300  1
  H  755  1  0.57441000  0.25891900  0.21076100  1
  H  763  1  0.57683800  0.02195690  0.21442200  1
  H  765  1  0.59621800  0.10818500  0.14474900  1
  H  766  1  0.60043500  0.16936900  0.14461900  1
  H  767  1  0.56076500  0.11084900  0.28163700  1
  H  768  1  0.55538900  0.17206900  0.27996400  1
  H  770  1  0.52574100  0.23965600  0.25224900  1
  H  772  1  0.56435000  0.02762290  0.26540100  1
  H  774  1  0.55606600  0.05659290  0.15225700  1
  H  776  1  0.61889400  0.24887400  0.17052000  1
  H  785  1  0.71698600  0.81776500  0.41599100  1
  H  793  1  0.93456600  0.91122600  0.42664800  1
  H  795  1  0.85132200  0.89506100  0.35437900  1
  H  796  1  0.79629100  0.86877900  0.35123400  1
  H  797  1  0.85655700  0.85769800  0.49097200  1
  H  798  1  0.79883800  0.83720000  0.48880600  1
  H  800  1  0.73047100  0.79808800  0.46618500  1
  H  802  1  0.93736000  0.87788800  0.47328300  1
  H  804  1  0.89327700  0.94405900  0.37690000  1
  H  806  1  0.74999900  0.80362000  0.36522700  1
  H  815  1  0.94187900  0.38005700  0.95521500  1
  H  823  1  0.71326000  0.33591600  0.91983400  1
  H  825  1  0.81587100  0.34446800  0.86491500  1
  H  826  1  0.87528400  0.35340800  0.87448000  1
  H  827  1  0.77934100  0.36784400  0.00056182  1
  H  828  1  0.83806400  0.38125900  0.00927182  1
  H  830  1  0.92295700  0.37572000  0.00563882  1
  H  832  1  0.71892700  0.31914100  0.97225300  1
  H  834  1  0.76427500  0.30807300  0.87143400  1
  H  836  1  0.93066600  0.33242700  0.90123900  1
  H  845  1  0.22277500  0.92304000  0.99721400  1
  H  853  1  0.44450000  0.92543900  0.93247400  1
  H  855  1  0.39202900  0.91378300  0.02219980  1
  H  856  1  0.33478400  0.91319000  0.03893280  1
  H  857  1  0.33259800  0.91562800  0.89071500  1
  H  858  1  0.27544400  0.91497700  0.90740800  1
  H  860  1  0.21753300  0.94671300  0.94501100  1
  H  862  1  0.38276900  0.95272800  0.88924200  1
  H  864  1  0.45106900  0.94615600  0.98467900  1
  H  866  1  0.28364200  0.94981900  0.04104180  1
  H  875  1  0.44788700  0.35945100  0.48849200  1
  H  883  1  0.22937500  0.44771900  0.50970800  1
  H  885  1  0.31612700  0.40333700  0.57096600  1
  H  886  1  0.37182200  0.37907100  0.56540700  1
  H  887  1  0.30938600  0.43729100  0.43387400  1
  H  888  1  0.36688900  0.41700300  0.42888500  1
  H  890  1  0.44773400  0.39428500  0.44176600  1
  H  892  1  0.24168800  0.47439100  0.46112900  1
  H  894  1  0.27145300  0.45467900  0.56560400  1
  H  896  1  0.41448700  0.32485100  0.53462500  1
  H  903  1  0.97455100  0.53185500  0.08871080  1
  H  904  1  0.01326000  0.55705200  0.12147700  1
  H  911  1  0.00969700  0.43751800  0.04776580  1
  H  912  1  0.97093000  0.41340800  0.01426280  1
  H  913  1  0.88672300  0.46515000  0.05291580  1
  H  914  1  0.92553600  0.48894000  0.08681180  1
  H  915  1  0.02402400  0.43484800  0.09871580  1
  H  929  1  0.64536100  0.74289300  0.56949900  1
  H  930  1  0.61323300  0.72254900  0.60849700  1
  H  937  1  0.63966600  0.77482700  0.52437900  1
  H  938  1  0.67537700  0.79374100  0.48674700  1
  H  939  1  0.72428400  0.86619300  0.54034400  1
  H  940  1  0.68881200  0.84701800  0.57803000  1
  H  941  1  0.62759700  0.84645400  0.59462700  1
  H  955  1  0.18254200  0.98541800  0.81971400  1
  H  956  1  0.15657700  0.01937290  0.78399500  1
  H  963  1  0.12496500  0.97273500  0.89278700  1
  H  964  1  0.15629500  0.94476700  0.92964700  1
  H  965  1  0.21568300  0.88961100  0.86990200  1
  H  966  1  0.18431900  0.91750900  0.83311300  1
  H  967  1  0.08345600  0.95576400  0.84875100  1
  H  981  1  0.46892200  0.25794300  0.33315800  1
  H  982  1  0.50380000  0.22858900  0.29977800  1
  H  989  1  0.52194700  0.32564000  0.39076400  1
  H  990  1  0.48534700  0.35050400  0.42549100  1
  H  991  1  0.39856700  0.33851800  0.37203700  1
  H  992  1  0.43530000  0.31384600  0.33718000  1
  H  993  1  0.54592500  0.33532300  0.34171900  1
  H  1007  1  0.12487200  0.37160400  0.57140300  1
  H  1008  1  0.16021100  0.42152500  0.56430900  1
  H  1015  1  0.12279700  0.33555000  0.61616000  1
  H  1016  1  0.09923700  0.28772000  0.64070900  1
  H  1017  1  0.14289600  0.21893100  0.58138100  1
  H  1018  1  0.16673500  0.26723400  0.55669600  1
  H  1019  1  0.21429700  0.30843500  0.57279900  1
  H  1033  1  0.64667000  0.92287600  0.36956500  1
  H  1034  1  0.67980300  0.87116500  0.37808400  1
  H  1041  1  0.62738400  0.93518700  0.29922900  1
  H  1042  1  0.59842900  0.98047500  0.27491900  1
  H  1043  1  0.65002100  0.05497190  0.32507800  1
  H  1044  1  0.68001300  0.00921287  0.34875000  1
  H  1045  1  0.71402000  0.94949700  0.30342900  1
  H  1059  1  0.52748600  0.88596600  0.84726600  1
  H  1060  1  0.49050300  0.93089700  0.86300900  1
  H  1067  1  0.46951500  0.79468300  0.82052000  1
  H  1068  1  0.50154700  0.75664600  0.79163300  1
  H  1069  1  0.59545600  0.79709700  0.82406900  1
  H  1070  1  0.56307200  0.83385100  0.85454200  1
  H  1071  1  0.45073400  0.81162500  0.86698000  1
  H  1085  1  0.96684800  0.00930687  0.58440400  1
  H  1086  1  0.00405100  0.03815490  0.61636300  1
  H  1093  1  0.01588100  0.94616400  0.52107500  1
  H  1094  1  0.97637000  0.92232500  0.48793400  1
  H  1095  1  0.89498900  0.92973200  0.54708400  1
  H  1096  1  0.93464900  0.95312100  0.58039900  1
  H  1097  1  0.04538400  0.93560400  0.56771600  1
  H  1111  1  0.67874100  0.28006100  0.09381880  1
  H  1112  1  0.65140300  0.24563000  0.12860300  1
  H  1119  1  0.62280500  0.29510600  0.02117480  1
  H  1120  1  0.65515400  0.32260300  0.98463700  1
  H  1121  1  0.71423100  0.37722300  0.04487780  1
  H  1122  1  0.68199800  0.34949200  0.08147180  1
  H  1123  1  0.58088400  0.31409300  0.06520580  1
  H  1137  1  0.20131900  0.51064000  0.32513000  1
  H  1138  1  0.16956700  0.53881700  0.28915600  1
  H  1145  1  0.15169100  0.50411400  0.40411500  1
  H  1146  1  0.18493600  0.47826600  0.44076800  1
  H  1147  1  0.24221000  0.42096600  0.38100200  1
  H  1148  1  0.20868800  0.44658200  0.34438700  1
  H  1149  1  0.10772300  0.48304300  0.36515600  1
  H  1163  1  0.13849600  0.87560600  0.07403680  1
  H  1164  1  0.17410500  0.92262600  0.05922280  1
  H  1171  1  0.13992200  0.84437800  0.11990000  1
  H  1172  1  0.11419900  0.80088300  0.14800900  1
  H  1173  1  0.14761400  0.72393600  0.09091580  1
  H  1174  1  0.17352100  0.76788000  0.06255080  1
  H  1175  1  0.22469600  0.80806600  0.06971180  1
  H  1189  1  0.62245600  0.39074500  0.84189800  1
  H  1190  1  0.65654100  0.34181400  0.85387400  1
  H  1197  1  0.68389300  0.47569700  0.80792400  1
  H  1198  1  0.65054100  0.51745800  0.78344400  1
  H  1199  1  0.56107200  0.48741300  0.82863500  1
  H  1200  1  0.59486800  0.44602800  0.85393900  1
  H  1201  1  0.70988300  0.45577400  0.85148700  1
  H  1215  1  0.47366500  0.50736600  0.61187000  1
  H  1216  1  0.50823100  0.54535600  0.63953100  1
  H  1223  1  0.51800600  0.44437300  0.54941300  1
  H  1224  1  0.48571100  0.39552400  0.53200100  1
  H  1225  1  0.43070800  0.39003900  0.60837200  1
  H  1226  1  0.46238400  0.43887300  0.62553700  1
  H  1227  1  0.56131100  0.44453500  0.59624500  1
  H  1241  1  0.03967000  0.26032900  0.83763900  1
  H  1242  1  0.07062600  0.22745900  0.80438100  1
  H  1249  1  0.04075600  0.30001300  0.87565700  1
  H  1250  1  0.00019900  0.32756200  0.90603800  1
  H  1251  1  0.96920200  0.39437600  0.84052300  1
  H  1252  1  0.00807400  0.36544300  0.80951200  1
  H  1253  1  0.06641100  0.35271800  0.79528600  1
  H  1267  1  0.03069800  0.84804900  0.37304100  1
  H  1268  1  0.99484200  0.89390400  0.39113000  1
  H  1275  1  0.02902900  0.84172100  0.28923300  1
  H  1276  1  0.06014700  0.79832200  0.26395300  1
  H  1277  1  0.04814500  0.72874800  0.33172800  1
  H  1278  1  0.01694000  0.77249300  0.35713700  1
  H  1279  1  0.95899900  0.83179300  0.30762700  1
  H  1293  1  0.54171500  0.00897387  0.06939980  1
  H  1294  1  0.56949800  0.03954090  0.10607300  1
  H  1301  1  0.54909600  0.96578300  0.03207080  1
  H  1302  1  0.51268000  0.94134600  0.99688800  1
  H  1303  1  0.45700600  0.88622600  0.05885280  1
  H  1304  1  0.49270900  0.91132700  0.09408580  1
  H  1305  1  0.55125800  0.91537800  0.11468600  1
  C  1  1  0.08932600  0.15521900  0.12734500  1
  C  2  1  0.10027100  0.13652600  0.15160000  1
  C  3  1  0.09904000  0.09949800  0.15166300  1
  C  4  1  0.08476700  0.08200100  0.12837600  1
  C  5  1  0.07232900  0.10027200  0.10485400  1
  C  6  1  0.07606400  0.13694600  0.10372500  1
  C  7  1  0.11286300  0.15578100  0.17470500  1
  C  8  1  0.06736400  0.15585600  0.07932600  1
  C  10  1  0.09136600  0.19230100  0.12664900  1
  C  11  1  0.10022800  0.21103600  0.15132800  1
  C  12  1  0.09783600  0.24792800  0.15158200  1
  C  13  1  0.09383700  0.26544100  0.12581600  1
  C  14  1  0.08893000  0.24736500  0.10042900  1
  C  15  1  0.08433000  0.21071900  0.10139900  1
  C  16  1  0.11146400  0.19222500  0.17502400  1
  C  18  1  0.07258000  0.19189600  0.07786700  1
  C  31  1  0.57934600  0.19587300  0.63490200  1
  C  32  1  0.57605200  0.21739900  0.65907200  1
  C  33  1  0.57341100  0.25411100  0.65575300  1
  C  34  1  0.57915900  0.26879200  0.62905100  1
  C  35  1  0.58507700  0.24798100  0.60521600  1
  C  36  1  0.58221600  0.21132300  0.60793000  1
  C  37  1  0.57434500  0.20102700  0.68553100  1
  C  38  1  0.58065500  0.18968100  0.58406900  1
  C  40  1  0.57884900  0.15884100  0.63749700  1
  C  41  1  0.58035000  0.14322700  0.66450000  1
  C  42  1  0.58198900  0.10645500  0.66717900  1
  C  43  1  0.57671000  0.08598500  0.64302100  1
  C  44  1  0.57253700  0.10089700  0.61629200  1
  C  45  1  0.57599200  0.13748800  0.61319700  1
  C  46  1  0.57853900  0.16493700  0.68829100  1
  C  48  1  0.57556800  0.15375500  0.58669600  1
  C  61  1  0.08522200  0.63875800  0.61578100  1
  C  62  1  0.07502600  0.62000000  0.59139200  1
  C  63  1  0.07194000  0.58324100  0.59262600  1
  C  64  1  0.08160100  0.56553100  0.61719400  1
  C  65  1  0.09316300  0.58347200  0.64115000  1
  C  66  1  0.09369500  0.62046600  0.64088300  1
  C  67  1  0.06743400  0.63873700  0.56667700  1
  C  68  1  0.10271600  0.63996500  0.66487900  1
  C  70  1  0.08624700  0.67590800  0.61515400  1
  C  71  1  0.08030700  0.69419500  0.58964400  1
  C  72  1  0.08248200  0.73109500  0.58908500  1
  C  73  1  0.08563600  0.74923400  0.61460900  1
  C  74  1  0.08996600  0.73172200  0.64029700  1
  C  75  1  0.09222000  0.69486100  0.64029200  1
  C  76  1  0.07115600  0.67499200  0.56556600  1
  C  78  1  0.10047500  0.67635000  0.66493800  1
  C  91  1  0.57764400  0.69067500  0.12863300  1
  C  92  1  0.58585000  0.70885800  0.10343900  1
  C  93  1  0.58633900  0.74586200  0.10335100  1
  C  94  1  0.57566700  0.76397800  0.12750300  1
  C  95  1  0.56613700  0.74633600  0.15211800  1
  C  96  1  0.56855700  0.70955800  0.15323200  1
  C  97  1  0.59377000  0.68920300  0.07927200  1
  C  98  1  0.56180800  0.69103200  0.17819100  1
  C  100  1  0.57827900  0.65353300  0.12927300  1
  C  101  1  0.58325900  0.63439000  0.10408100  1
  C  102  1  0.58088400  0.59748800  0.10426800  1
  C  103  1  0.57805300  0.58025100  0.13025600  1
  C  104  1  0.57637000  0.59864800  0.15575400  1
  C  105  1  0.57357300  0.63547200  0.15502400  1
  C  106  1  0.59098900  0.65283300  0.07927600  1
  C  108  1  0.56548400  0.65478200  0.17929800  1
  C  121  1  0.80752300  0.39150900  0.33718600  1
  C  122  1  0.79024700  0.38920300  0.31082200  1
  C  123  1  0.75691200  0.37336400  0.30903500  1
  C  124  1  0.74059900  0.36174800  0.33371000  1
  C  125  1  0.75616200  0.36581200  0.36020900  1
  C  126  1  0.79063200  0.37912200  0.36183300  1
  C  127  1  0.80753000  0.40184800  0.28680900  1
  C  128  1  0.80950200  0.37887000  0.38721200  1
  C  130  1  0.84225300  0.40477200  0.33868200  1
  C  131  1  0.85854400  0.41858200  0.31428600  1
  C  132  1  0.89276200  0.43236600  0.31570500  1
  C  133  1  0.91068200  0.43121300  0.34141700  1
  C  134  1  0.89522300  0.41761700  0.36582300  1
  C  135  1  0.86063900  0.40459000  0.36459100  1
  C  136  1  0.84031700  0.41752300  0.28867400  1
  C  138  1  0.84390700  0.39085300  0.38847400  1
  C  151  1  0.84441700  0.89926100  0.85602300  1
  C  152  1  0.86950800  0.89544700  0.83426600  1
  C  153  1  0.90541700  0.89985200  0.84009000  1
  C  154  1  0.91584400  0.90941800  0.86722100  1
  C  155  1  0.89151600  0.91423400  0.88894200  1
  C  156  1  0.85566700  0.90791900  0.88360200  1
  C  157  1  0.85806100  0.88711600  0.80702800  1
  C  158  1  0.83079700  0.90818500  0.90533200  1
  C  160  1  0.80842500  0.89273300  0.85045300  1
  C  161  1  0.79753700  0.88362500  0.82287100  1
  C  162  1  0.76201100  0.87607500  0.81731300  1
  C  163  1  0.73812200  0.87623600  0.83963800  1
  C  164  1  0.74835500  0.88431200  0.86722300  1
  C  165  1  0.78371200  0.89300100  0.87274300  1
  C  166  1  0.82274500  0.88186300  0.80137600  1
  C  168  1  0.79581000  0.90012000  0.90010500  1
  C  181  1  0.31618200  0.44304600  0.88620300  1
  C  182  1  0.30963600  0.44481200  0.91554200  1
  C  183  1  0.27507500  0.44868100  0.92585900  1
  C  184  1  0.24734000  0.44909200  0.90653700  1
  C  185  1  0.25291400  0.44626600  0.87748700  1
  C  186  1  0.28759700  0.44415100  0.86716900  1
  C  187  1  0.33834000  0.44436500  0.93400800  1
  C  188  1  0.29488400  0.44518900  0.83819800  1
  C  190  1  0.35126000  0.44348500  0.87598300  1
  C  191  1  0.37986100  0.44423200  0.89501100  1
  C  192  1  0.41451500  0.44707600  0.88469000  1
  C  193  1  0.41999200  0.45117900  0.85570500  1
  C  194  1  0.39220800  0.45120500  0.83647200  1
  C  195  1  0.35774400  0.44640200  0.84670000  1
  C  196  1  0.37256300  0.44422400  0.92399800  1
  C  198  1  0.32907300  0.44609000  0.82821200  1
  C  211  1  0.35752800  0.93243800  0.41417200  1
  C  212  1  0.37564600  0.91857300  0.43771800  1
  C  213  1  0.40913200  0.90358800  0.43423000  1
  C  214  1  0.42463600  0.90376500  0.40758400  1
  C  215  1  0.40788600  0.91870600  0.38426800  1
  C  216  1  0.37387400  0.93268000  0.38740300  1
  C  217  1  0.35947900  0.91980400  0.46421300  1
  C  218  1  0.35560500  0.94705700  0.36452200  1
  C  220  1  0.32266200  0.94489700  0.41720800  1
  C  221  1  0.30693800  0.94593500  0.44420100  1
  C  222  1  0.27224200  0.95801300  0.44739300  1
  C  223  1  0.25374700  0.96904600  0.42352200  1
  C  224  1  0.26870300  0.96837500  0.39656900  1
  C  225  1  0.30378500  0.95712000  0.39345500  1
  C  226  1  0.32640400  0.93443600  0.46752200  1
  C  228  1  0.32129900  0.95888900  0.36747500  1
  C  241  1  0.04193700  0.04271300  0.04692700  1
  C  242  1  0.04520300  0.00708300  0.03935200  1
  C  243  1  0.02185500  0.99246700  0.01960100  1
  C  244  1  0.99515200  0.01231500  0.00693600  1
  C  245  1  0.99275000  0.04784800  0.01423200  1
  C  246  1  0.01568400  0.06271200  0.03373700  1
  C  249  1  0.97160900  0.99718900  0.98720300  1
  C  250  1  0.98372200  0.97460100  0.96593500  1
  C  251  1  0.96073600  0.96016900  0.94619100  1
  C  252  1  0.92473700  0.96784200  0.94692100  1
  C  253  1  0.91257600  0.99060400  0.96799400  1
  C  254  1  0.93554700  0.00476300  0.98791200  1
  C  263  1  0.90174800  0.95505700  0.92594900  1
  C  264  1  0.06415600  0.05859700  0.06725000  1
  C  267  1  0.60203000  0.30388900  0.54236300  1
  C  268  1  0.60602400  0.34018200  0.53761900  1
  C  269  1  0.62477700  0.35191900  0.51385100  1
  C  270  1  0.63978600  0.32854800  0.49440400  1
  C  271  1  0.63463700  0.29259200  0.49900600  1
  C  272  1  0.61612100  0.28055400  0.52243100  1
  C  275  1  0.66049000  0.34061200  0.47144800  1
  C  276  1  0.65771400  0.32551100  0.44450900  1
  C  277  1  0.67902000  0.33658200  0.42225400  1
  C  278  1  0.70397500  0.36324900  0.42602700  1
  C  279  1  0.70639200  0.37873200  0.45282300  1
  C  280  1  0.68525100  0.36750800  0.47511000  1
  C  289  1  0.72559300  0.37511500  0.40369800  1
  C  290  1  0.58531900  0.29060200  0.56688000  1
  C  293  1  0.10385800  0.53904000  0.71016600  1
  C  294  1  0.08284800  0.52056100  0.72969400  1
  C  295  1  0.09884400  0.50090500  0.75129300  1
  C  296  1  0.13539000  0.49869600  0.75377400  1
  C  297  1  0.15597100  0.51723600  0.73440700  1
  C  298  1  0.14048600  0.53720100  0.71320200  1
  C  301  1  0.15143600  0.47936800  0.77565500  1
  C  302  1  0.14328700  0.48616400  0.80398700  1
  C  303  1  0.16204400  0.46998100  0.82568600  1
  C  304  1  0.18895700  0.44598300  0.81972400  1
  C  305  1  0.19589800  0.43793100  0.79139200  1
  C  306  1  0.17770400  0.45468800  0.76968900  1
  C  315  1  0.21073700  0.43260800  0.84126000  1
  C  316  1  0.08937900  0.55982000  0.68819500  1
  C  319  1  0.54602900  0.79612500  0.21651100  1
  C  320  1  0.55836600  0.82701700  0.22946700  1
  C  321  1  0.53712800  0.84428500  0.24937600  1
  C  322  1  0.50382100  0.83158600  0.25675700  1
  C  323  1  0.49237600  0.80038900  0.24413000  1
  C  324  1  0.51306800  0.78301500  0.22440700  1
  C  327  1  0.48240100  0.84908500  0.27668100  1
  C  328  1  0.49620300  0.86096100  0.30240800  1
  C  329  1  0.47453400  0.87581700  0.32291000  1
  C  330  1  0.43832400  0.87942600  0.31835800  1
  C  331  1  0.42462800  0.86814200  0.29244500  1
  C  332  1  0.44631600  0.85346900  0.27190600  1
  C  341  1  0.41559000  0.89106000  0.33991400  1
  C  342  1  0.56547400  0.77810000  0.19570100  1
  C  345  1  0.20876500  0.92677100  0.47967800  1
  C  346  1  0.22405000  0.89316500  0.48148600  1
  C  347  1  0.20254200  0.86362300  0.48552500  1
  C  348  1  0.16607200  0.86657300  0.48863600  1
  C  349  1  0.15109400  0.89985400  0.48515900  1
  C  350  1  0.17203800  0.92932900  0.48073300  1
  C  353  1  0.14646000  0.83813200  0.49974000  1
  C  354  1  0.12562200  0.84301200  0.52385400  1
  C  355  1  0.11145400  0.81453200  0.53840400  1
  C  356  1  0.11762700  0.77997300  0.52944300  1
  C  357  1  0.13727700  0.77516300  0.50467700  1
  C  358  1  0.15138700  0.80368500  0.49007400  1
  C  367  1  0.10893400  0.75092300  0.54671600  1
  C  368  1  0.22817000  0.95783300  0.48433400  1
  C  371  1  0.71730100  0.41160100  0.26248000  1
  C  372  1  0.72716900  0.43470500  0.24068300  1
  C  373  1  0.70775300  0.46548500  0.23630600  1
  C  374  1  0.67805400  0.47303800  0.25256100  1
  C  375  1  0.66891700  0.45037500  0.27457400  1
  C  376  1  0.68865600  0.42017400  0.27973000  1
  C  379  1  0.65528200  0.49959600  0.24339300  1
  C  380  1  0.63081500  0.49196800  0.22222800  1
  C  381  1  0.61350600  0.51890300  0.20797700  1
  C  382  1  0.62015600  0.55429200  0.21436800  1
  C  383  1  0.64379300  0.56151400  0.23642100  1
  C  384  1  0.66133300  0.53463300  0.25062300  1
  C  393  1  0.60806100  0.58176800  0.19669500  1
  C  394  1  0.73000200  0.37701700  0.26266000  1
  C  397  1  0.44774400  0.43041200  0.79052800  1
  C  398  1  0.43670500  0.39518700  0.79204100  1
  C  399  1  0.45963900  0.36841600  0.78315700  1
  C  400  1  0.49302700  0.37565900  0.77198700  1
  C  401  1  0.50419800  0.41069600  0.77229900  1
  C  402  1  0.48206300  0.43743900  0.78142200  1
  C  405  1  0.51282100  0.34987100  0.75719000  1
  C  406  1  0.49603400  0.32647700  0.73870300  1
  C  407  1  0.51516500  0.30454400  0.72089300  1
  C  408  1  0.55200200  0.30532500  0.72035100  1
  C  409  1  0.56887700  0.32733300  0.73983700  1
  C  410  1  0.54968900  0.34927300  0.75774800  1
  C  419  1  0.57139800  0.28482600  0.70078000  1
  C  420  1  0.42414400  0.45896300  0.79179400  1
  C  423  1  0.04735600  0.53580700  0.52800500  1
  C  424  1  0.05938600  0.50620400  0.51306600  1
  C  425  1  0.03671200  0.48915500  0.49406700  1
  C  426  1  0.00226700  0.50084500  0.48949000  1
  C  427  1  0.99114000  0.53088100  0.50399900  1
  C  428  1  0.01321800  0.54798500  0.52287600  1
  C  431  1  0.97936500  0.48363500  0.47045600  1
  C  432  1  0.99077600  0.47338100  0.44353600  1
  C  433  1  0.96740200  0.45917100  0.42395700  1
  C  434  1  0.93181300  0.45469600  0.43064500  1
  C  435  1  0.92054300  0.46419700  0.45773700  1
  C  436  1  0.94396100  0.47811900  0.47736100  1
  C  445  1  0.90718300  0.44410700  0.41013900  1
  C  446  1  0.06823700  0.55349000  0.54810500  1
  C  449  1  0.59917900  0.79154300  0.03517400  1
  C  450  1  0.57892200  0.81149300  0.01607600  1
  C  451  1  0.59571100  0.83137500  0.99501700  1
  C  452  1  0.63232400  0.83242600  0.99272700  1
  C  453  1  0.65217800  0.81250000  0.01167300  1
  C  454  1  0.63587600  0.79225800  0.03231000  1
  C  457  1  0.64907400  0.85158700  0.97113900  1
  C  458  1  0.64132400  0.84479400  0.94274600  1
  C  459  1  0.66058100  0.86075100  0.92125700  1
  C  460  1  0.68759500  0.88448300  0.92754100  1
  C  461  1  0.69427800  0.89254100  0.95588600  1
  C  462  1  0.67561100  0.87588200  0.97740700  1
  C  471  1  0.70951400  0.89757200  0.90607700  1
  C  472  1  0.58385500  0.77053200  0.05662100  1
  C  475  1  0.11892200  0.05894400  0.22101500  1
  C  476  1  0.10132200  0.04279200  0.24378000  1
  C  477  1  0.12078400  0.02657700  0.26538300  1
  C  478  1  0.15753400  0.02566600  0.26492900  1
  C  479  1  0.17470500  0.04163400  0.24220000  1
  C  480  1  0.15578500  0.05811900  0.22082400  1
  C  483  1  0.17690000  0.00964700  0.28689300  1
  C  484  1  0.17050100  0.01807800  0.31524600  1
  C  485  1  0.19055000  0.00326300  0.33683800  1
  C  486  1  0.21725600  0.97902100  0.33087000  1
  C  487  1  0.22302700  0.96994600  0.30255400  1
  C  488  1  0.20350900  0.98532800  0.28091600  1
  C  497  1  0.23779600  0.96380600  0.35247200  1
  C  498  1  0.10081400  0.07720300  0.19932400  1
  C  501  1  0.22068900  0.42513800  0.97085300  1
  C  502  1  0.23497000  0.39119400  0.97325500  1
  C  503  1  0.21338300  0.36343600  0.98233300  1
  C  504  1  0.17802900  0.36868900  0.98957400  1
  C  505  1  0.16387900  0.40221200  0.98529800  1
  C  506  1  0.18486200  0.42994600  0.97630000  1
  C  509  1  0.15876400  0.34249000  0.00420500  1
  C  510  1  0.14033700  0.35101100  0.02895400  1
  C  511  1  0.12489800  0.32512400  0.04565000  1
  C  512  1  0.12722200  0.28953800  0.03830300  1
  C  513  1  0.14490700  0.28105900  0.01320300  1
  C  514  1  0.16032200  0.30699500  0.99646300  1
  C  523  1  0.11634100  0.26280000  0.05713600  1
  C  524  1  0.24199700  0.45531300  0.96977900  1
  C  527  1  0.70419600  0.90060900  0.77606700  1
  C  528  1  0.71935900  0.93432900  0.77552300  1
  C  529  1  0.69828000  0.96354600  0.76898800  1
  C  530  1  0.66258700  0.96022700  0.76210100  1
  C  531  1  0.64775500  0.92663900  0.76394300  1
  C  532  1  0.66810800  0.89751800  0.77078800  1
  C  535  1  0.64313700  0.98852800  0.75028800  1
  C  536  1  0.65845800  0.01061600  0.72999800  1
  C  537  1  0.63862800  0.03543900  0.71540000  1
  C  538  1  0.60251100  0.03908000  0.72031700  1
  C  539  1  0.58719300  0.01758700  0.74092800  1
  C  540  1  0.60719200  0.99307800  0.75582300  1
  C  549  1  0.58171900  0.06065300  0.70272000  1
  C  550  1  0.72425000  0.86939900  0.77613400  1
  C  553  1  0.55576400  0.04899800  0.55172100  1
  C  554  1  0.57126000  0.02009500  0.53795600  1
  C  555  1  0.55041200  0.99821900  0.52089300  1
  C  556  1  0.51440800  0.00429900  0.51741200  1
  C  557  1  0.49971300  0.03398400  0.53009000  1
  C  558  1  0.52016300  0.05615800  0.54662600  1
  C  561  1  0.49265700  0.97860500  0.50512700  1
  C  562  1  0.49871900  0.96563300  0.47786100  1
  C  563  1  0.47936300  0.93730000  0.46744800  1
  C  564  1  0.45427700  0.92070200  0.48445700  1
  C  565  1  0.44796300  0.93387100  0.51156800  1
  C  566  1  0.46652300  0.96275800  0.52161200  1
  C  575  1  0.44015300  0.88806100  0.47690700  1
  C  576  1  0.57409800  0.06974200  0.57167500  1
  C  579  1  0.08544000  0.80145300  0.69446300  1
  C  580  1  0.08449600  0.83839400  0.69260400  1
  C  581  1  0.06706100  0.85791000  0.71354100  1
  C  582  1  0.04977800  0.84186500  0.73629500  1
  C  583  1  0.05221000  0.80522800  0.73832200  1
  C  584  1  0.06998500  0.78558000  0.71812200  1
  C  587  1  0.02875500  0.86137200  0.75554900  1
  C  588  1  0.02595800  0.85153000  0.78405300  1
  C  589  1  0.00215300  0.86786600  0.80210800  1
  C  590  1  0.98100900  0.89540500  0.79248000  1
  C  591  1  0.98480700  0.90675400  0.76457500  1
  C  592  1  0.00797200  0.88967100  0.74635200  1
  C  601  1  0.95513200  0.90972200  0.81012700  1
  C  602  1  0.09920900  0.78024100  0.67245200  1
  C  605  1  0.95468200  0.42069200  0.27716600  1
  C  606  1  0.94433300  0.40242800  0.25271800  1
  C  607  1  0.96609100  0.37587200  0.24203100  1
  C  608  1  0.99791500  0.36727600  0.25507700  1
  C  609  1  0.00735500  0.38484300  0.27986800  1
  C  610  1  0.98622300  0.41168200  0.29051300  1
  C  613  1  0.02064100  0.34312000  0.24209200  1
  C  614  1  0.03410000  0.35014900  0.21514900  1
  C  615  1  0.05291400  0.32468400  0.20040800  1
  C  616  1  0.05838000  0.29128300  0.21204500  1
  C  617  1  0.04546000  0.28460700  0.23926700  1
  C  618  1  0.02723600  0.31033000  0.25429800  1
  C  627  1  0.07106700  0.26359400  0.19516800  1
  C  628  1  0.93827600  0.45234100  0.28449900  1
  C  631  1  0.57597200  0.52798600  0.04968300  1
  C  632  1  0.57093500  0.49139800  0.05158000  1
  C  633  1  0.55508800  0.47331900  0.02906000  1
  C  634  1  0.54379100  0.49057600  0.00453200  1
  C  635  1  0.55001200  0.52676300  0.00269300  1
  C  636  1  0.56589300  0.54501100  0.02471100  1
  C  639  1  0.52476000  0.47280100  0.98307800  1
  C  640  1  0.52995300  0.48056500  0.95440500  1
  C  641  1  0.50848300  0.46611000  0.93358700  1
  C  642  1  0.48121500  0.44303800  0.94065600  1
  C  643  1  0.47698700  0.43385100  0.96909300  1
  C  644  1  0.49822800  0.44865200  0.98992700  1
  C  653  1  0.45693900  0.43138700  0.92022300  1
  C  654  1  0.58893600  0.54791200  0.07268600  1
  C  657  1  0.08932600  0.62352400  0.21105100  1
  C  658  1  0.10027100  0.60483100  0.23530600  1
  C  659  1  0.09904000  0.56780300  0.23536900  1
  C  660  1  0.08476700  0.55030600  0.21208200  1
  C  661  1  0.07232900  0.56857700  0.18856000  1
  C  662  1  0.07606400  0.60525100  0.18743100  1
  C  663  1  0.11286300  0.62408600  0.25841100  1
  C  664  1  0.06736400  0.62416100  0.16303200  1
  C  666  1  0.09136600  0.66060600  0.21035500  1
  C  667  1  0.10022800  0.67934100  0.23503400  1
  C  668  1  0.09783600  0.71623300  0.23528800  1
  C  669  1  0.09383700  0.73374600  0.20952200  1
  C  670  1  0.08893000  0.71567000  0.18413500  1
  C  671  1  0.08433000  0.67902400  0.18510500  1
  C  672  1  0.11146400  0.66053000  0.25873000  1
  C  674  1  0.07258000  0.66020100  0.16157300  1
  C  687  1  0.57934600  0.66417800  0.71860800  1
  C  688  1  0.57605200  0.68570400  0.74277800  1
  C  689  1  0.57341100  0.72241600  0.73945900  1
  C  690  1  0.57915900  0.73709700  0.71275700  1
  C  691  1  0.58507700  0.71628600  0.68892200  1
  C  692  1  0.58221600  0.67962800  0.69163600  1
  C  693  1  0.57434500  0.66933200  0.76923700  1
  C  694  1  0.58065500  0.65798600  0.66777500  1
  C  696  1  0.57884900  0.62714600  0.72120300  1
  C  697  1  0.58035000  0.61153200  0.74820600  1
  C  698  1  0.58198900  0.57476000  0.75088500  1
  C  699  1  0.57671000  0.55429000  0.72672700  1
  C  700  1  0.57253700  0.56920200  0.69999800  1
  C  701  1  0.57599200  0.60579300  0.69690300  1
  C  702  1  0.57853900  0.63324200  0.77199700  1
  C  704  1  0.57556800  0.62206000  0.67040200  1
  C  717  1  0.08522200  0.10706300  0.69948700  1
  C  718  1  0.07502600  0.08830490  0.67509800  1
  C  719  1  0.07194000  0.05154590  0.67633200  1
  C  720  1  0.08160100  0.03383590  0.70090000  1
  C  721  1  0.09316300  0.05177690  0.72485600  1
  C  722  1  0.09369500  0.08877090  0.72458900  1
  C  723  1  0.06743400  0.10704200  0.65038300  1
  C  724  1  0.10271600  0.10827000  0.74858500  1
  C  726  1  0.08624700  0.14421300  0.69886000  1
  C  727  1  0.08030700  0.16250000  0.67335000  1
  C  728  1  0.08248200  0.19940000  0.67279100  1
  C  729  1  0.08563600  0.21753900  0.69831500  1
  C  730  1  0.08996600  0.20002700  0.72400300  1
  C  731  1  0.09222000  0.16316600  0.72399800  1
  C  732  1  0.07115600  0.14329700  0.64927200  1
  C  734  1  0.10047500  0.14465500  0.74864400  1
  C  747  1  0.57764400  0.15898000  0.21233900  1
  C  748  1  0.58585000  0.17716300  0.18714500  1
  C  749  1  0.58633900  0.21416700  0.18705700  1
  C  750  1  0.57566700  0.23228300  0.21120900  1
  C  751  1  0.56613700  0.21464100  0.23582400  1
  C  752  1  0.56855700  0.17786300  0.23693800  1
  C  753  1  0.59377000  0.15750800  0.16297800  1
  C  754  1  0.56180800  0.15933700  0.26189700  1
  C  756  1  0.57827900  0.12183800  0.21297900  1
  C  757  1  0.58325900  0.10269500  0.18778700  1
  C  758  1  0.58088400  0.06579290  0.18797400  1
  C  759  1  0.57805300  0.04855590  0.21396200  1
  C  760  1  0.57637000  0.06695290  0.23946000  1
  C  761  1  0.57357300  0.10377700  0.23873000  1
  C  762  1  0.59098900  0.12113800  0.16298200  1
  C  764  1  0.56548400  0.12308700  0.26300400  1
  C  777  1  0.80752300  0.85981400  0.42089200  1
  C  778  1  0.79024700  0.85750800  0.39452800  1
  C  779  1  0.75691200  0.84166900  0.39274100  1
  C  780  1  0.74059900  0.83005300  0.41741600  1
  C  781  1  0.75616200  0.83411700  0.44391500  1
  C  782  1  0.79063200  0.84742700  0.44553900  1
  C  783  1  0.80753000  0.87015300  0.37051500  1
  C  784  1  0.80950200  0.84717500  0.47091800  1
  C  786  1  0.84225300  0.87307700  0.42238800  1
  C  787  1  0.85854400  0.88688700  0.39799200  1
  C  788  1  0.89276200  0.90067100  0.39941100  1
  C  789  1  0.91068200  0.89951800  0.42512300  1
  C  790  1  0.89522300  0.88592200  0.44952900  1
  C  791  1  0.86063900  0.87289500  0.44829700  1
  C  792  1  0.84031700  0.88582800  0.37238000  1
  C  794  1  0.84390700  0.85915800  0.47218000  1
  C  807  1  0.84441700  0.36756600  0.93972900  1
  C  808  1  0.86950800  0.36375200  0.91797200  1
  C  809  1  0.90541700  0.36815700  0.92379600  1
  C  810  1  0.91584400  0.37772300  0.95092700  1
  C  811  1  0.89151600  0.38253900  0.97264800  1
  C  812  1  0.85566700  0.37622400  0.96730800  1
  C  813  1  0.85806100  0.35542100  0.89073400  1
  C  814  1  0.83079700  0.37649000  0.98903800  1
  C  816  1  0.80842500  0.36103800  0.93415900  1
  C  817  1  0.79753700  0.35193000  0.90657700  1
  C  818  1  0.76201100  0.34438000  0.90101900  1
  C  819  1  0.73812200  0.34454100  0.92334400  1
  C  820  1  0.74835500  0.35261700  0.95092900  1
  C  821  1  0.78371200  0.36130600  0.95644900  1
  C  822  1  0.82274500  0.35016800  0.88508200  1
  C  824  1  0.79581000  0.36842500  0.98381100  1
  C  837  1  0.31618200  0.91135100  0.96990900  1
  C  838  1  0.30963600  0.91311700  0.99924800  1
  C  839  1  0.27507500  0.91698600  0.00956482  1
  C  840  1  0.24734000  0.91739700  0.99024300  1
  C  841  1  0.25291400  0.91457100  0.96119300  1
  C  842  1  0.28759700  0.91245600  0.95087500  1
  C  843  1  0.33834000  0.91267000  0.01771380  1
  C  844  1  0.29488400  0.91349400  0.92190400  1
  C  846  1  0.35126000  0.91179000  0.95968900  1
  C  847  1  0.37986100  0.91253700  0.97871700  1
  C  848  1  0.41451500  0.91538100  0.96839600  1
  C  849  1  0.41999200  0.91948400  0.93941100  1
  C  850  1  0.39220800  0.91951000  0.92017800  1
  C  851  1  0.35774400  0.91470700  0.93040600  1
  C  852  1  0.37256300  0.91252900  0.00770382  1
  C  854  1  0.32907300  0.91439500  0.91191800  1
  C  867  1  0.35752800  0.40074300  0.49787800  1
  C  868  1  0.37564600  0.38687800  0.52142400  1
  C  869  1  0.40913200  0.37189300  0.51793600  1
  C  870  1  0.42463600  0.37207000  0.49129000  1
  C  871  1  0.40788600  0.38701100  0.46797400  1
  C  872  1  0.37387400  0.40098500  0.47110900  1
  C  873  1  0.35947900  0.38810900  0.54791900  1
  C  874  1  0.35560500  0.41536200  0.44822800  1
  C  876  1  0.32266200  0.41320200  0.50091400  1
  C  877  1  0.30693800  0.41424000  0.52790700  1
  C  878  1  0.27224200  0.42631800  0.53109900  1
  C  879  1  0.25374700  0.43735100  0.50722800  1
  C  880  1  0.26870300  0.43668000  0.48027500  1
  C  881  1  0.30378500  0.42542500  0.47716100  1
  C  882  1  0.32640400  0.40274100  0.55122800  1
  C  884  1  0.32129900  0.42719400  0.45118100  1
  C  897  1  0.04193700  0.51101800  0.13063300  1
  C  898  1  0.04520300  0.47538800  0.12305800  1
  C  899  1  0.02185500  0.46077200  0.10330700  1
  C  900  1  0.99515200  0.48062000  0.09064180  1
  C  901  1  0.99275000  0.51615300  0.09793780  1
  C  902  1  0.01568400  0.53101700  0.11744300  1
  C  905  1  0.97160900  0.46549400  0.07090880  1
  C  906  1  0.98372200  0.44290600  0.04964080  1
  C  907  1  0.96073600  0.42847400  0.02989680  1
  C  908  1  0.92473700  0.43614700  0.03062680  1
  C  909  1  0.91257600  0.45890900  0.05169980  1
  C  910  1  0.93554700  0.47306800  0.07161780  1
  C  919  1  0.90174800  0.42336200  0.00965482  1
  C  920  1  0.06415600  0.52690200  0.15095600  1
  C  923  1  0.60203000  0.77219400  0.62606900  1
  C  924  1  0.60602400  0.80848700  0.62132500  1
  C  925  1  0.62477700  0.82022400  0.59755700  1
  C  926  1  0.63978600  0.79685300  0.57811000  1
  C  927  1  0.63463700  0.76089700  0.58271200  1
  C  928  1  0.61612100  0.74885900  0.60613700  1
  C  931  1  0.66049000  0.80891700  0.55515400  1
  C  932  1  0.65771400  0.79381600  0.52821500  1
  C  933  1  0.67902000  0.80488700  0.50596000  1
  C  934  1  0.70397500  0.83155400  0.50973300  1
  C  935  1  0.70639200  0.84703700  0.53652900  1
  C  936  1  0.68525100  0.83581300  0.55881600  1
  C  945  1  0.72559300  0.84342000  0.48740400  1
  C  946  1  0.58531900  0.75890700  0.65058600  1
  C  949  1  0.10385800  0.00734487  0.79387200  1
  C  950  1  0.08284800  0.98886600  0.81340000  1
  C  951  1  0.09884400  0.96921000  0.83499900  1
  C  952  1  0.13539000  0.96700100  0.83748000  1
  C  953  1  0.15597100  0.98554100  0.81811300  1
  C  954  1  0.14048600  0.00550587  0.79690800  1
  C  957  1  0.15143600  0.94767300  0.85936100  1
  C  958  1  0.14328700  0.95446900  0.88769300  1
  C  959  1  0.16204400  0.93828600  0.90939200  1
  C  960  1  0.18895700  0.91428800  0.90343000  1
  C  961  1  0.19589800  0.90623600  0.87509800  1
  C  962  1  0.17770400  0.92299300  0.85339500  1
  C  971  1  0.21073700  0.90091300  0.92496600  1
  C  972  1  0.08937900  0.02812490  0.77190100  1
  C  975  1  0.54602900  0.26443000  0.30021700  1
  C  976  1  0.55836600  0.29532200  0.31317300  1
  C  977  1  0.53712800  0.31259000  0.33308200  1
  C  978  1  0.50382100  0.29989100  0.34046300  1
  C  979  1  0.49237600  0.26869400  0.32783600  1
  C  980  1  0.51306800  0.25132000  0.30811300  1
  C  983  1  0.48240100  0.31739000  0.36038700  1
  C  984  1  0.49620300  0.32926600  0.38611400  1
  C  985  1  0.47453400  0.34412200  0.40661600  1
  C  986  1  0.43832400  0.34773100  0.40206400  1
  C  987  1  0.42462800  0.33644700  0.37615100  1
  C  988  1  0.44631600  0.32177400  0.35561200  1
  C  997  1  0.41559000  0.35936500  0.42362000  1
  C  998  1  0.56547400  0.24640500  0.27940700  1
  C  1001  1  0.20876500  0.39507600  0.56338400  1
  C  1002  1  0.22405000  0.36147000  0.56519200  1
  C  1003  1  0.20254200  0.33192800  0.56923100  1
  C  1004  1  0.16607200  0.33487800  0.57234200  1
  C  1005  1  0.15109400  0.36815900  0.56886500  1
  C  1006  1  0.17203800  0.39763400  0.56443900  1
  C  1009  1  0.14646000  0.30643700  0.58344600  1
  C  1010  1  0.12562200  0.31131700  0.60756000  1
  C  1011  1  0.11145400  0.28283700  0.62211000  1
  C  1012  1  0.11762700  0.24827800  0.61314900  1
  C  1013  1  0.13727700  0.24346800  0.58838300  1
  C  1014  1  0.15138700  0.27199000  0.57378000  1
  C  1023  1  0.10893400  0.21922800  0.63042200  1
  C  1024  1  0.22817000  0.42613800  0.56804000  1
  C  1027  1  0.71730100  0.87990600  0.34618600  1
  C  1028  1  0.72716900  0.90301000  0.32438900  1
  C  1029  1  0.70775300  0.93379000  0.32001200  1
  C  1030  1  0.67805400  0.94134300  0.33626700  1
  C  1031  1  0.66891700  0.91868000  0.35828000  1
  C  1032  1  0.68865600  0.88847900  0.36343600  1
  C  1035  1  0.65528200  0.96790100  0.32709900  1
  C  1036  1  0.63081500  0.96027300  0.30593400  1
  C  1037  1  0.61350600  0.98720800  0.29168300  1
  C  1038  1  0.62015600  0.02259690  0.29807400  1
  C  1039  1  0.64379300  0.02981890  0.32012700  1
  C  1040  1  0.66133300  0.00293787  0.33432900  1
  C  1049  1  0.60806100  0.05007290  0.28040100  1
  C  1050  1  0.73000200  0.84532200  0.34636600  1
  C  1053  1  0.44774400  0.89871700  0.87423400  1
  C  1054  1  0.43670500  0.86349200  0.87574700  1
  C  1055  1  0.45963900  0.83672100  0.86686300  1
  C  1056  1  0.49302700  0.84396400  0.85569300  1
  C  1057  1  0.50419800  0.87900100  0.85600500  1
  C  1058  1  0.48206300  0.90574400  0.86512800  1
  C  1061  1  0.51282100  0.81817600  0.84089600  1
  C  1062  1  0.49603400  0.79478200  0.82240900  1
  C  1063  1  0.51516500  0.77284900  0.80459900  1
  C  1064  1  0.55200200  0.77363000  0.80405700  1
  C  1065  1  0.56887700  0.79563800  0.82354300  1
  C  1066  1  0.54968900  0.81757800  0.84145400  1
  C  1075  1  0.57139800  0.75313100  0.78448600  1
  C  1076  1  0.42414400  0.92726800  0.87550000  1
  C  1079  1  0.04735600  0.00411187  0.61171100  1
  C  1080  1  0.05938600  0.97450900  0.59677200  1
  C  1081  1  0.03671200  0.95746000  0.57777300  1
  C  1082  1  0.00226700  0.96915000  0.57319600  1
  C  1083  1  0.99114000  0.99918600  0.58770500  1
  C  1084  1  0.01321800  0.01628990  0.60658200  1
  C  1087  1  0.97936500  0.95194000  0.55416200  1
  C  1088  1  0.99077600  0.94168600  0.52724200  1
  C  1089  1  0.96740200  0.92747600  0.50766300  1
  C  1090  1  0.93181300  0.92300100  0.51435100  1
  C  1091  1  0.92054300  0.93250200  0.54144300  1
  C  1092  1  0.94396100  0.94642400  0.56106700  1
  C  1101  1  0.90718300  0.91241200  0.49384500  1
  C  1102  1  0.06823700  0.02179490  0.63181100  1
  C  1105  1  0.59917900  0.25984800  0.11888000  1
  C  1106  1  0.57892200  0.27979800  0.09978180  1
  C  1107  1  0.59571100  0.29968000  0.07872280  1
  C  1108  1  0.63232400  0.30073100  0.07643280  1
  C  1109  1  0.65217800  0.28080500  0.09537880  1
  C  1110  1  0.63587600  0.26056300  0.11601600  1
  C  1113  1  0.64907400  0.31989200  0.05484480  1
  C  1114  1  0.64132400  0.31309900  0.02645180  1
  C  1115  1  0.66058100  0.32905600  0.00496282  1
  C  1116  1  0.68759500  0.35278800  0.01124680  1
  C  1117  1  0.69427800  0.36084600  0.03959180  1
  C  1118  1  0.67561100  0.34418700  0.06111280  1
  C  1127  1  0.70951400  0.36587700  0.98978300  1
  C  1128  1  0.58385500  0.23883700  0.14032700  1
  C  1131  1  0.11892200  0.52724900  0.30472100  1
  C  1132  1  0.10132200  0.51109700  0.32748600  1
  C  1133  1  0.12078400  0.49488200  0.34908900  1
  C  1134  1  0.15753400  0.49397100  0.34863500  1
  C  1135  1  0.17470500  0.50993900  0.32590600  1
  C  1136  1  0.15578500  0.52642400  0.30453000  1
  C  1139  1  0.17690000  0.47795200  0.37059900  1
  C  1140  1  0.17050100  0.48638300  0.39895200  1
  C  1141  1  0.19055000  0.47156800  0.42054400  1
  C  1142  1  0.21725600  0.44732600  0.41457600  1
  C  1143  1  0.22302700  0.43825100  0.38626000  1
  C  1144  1  0.20350900  0.45363300  0.36462200  1
  C  1153  1  0.23779600  0.43211100  0.43617800  1
  C  1154  1  0.10081400  0.54550800  0.28303000  1
  C  1157  1  0.22068900  0.89344300  0.05455880  1
  C  1158  1  0.23497000  0.85949900  0.05696080  1
  C  1159  1  0.21338300  0.83174100  0.06603880  1
  C  1160  1  0.17802900  0.83699400  0.07327980  1
  C  1161  1  0.16387900  0.87051700  0.06900380  1
  C  1162  1  0.18486200  0.89825100  0.06000580  1
  C  1165  1  0.15876400  0.81079500  0.08791080  1
  C  1166  1  0.14033700  0.81931600  0.11266000  1
  C  1167  1  0.12489800  0.79342900  0.12935600  1
  C  1168  1  0.12722200  0.75784300  0.12200900  1
  C  1169  1  0.14490700  0.74936400  0.09690880  1
  C  1170  1  0.16032200  0.77530000  0.08016880  1
  C  1179  1  0.11634100  0.73110500  0.14084200  1
  C  1180  1  0.24199700  0.92361800  0.05348480  1
  C  1183  1  0.70419600  0.36891400  0.85977300  1
  C  1184  1  0.71935900  0.40263400  0.85922900  1
  C  1185  1  0.69828000  0.43185100  0.85269400  1
  C  1186  1  0.66258700  0.42853200  0.84580700  1
  C  1187  1  0.64775500  0.39494400  0.84764900  1
  C  1188  1  0.66810800  0.36582300  0.85449400  1
  C  1191  1  0.64313700  0.45683300  0.83399400  1
  C  1192  1  0.65845800  0.47892100  0.81370400  1
  C  1193  1  0.63862800  0.50374400  0.79910600  1
  C  1194  1  0.60251100  0.50738500  0.80402300  1
  C  1195  1  0.58719300  0.48589200  0.82463400  1
  C  1196  1  0.60719200  0.46138300  0.83952900  1
  C  1205  1  0.58171900  0.52895800  0.78642600  1
  C  1206  1  0.72425000  0.33770400  0.85984000  1
  C  1209  1  0.55576400  0.51730300  0.63542700  1
  C  1210  1  0.57126000  0.48840000  0.62166200  1
  C  1211  1  0.55041200  0.46652400  0.60459900  1
  C  1212  1  0.51440800  0.47260400  0.60111800  1
  C  1213  1  0.49971300  0.50228900  0.61379600  1
  C  1214  1  0.52016300  0.52446300  0.63033200  1
  C  1217  1  0.49265700  0.44691000  0.58883300  1
  C  1218  1  0.49871900  0.43393800  0.56156700  1
  C  1219  1  0.47936300  0.40560500  0.55115400  1
  C  1220  1  0.45427700  0.38900700  0.56816300  1
  C  1221  1  0.44796300  0.40217600  0.59527400  1
  C  1222  1  0.46652300  0.43106300  0.60531800  1
  C  1231  1  0.44015300  0.35636600  0.56061300  1
  C  1232  1  0.57409800  0.53804700  0.65538100  1
  C  1235  1  0.08544000  0.26975800  0.77816900  1
  C  1236  1  0.08449600  0.30669900  0.77631000  1
  C  1237  1  0.06706100  0.32621500  0.79724700  1
  C  1238  1  0.04977800  0.31017000  0.82000100  1
  C  1239  1  0.05221000  0.27353300  0.82202800  1
  C  1240  1  0.06998500  0.25388500  0.80182800  1
  C  1243  1  0.02875500  0.32967700  0.83925500  1
  C  1244  1  0.02595800  0.31983500  0.86775900  1
  C  1245  1  0.00215300  0.33617100  0.88581400  1
  C  1246  1  0.98100900  0.36371000  0.87618600  1
  C  1247  1  0.98480700  0.37505900  0.84828100  1
  C  1248  1  0.00797200  0.35797600  0.83005800  1
  C  1257  1  0.95513200  0.37802700  0.89383300  1
  C  1258  1  0.09920900  0.24854600  0.75615800  1
  C  1261  1  0.95468200  0.88899700  0.36087200  1
  C  1262  1  0.94433300  0.87073300  0.33642400  1
  C  1263  1  0.96609100  0.84417700  0.32573700  1
  C  1264  1  0.99791500  0.83558100  0.33878300  1
  C  1265  1  0.00735500  0.85314800  0.36357400  1
  C  1266  1  0.98622300  0.87998700  0.37421900  1
  C  1269  1  0.02064100  0.81142500  0.32579800  1
  C  1270  1  0.03410000  0.81845400  0.29885500  1
  C  1271  1  0.05291400  0.79298900  0.28411400  1
  C  1272  1  0.05838000  0.75958800  0.29575100  1
  C  1273  1  0.04546000  0.75291200  0.32297300  1
  C  1274  1  0.02723600  0.77863500  0.33800400  1
  C  1283  1  0.07106700  0.73189900  0.27887400  1
  C  1284  1  0.93827600  0.92064600  0.36820500  1
  C  1287  1  0.57597200  0.99629100  0.13338900  1
  C  1288  1  0.57093500  0.95970300  0.13528600  1
  C  1289  1  0.55508800  0.94162400  0.11276600  1
  C  1290  1  0.54379100  0.95888100  0.08823780  1
  C  1291  1  0.55001200  0.99506800  0.08639880  1
  C  1292  1  0.56589300  0.01331590  0.10841700  1
  C  1295  1  0.52476000  0.94110600  0.06678380  1
  C  1296  1  0.52995300  0.94887000  0.03811080  1
  C  1297  1  0.50848300  0.93441500  0.01729280  1
  C  1298  1  0.48121500  0.91134300  0.02436180  1
  C  1299  1  0.47698700  0.90215600  0.05279880  1
  C  1300  1  0.49822800  0.91695700  0.07363280  1
  C  1309  1  0.45693900  0.89969200  0.00392882  1
  C  1310  1  0.58893600  0.01621690  0.15639200  1
  N  23  1  0.05248800  0.08302600  0.08560700  1
  N  25  1  0.08984600  0.26634400  0.07602900  1
  N  27  1  0.09676600  0.26764400  0.17564600  1
  N  29  1  0.11300900  0.07945300  0.17259400  1
  N  53  1  0.59775600  0.26240200  0.58096800  1
  N  55  1  0.55866500  0.08004300  0.59594500  1
  N  57  1  0.59370200  0.09087100  0.69134000  1
  N  59  1  0.55831100  0.27529100  0.67540900  1
  N  83  1  0.10533300  0.56373300  0.66291600  1
  N  85  1  0.08417300  0.74959100  0.66467800  1
  N  87  1  0.08162300  0.75057400  0.56501200  1
  N  89  1  0.05455000  0.56470100  0.57274600  1
  N  113  1  0.54984500  0.76503200  0.17245000  1
  N  115  1  0.57919000  0.57976000  0.18005200  1
  N  117  1  0.57510000  0.57931700  0.07994700  1
  N  119  1  0.59954300  0.76534400  0.08184500  1
  N  143  1  0.73782800  0.35403400  0.38294800  1
  N  145  1  0.91425700  0.42004100  0.38998300  1
  N  147  1  0.90547600  0.45360800  0.29506100  1
  N  149  1  0.74442400  0.35981000  0.28457700  1
  N  173  1  0.90474500  0.92262700  0.91467600  1
  N  175  1  0.72522000  0.87545000  0.88779400  1
  N  177  1  0.75200800  0.86120900  0.79252400  1
  N  179  1  0.93064500  0.88891900  0.82200300  1
  N  203  1  0.22520300  0.45421200  0.86062500  1
  N  205  1  0.39765400  0.46461900  0.81013800  1
  N  207  1  0.44236400  0.45401200  0.90167800  1
  N  209  1  0.26935100  0.46142100  0.95239600  1
  N  233  1  0.42458400  0.91572200  0.35909100  1
  N  235  1  0.24921600  0.98202400  0.37515900  1
  N  237  1  0.25947800  0.96676200  0.47317200  1
  N  239  1  0.42248200  0.88049800  0.45309900  1
  N  260  1  0.07097000  0.98610300  0.05216900  1
  N  286  1  0.59264600  0.36432600  0.55726100  1
  N  312  1  0.04615400  0.52093800  0.72700700  1
  N  338  1  0.59104600  0.84093100  0.22159800  1
  N  364  1  0.26060900  0.88936400  0.48208400  1
  N  390  1  0.75550200  0.42618700  0.22298200  1
  N  416  1  0.40206900  0.38725200  0.79982500  1
  N  442  1  0.09332700  0.49331000  0.51808000  1
  N  468  1  0.54222200  0.81228900  0.01864400  1
  N  494  1  0.06448500  0.04209400  0.24441200  1
  N  520  1  0.27106300  0.38604800  0.96901100  1
  N  546  1  0.75571000  0.93833300  0.77897200  1
  N  572  1  0.60666400  0.01197300  0.54289900  1
  N  598  1  0.09920400  0.85554700  0.66918100  1
  N  624  1  0.91347400  0.41211400  0.23851300  1
  N  650  1  0.57999600  0.47349600  0.07645100  1
  N  679  1  0.05248800  0.55133100  0.16931300  1
  N  681  1  0.08984600  0.73464900  0.15973500  1
  N  683  1  0.09676600  0.73594900  0.25935200  1
  N  685  1  0.11300900  0.54775800  0.25630000  1
  N  709  1  0.59775600  0.73070700  0.66467400  1
  N  711  1  0.55866500  0.54834800  0.67965100  1
  N  713  1  0.59370200  0.55917600  0.77504600  1
  N  715  1  0.55831100  0.74359600  0.75911500  1
  N  739  1  0.10533300  0.03203790  0.74662200  1
  N  741  1  0.08417300  0.21789600  0.74838400  1
  N  743  1  0.08162300  0.21887900  0.64871800  1
  N  745  1  0.05455000  0.03300590  0.65645200  1
  N  769  1  0.54984500  0.23333700  0.25615600  1
  N  771  1  0.57919000  0.04806490  0.26375800  1
  N  773  1  0.57510000  0.04762190  0.16365300  1
  N  775  1  0.59954300  0.23364900  0.16555100  1
  N  799  1  0.73782800  0.82233900  0.46665400  1
  N  801  1  0.91425700  0.88834600  0.47368900  1
  N  803  1  0.90547600  0.92191300  0.37876700  1
  N  805  1  0.74442400  0.82811500  0.36828300  1
  N  829  1  0.90474500  0.39093200  0.99838200  1
  N  831  1  0.72522000  0.34375500  0.97150000  1
  N  833  1  0.75200800  0.32951400  0.87623000  1
  N  835  1  0.93064500  0.35722400  0.90570900  1
  N  859  1  0.22520300  0.92251700  0.94433100  1
  N  861  1  0.39765400  0.93292400  0.89384400  1
  N  863  1  0.44236400  0.92231700  0.98538400  1
  N  865  1  0.26935100  0.92972600  0.03610180  1
  N  889  1  0.42458400  0.38402700  0.44279700  1
  N  891  1  0.24921600  0.45032900  0.45886500  1
  N  893  1  0.25947800  0.43506700  0.55687800  1
  N  895  1  0.42248200  0.34880300  0.53680500  1
  N  916  1  0.07097000  0.45440800  0.13587500  1
  N  942  1  0.59264600  0.83263100  0.64096700  1
  N  968  1  0.04615400  0.98924300  0.81071300  1
  N  994  1  0.59104600  0.30923600  0.30530400  1
  N  1020  1  0.26060900  0.35766900  0.56579000  1
  N  1046  1  0.75550200  0.89449200  0.30668800  1
  N  1072  1  0.40206900  0.85555700  0.88353100  1
  N  1098  1  0.09332700  0.96161500  0.60178600  1
  N  1124  1  0.54222200  0.28059400  0.10235000  1
  N  1150  1  0.06448500  0.51039900  0.32811800  1
  N  1176  1  0.27106300  0.85435300  0.05271680  1
  N  1202  1  0.75571000  0.40663800  0.86267800  1
  N  1228  1  0.60666400  0.48027800  0.62660500  1
  N  1254  1  0.09920400  0.32385200  0.75288700  1
  N  1280  1  0.91347400  0.88041900  0.32221900  1
  N  1306  1  0.57999600  0.94180100  0.16015700  1
  O  261  1  0.09181900  0.97400800  0.03439300  1
  O  262  1  0.05778500  0.96133500  0.06566300  1
  O  265  1  0.09840200  0.05026800  0.06729200  1
  O  266  1  0.87790100  0.97756700  0.91552300  1
  O  287  1  0.57075300  0.38432800  0.54618600  1
  O  288  1  0.61639900  0.38231700  0.56808600  1
  O  291  1  0.55534800  0.30576400  0.57542900  1
  O  292  1  0.73452400  0.40923900  0.40353100  1
  O  313  1  0.03181700  0.53340000  0.74841500  1
  O  314  1  0.03422100  0.49097700  0.72266900  1
  O  317  1  0.05959600  0.57761300  0.69322400  1
  O  318  1  0.22326200  0.39982600  0.83852900  1
  O  339  1  0.61133400  0.84273100  0.24216700  1
  O  340  1  0.58799100  0.87071000  0.21102400  1
  O  343  1  0.59985200  0.77254000  0.20003000  1
  O  344  1  0.38463000  0.87442300  0.34236700  1
  O  365  1  0.27113300  0.87752900  0.50510600  1
  O  366  1  0.27102400  0.86973200  0.46277600  1
  O  369  1  0.21897300  0.97572500  0.50762900  1
  O  370  1  0.13273100  0.72491100  0.54788600  1
  O  391  1  0.74601100  0.42290800  0.19795100  1
  O  392  1  0.77892700  0.44895900  0.22414300  1
  O  395  1  0.72358900  0.35817000  0.23927700  1
  O  396  1  0.63037600  0.60870900  0.19290900  1
  O  417  1  0.38548300  0.37322400  0.78017100  1
  O  418  1  0.40120000  0.36752100  0.82078500  1
  O  421  1  0.42494600  0.48061700  0.76939800  1
  O  422  1  0.60453300  0.27579600  0.70715500  1
  O  443  1  0.11132300  0.49355500  0.49612800  1
  O  444  1  0.09263700  0.46286300  0.52764500  1
  O  447  1  0.10176300  0.56082200  0.54168300  1
  O  448  1  0.87641800  0.46135400  0.40971500  1
  O  469  1  0.52757700  0.80116100  0.99690000  1
  O  470  1  0.53131900  0.84246900  0.02369400  1
  O  473  1  0.55338400  0.75412000  0.05123900  1
  O  474  1  0.71836000  0.93166800  0.90660000  1
  O  495  1  0.05276100  0.05711900  0.26578700  1
  O  496  1  0.05298600  0.01149600  0.24378900  1
  O  499  1  0.07206100  0.09566100  0.20631100  1
  O  500  1  0.24741600  0.93010200  0.34939600  1
  O  521  1  0.28604400  0.37586200  0.99090200  1
  O  522  1  0.27656800  0.36437500  0.94983000  1
  O  525  1  0.23976800  0.47614400  0.99259100  1
  O  526  1  0.13736900  0.23453500  0.05874500  1
  O  547  1  0.76995100  0.94988500  0.75720000  1
  O  548  1  0.76268000  0.95834600  0.79901300  1
  O  551  1  0.71786800  0.84714900  0.75473300  1
  O  552  1  0.54990800  0.04873100  0.69516000  1
  O  573  1  0.62387700  0.01215000  0.52054500  1
  O  574  1  0.61008800  0.98279600  0.55444800  1
  O  577  1  0.60756700  0.07874700  0.56657100  1
  O  578  1  0.44563700  0.86153100  0.49503000  1
  O  599  1  0.12273900  0.87639500  0.67640100  1
  O  600  1  0.07664600  0.87177900  0.65531600  1
  O  603  1  0.12732200  0.79158500  0.65799600  1
  O  604  1  0.95245800  0.94477500  0.81193900  1
  O  625  1  0.91993400  0.42336100  0.21437500  1
  O  626  1  0.89286600  0.38685400  0.23646000  1
  O  629  1  0.94797300  0.47952900  0.26825200  1
  O  630  1  0.05062300  0.23485200  0.19479200  1
  O  651  1  0.60219700  0.45019500  0.07183600  1
  O  652  1  0.55387300  0.45994600  0.08791900  1
  O  655  1  0.61566600  0.53480000  0.08784700  1
  O  656  1  0.44370100  0.39886400  0.92270100  1
  O  917  1  0.09181900  0.44231300  0.11809900  1
  O  918  1  0.05778500  0.42964000  0.14936900  1
  O  921  1  0.09840200  0.51857300  0.15099800  1
  O  922  1  0.87790100  0.44587200  0.99922900  1
  O  943  1  0.57075300  0.85263300  0.62989200  1
  O  944  1  0.61639900  0.85062200  0.65179200  1
  O  947  1  0.55534800  0.77406900  0.65913500  1
  O  948  1  0.73452400  0.87754400  0.48723700  1
  O  969  1  0.03181700  0.00170487  0.83212100  1
  O  970  1  0.03422100  0.95928200  0.80637500  1
  O  973  1  0.05959600  0.04591790  0.77693000  1
  O  974  1  0.22326200  0.86813100  0.92223500  1
  O  995  1  0.61133400  0.31103600  0.32587300  1
  O  996  1  0.58799100  0.33901500  0.29473000  1
  O  999  1  0.59985200  0.24084500  0.28373600  1
  O  1000  1  0.38463000  0.34272800  0.42607300  1
  O  1021  1  0.27113300  0.34583400  0.58881200  1
  O  1022  1  0.27102400  0.33803700  0.54648200  1
  O  1025  1  0.21897300  0.44403000  0.59133500  1
  O  1026  1  0.13273100  0.19321600  0.63159200  1
  O  1047  1  0.74601100  0.89121300  0.28165700  1
  O  1048  1  0.77892700  0.91726400  0.30784900  1
  O  1051  1  0.72358900  0.82647500  0.32298300  1
  O  1052  1  0.63037600  0.07701390  0.27661500  1
  O  1073  1  0.38548300  0.84152900  0.86387700  1
  O  1074  1  0.40120000  0.83582600  0.90449100  1
  O  1077  1  0.42494600  0.94892200  0.85310400  1
  O  1078  1  0.60453300  0.74410100  0.79086100  1
  O  1099  1  0.11132300  0.96186000  0.57983400  1
  O  1100  1  0.09263700  0.93116800  0.61135100  1
  O  1103  1  0.10176300  0.02912690  0.62538900  1
  O  1104  1  0.87641800  0.92965900  0.49342100  1
  O  1125  1  0.52757700  0.26946600  0.08060580  1
  O  1126  1  0.53131900  0.31077400  0.10740000  1
  O  1129  1  0.55338400  0.22242500  0.13494500  1
  O  1130  1  0.71836000  0.39997300  0.99030600  1
  O  1151  1  0.05276100  0.52542400  0.34949300  1
  O  1152  1  0.05298600  0.47980100  0.32749500  1
  O  1155  1  0.07206100  0.56396600  0.29001700  1
  O  1156  1  0.24741600  0.39840700  0.43310200  1
  O  1177  1  0.28604400  0.84416700  0.07460780  1
  O  1178  1  0.27656800  0.83268000  0.03353580  1
  O  1181  1  0.23976800  0.94444900  0.07629680  1
  O  1182  1  0.13736900  0.70284000  0.14245100  1
  O  1203  1  0.76995100  0.41819000  0.84090600  1
  O  1204  1  0.76268000  0.42665100  0.88271900  1
  O  1207  1  0.71786800  0.31545400  0.83843900  1
  O  1208  1  0.54990800  0.51703600  0.77886600  1
  O  1229  1  0.62387700  0.48045500  0.60425100  1
  O  1230  1  0.61008800  0.45110100  0.63815400  1
  O  1233  1  0.60756700  0.54705200  0.65027700  1
  O  1234  1  0.44563700  0.32983600  0.57873600  1
  O  1255  1  0.12273900  0.34470000  0.76010700  1
  O  1256  1  0.07664600  0.34008400  0.73902200  1
  O  1259  1  0.12732200  0.25989000  0.74170200  1
  O  1260  1  0.95245800  0.41308000  0.89564500  1
  O  1281  1  0.91993400  0.89166600  0.29808100  1
  O  1282  1  0.89286600  0.85515900  0.32016600  1
  O  1285  1  0.94797300  0.94783400  0.35195800  1
  O  1286  1  0.05062300  0.70315700  0.27849800  1
  O  1307  1  0.60219700  0.91850000  0.15554200  1
  O  1308  1  0.55387300  0.92825100  0.17162500  1
  O  1311  1  0.61566600  0.00310487  0.17155300  1
  O  1312  1  0.44370100  0.86716900  0.00640682  1
