# generated using pymatgen
data_H8C10N2O
_symmetry_space_group_name_H-M   'P 1'
_cell_length_a   33.77950000
_cell_length_b   33.77950000
_cell_length_c   33.77950000
_cell_angle_alpha   90.00000000
_cell_angle_beta   90.00000000
_cell_angle_gamma   90.00000000
_symmetry_Int_Tables_number   1
_chemical_formula_structural   H8C10N2O
_chemical_formula_sum   'H768 C960 N192 O96'
_cell_volume   38544.25454473
_cell_formula_units_Z   96
loop_
 _symmetry_equiv_pos_site_id
 _symmetry_equiv_pos_as_xyz
  1  'x, y, z'
loop_
 _atom_site_type_symbol
 _atom_site_label
 _atom_site_symmetry_multiplicity
 _atom_site_fract_x
 _atom_site_fract_y
 _atom_site_fract_z
 _atom_site_occupancy
  H  5  1  0.56153000  0.08664100  0.22656400  1
  H  6  1  0.54712800  0.07140600  0.27356200  1
  H  9  1  0.51920600  0.11697300  0.32131600  1
  H  10  1  0.50726400  0.16559200  0.30876700  1
  H  11  1  0.47899500  0.06638600  0.29316600  1
  H  12  1  0.43750800  0.08032000  0.25778400  1
  H  15  1  0.45246100  0.18059200  0.26212800  1
  H  16  1  0.42499200  0.14415800  0.23728000  1
  H  18  1  0.52251600  0.18786000  0.24710500  1
  H  19  1  0.54767300  0.14696600  0.20747700  1
  H  21  1  0.45754100  0.09658500  0.18866600  1
  H  22  1  0.50704200  0.10279700  0.17466600  1
  H  27  1  0.93319400  0.90550500  0.73642900  1
  H  28  1  0.95000600  0.91880900  0.78335700  1
  H  31  1  0.98150100  0.86994500  0.82717700  1
  H  32  1  0.99214100  0.82217100  0.81047400  1
  H  33  1  0.01940100  0.92308100  0.79960700  1
  H  34  1  0.05932000  0.91083400  0.76237100  1
  H  37  1  0.04482400  0.81055700  0.75891100  1
  H  38  1  0.07018500  0.84915500  0.73523600  1
  H  40  1  0.97795800  0.80466900  0.74644700  1
  H  41  1  0.94849300  0.84663500  0.71100000  1
  H  43  1  0.03489500  0.89924100  0.69275800  1
  H  44  1  0.98477500  0.89436900  0.68102300  1
  H  49  1  0.44652300  0.58233900  0.27779800  1
  H  50  1  0.46377900  0.56335400  0.23301300  1
  H  53  1  0.49572700  0.60795800  0.18323400  1
  H  54  1  0.50520600  0.65739900  0.19531900  1
  H  55  1  0.53568600  0.56276200  0.21626700  1
  H  56  1  0.57185900  0.57405000  0.25801200  1
  H  59  1  0.55666300  0.67599000  0.24585500  1
  H  60  1  0.58187400  0.64036200  0.27401900  1
  H  62  1  0.49027700  0.68145800  0.25917200  1
  H  63  1  0.46249100  0.64498600  0.29826700  1
  H  65  1  0.54769600  0.59493800  0.32128400  1
  H  66  1  0.49746500  0.60000900  0.33227000  1
  H  71  1  0.07099000  0.40717600  0.76445500  1
  H  72  1  0.05766800  0.41929300  0.71605300  1
  H  75  1  0.03224900  0.36797800  0.67038000  1
  H  76  1  0.02290400  0.31998100  0.68744700  1
  H  77  1  0.98943800  0.41916000  0.69358700  1
  H  78  1  0.94740100  0.40563700  0.72808100  1
  H  81  1  0.96655400  0.30643500  0.73513300  1
  H  82  1  0.93781500  0.34430400  0.75584100  1
  H  84  1  0.03130700  0.30459900  0.75447900  1
  H  85  1  0.05588000  0.34735600  0.79097400  1
  H  87  1  0.96663700  0.39678800  0.79945300  1
  H  88  1  0.01580700  0.39507400  0.81538300  1
  H  93  1  0.22697700  0.56160100  0.08687000  1
  H  94  1  0.27401700  0.54724600  0.07171900  1
  H  97  1  0.32168300  0.51927400  0.11735100  1
  H  98  1  0.30902500  0.50725500  0.16592400  1
  H  99  1  0.29365200  0.47916400  0.06658000  1
  H  100  1  0.25835100  0.43759400  0.08042100  1
  H  103  1  0.26238100  0.45240800  0.18073100  1
  H  104  1  0.23763300  0.42498000  0.14419600  1
  H  106  1  0.24730100  0.52246800  0.18808600  1
  H  107  1  0.20775000  0.54763100  0.14712400  1
  H  109  1  0.18911200  0.45757400  0.09658300  1
  H  110  1  0.17507500  0.50705900  0.10282400  1
  H  115  1  0.73635200  0.93310200  0.90541100  1
  H  116  1  0.78330400  0.94983400  0.91872700  1
  H  119  1  0.82720900  0.98120200  0.86991000  1
  H  120  1  0.81059300  0.99186300  0.82210900  1
  H  121  1  0.79967500  0.01919700  0.92301300  1
  H  122  1  0.76255200  0.05918800  0.91068600  1
  H  125  1  0.75913000  0.04463900  0.81042100  1
  H  126  1  0.73547900  0.07007800  0.84898900  1
  H  128  1  0.74661900  0.97776200  0.80455400  1
  H  129  1  0.71106200  0.94835400  0.84650500  1
  H  131  1  0.69286500  0.03486900  0.89906400  1
  H  132  1  0.68106100  0.98476400  0.89418200  1
  H  137  1  0.27748800  0.44650800  0.58242500  1
  H  138  1  0.23270200  0.46379600  0.56347500  1
  H  141  1  0.18298600  0.49579500  0.60811500  1
  H  142  1  0.19512300  0.50528600  0.65754100  1
  H  143  1  0.21601600  0.53569800  0.56288000  1
  H  144  1  0.25780000  0.57185000  0.57411800  1
  H  147  1  0.24571100  0.55671400  0.67606400  1
  H  148  1  0.27387100  0.58188300  0.64040400  1
  H  150  1  0.25897400  0.49031500  0.68154400  1
  H  151  1  0.29802100  0.46248200  0.64504300  1
  H  153  1  0.32107100  0.54765500  0.59495900  1
  H  154  1  0.33202100  0.49741700  0.60003600  1
  H  159  1  0.76452900  0.07110500  0.40706700  1
  H  160  1  0.71612100  0.05779400  0.41919800  1
  H  163  1  0.67046000  0.03231700  0.36784800  1
  H  164  1  0.68757700  0.02296100  0.31986900  1
  H  165  1  0.69364900  0.98955100  0.41906500  1
  H  166  1  0.72817000  0.94751600  0.40557800  1
  H  169  1  0.73528100  0.96661900  0.30636900  1
  H  170  1  0.75596200  0.93790700  0.34427100  1
  H  172  1  0.75471600  0.03132000  0.30451000  1
  H  173  1  0.79113700  0.05589900  0.34721100  1
  H  175  1  0.79951500  0.96676500  0.39678200  1
  H  176  1  0.81544800  0.01593400  0.39505300  1
  H  181  1  0.08679600  0.22683000  0.56137900  1
  H  182  1  0.07156700  0.27379000  0.54685300  1
  H  185  1  0.11711500  0.32147000  0.51880600  1
  H  186  1  0.16572700  0.30889800  0.50686400  1
  H  187  1  0.06652500  0.29320900  0.47867200  1
  H  188  1  0.08042500  0.25768200  0.43728600  1
  H  191  1  0.18071200  0.26215700  0.45218600  1
  H  192  1  0.14427800  0.23723400  0.42478200  1
  H  194  1  0.18801400  0.24730000  0.52235600  1
  H  195  1  0.14711000  0.20775300  0.54758100  1
  H  197  1  0.09671200  0.18866400  0.45747600  1
  H  198  1  0.10297200  0.17478900  0.50700900  1
  H  203  1  0.90549700  0.73622500  0.93314700  1
  H  204  1  0.91882400  0.78317100  0.94989900  1
  H  207  1  0.86999000  0.82705800  0.98133800  1
  H  208  1  0.82220300  0.81039700  0.99200200  1
  H  209  1  0.92311700  0.79950900  0.01926900  1
  H  210  1  0.91085500  0.76234200  0.05924000  1
  H  213  1  0.81056300  0.75890500  0.04475100  1
  H  214  1  0.84915200  0.73524500  0.07014300  1
  H  216  1  0.80466600  0.74636400  0.97789900  1
  H  217  1  0.84661200  0.71085800  0.94847800  1
  H  219  1  0.89920300  0.69269000  0.03490800  1
  H  220  1  0.89432400  0.68089300  0.98480200  1
  H  225  1  0.58231800  0.27772200  0.44652900  1
  H  226  1  0.56341000  0.23290400  0.46377600  1
  H  229  1  0.60810000  0.18318600  0.49570300  1
  H  230  1  0.65752100  0.19534900  0.50518800  1
  H  231  1  0.56286500  0.21614100  0.53566300  1
  H  232  1  0.57407900  0.25790100  0.57185300  1
  H  235  1  0.67602600  0.24589500  0.55666300  1
  H  236  1  0.64035900  0.27400800  0.58187400  1
  H  238  1  0.68146700  0.25922300  0.49026800  1
  H  239  1  0.64493000  0.29827900  0.46247900  1
  H  241  1  0.59487300  0.32121000  0.54771100  1
  H  242  1  0.59992000  0.33221400  0.49748300  1
  H  247  1  0.40717900  0.76448800  0.07109100  1
  H  248  1  0.41929900  0.71607400  0.05779200  1
  H  251  1  0.36796900  0.67041000  0.03234400  1
  H  252  1  0.31998700  0.68750300  0.02297500  1
  H  253  1  0.41919500  0.69359300  0.98956200  1
  H  254  1  0.40569300  0.72806300  0.94750700  1
  H  257  1  0.30648800  0.73518300  0.96661400  1
  H  258  1  0.34438400  0.75586100  0.93788600  1
  H  260  1  0.30461700  0.75459100  0.03133200  1
  H  261  1  0.34734700  0.79105100  0.05590400  1
  H  263  1  0.39687400  0.79945000  0.96673200  1
  H  264  1  0.39514500  0.81539500  0.01589700  1
  H  269  1  0.43275100  0.90743300  0.76769400  1
  H  270  1  0.44704400  0.92259900  0.72064200  1
  H  273  1  0.47488000  0.87695900  0.67289400  1
  H  274  1  0.48686100  0.82836400  0.68550200  1
  H  275  1  0.51512000  0.92761700  0.70087800  1
  H  276  1  0.55670800  0.91374100  0.73616900  1
  H  279  1  0.54177300  0.81346100  0.73204500  1
  H  280  1  0.56927800  0.84994200  0.75677900  1
  H  282  1  0.47175100  0.80618500  0.74724400  1
  H  283  1  0.44668800  0.84714500  0.78686800  1
  H  285  1  0.53683200  0.89757500  0.80537700  1
  H  286  1  0.48736100  0.89138700  0.81949500  1
  H  291  1  0.06104900  0.08872000  0.25805000  1
  H  292  1  0.04429600  0.07539600  0.21110200  1
  H  295  1  0.01285900  0.12428000  0.16721800  1
  H  296  1  0.00222300  0.17206000  0.18392300  1
  H  297  1  0.97491700  0.07114000  0.19475300  1
  H  298  1  0.93494900  0.08340700  0.23192100  1
  H  301  1  0.94946700  0.18369100  0.23541700  1
  H  302  1  0.92408200  0.14509600  0.25906900  1
  H  304  1  0.01627400  0.18955600  0.24803300  1
  H  305  1  0.04567000  0.14759900  0.28350300  1
  H  307  1  0.95928100  0.09502700  0.30157400  1
  H  308  1  0.00938700  0.09985600  0.31338300  1
  H  313  1  0.54769400  0.41188600  0.71673700  1
  H  314  1  0.53040800  0.43082100  0.76153000  1
  H  317  1  0.49841800  0.38616600  0.81123200  1
  H  318  1  0.48892700  0.33674300  0.79908600  1
  H  319  1  0.45850600  0.43140700  0.77821800  1
  H  320  1  0.42235100  0.42017800  0.73643200  1
  H  323  1  0.43749600  0.31822900  0.74849900  1
  H  324  1  0.41232400  0.35389200  0.72034600  1
  H  326  1  0.50390100  0.31276100  0.73523900  1
  H  327  1  0.53173100  0.34928300  0.69619500  1
  H  329  1  0.44654600  0.39935200  0.67315700  1
  H  330  1  0.49678400  0.39428100  0.66220100  1
  H  335  1  0.92335100  0.58707200  0.22964800  1
  H  336  1  0.93666900  0.57492300  0.27804800  1
  H  339  1  0.96209900  0.62624400  0.32374700  1
  H  340  1  0.97142100  0.67424700  0.30667400  1
  H  341  1  0.00491900  0.57506800  0.30052000  1
  H  342  1  0.04694200  0.58861800  0.26602300  1
  H  345  1  0.02776200  0.68782600  0.25898700  1
  H  346  1  0.05650500  0.64996000  0.23827600  1
  H  348  1  0.96304600  0.68965200  0.23956700  1
  H  349  1  0.93850500  0.64694600  0.20310000  1
  H  351  1  0.02768900  0.59746900  0.19467100  1
  H  352  1  0.97852000  0.59917400  0.17873700  1
  H  357  1  0.76755200  0.43274800  0.90751600  1
  H  358  1  0.72055000  0.44716800  0.92271400  1
  H  361  1  0.67283800  0.47511400  0.87712100  1
  H  362  1  0.68542800  0.48707100  0.82851500  1
  H  363  1  0.70097000  0.51530100  0.92774400  1
  H  364  1  0.73638500  0.55677900  0.91384800  1
  H  367  1  0.73207500  0.54185600  0.81356500  1
  H  368  1  0.75691200  0.56930700  0.85001900  1
  H  370  1  0.74709300  0.47175400  0.80628000  1
  H  371  1  0.78667300  0.44660600  0.84721300  1
  H  373  1  0.80549500  0.53673100  0.89761600  1
  H  374  1  0.81948300  0.48722800  0.89139600  1
  H  379  1  0.25800900  0.06121000  0.08871600  1
  H  380  1  0.21104800  0.04450400  0.07539400  1
  H  383  1  0.16713800  0.01311000  0.12422600  1
  H  384  1  0.18378800  0.00242900  0.17201100  1
  H  385  1  0.19465100  0.97515700  0.07107700  1
  H  386  1  0.23174300  0.93513000  0.08336700  1
  H  389  1  0.23524000  0.94962700  0.18364500  1
  H  390  1  0.25886200  0.92420900  0.14504900  1
  H  392  1  0.24782800  0.01646000  0.18954400  1
  H  393  1  0.28336300  0.04586500  0.14760300  1
  H  395  1  0.30145800  0.95942000  0.09499300  1
  H  396  1  0.31328800  0.00951600  0.09987700  1
  H  401  1  0.71680200  0.54788900  0.41200200  1
  H  402  1  0.76162200  0.53063600  0.43090100  1
  H  405  1  0.81130600  0.49866400  0.38620500  1
  H  406  1  0.79911200  0.48914600  0.33679900  1
  H  407  1  0.77836000  0.45876400  0.43150500  1
  H  408  1  0.73661600  0.42255500  0.42032600  1
  H  411  1  0.74853400  0.43767700  0.31835900  1
  H  412  1  0.72044600  0.41249300  0.35406700  1
  H  414  1  0.73521900  0.50406100  0.31287300  1
  H  415  1  0.69620100  0.53188800  0.34941600  1
  H  417  1  0.67327900  0.44670600  0.39955900  1
  H  418  1  0.66228100  0.49693500  0.39447600  1
  H  423  1  0.22953600  0.92331200  0.58707500  1
  H  424  1  0.27794200  0.93661000  0.57491400  1
  H  427  1  0.32366100  0.96204000  0.62625300  1
  H  428  1  0.30657400  0.97136800  0.67425000  1
  H  429  1  0.30045500  0.00485100  0.57509800  1
  H  430  1  0.26593700  0.04688100  0.58860600  1
  H  433  1  0.25890500  0.02772000  0.68782600  1
  H  434  1  0.23820500  0.05646300  0.64995400  1
  H  436  1  0.23943400  0.96302600  0.68964400  1
  H  437  1  0.20297100  0.93849900  0.64697000  1
  H  439  1  0.19460800  0.02766500  0.59746000  1
  H  440  1  0.17865000  0.97850500  0.59916600  1
  H  445  1  0.90749800  0.76761100  0.43283100  1
  H  446  1  0.92270800  0.72062700  0.44729200  1
  H  449  1  0.87712700  0.67290900  0.47522900  1
  H  450  1  0.82850900  0.68547200  0.48715100  1
  H  451  1  0.92768800  0.70109400  0.51545200  1
  H  452  1  0.91376500  0.73656000  0.55688300  1
  H  455  1  0.81349100  0.73214000  0.54189700  1
  H  456  1  0.84991000  0.75701900  0.56936100  1
  H  458  1  0.80625000  0.74710200  0.47176300  1
  H  459  1  0.84717100  0.78668500  0.44661400  1
  H  461  1  0.89750400  0.80561900  0.53678200  1
  H  462  1  0.89129600  0.81956900  0.48726300  1
  H  467  1  0.08882700  0.25798900  0.06127600  1
  H  468  1  0.07558100  0.21100700  0.04456700  1
  H  471  1  0.12450800  0.16714400  0.01325000  1
  H  472  1  0.17228700  0.18385000  0.00262800  1
  H  473  1  0.07138600  0.19457700  0.97520500  1
  H  474  1  0.08367100  0.23169700  0.93519800  1
  H  477  1  0.18392700  0.23529500  0.94982200  1
  H  478  1  0.14534000  0.25887600  0.92435400  1
  H  480  1  0.18972300  0.24791900  0.01666200  1
  H  481  1  0.14771000  0.28341700  0.04600000  1
  H  483  1  0.09518700  0.30141100  0.95948200  1
  H  484  1  0.09998500  0.31326100  0.00958200  1
  H  489  1  0.41193700  0.71680500  0.54774100  1
  H  490  1  0.43085600  0.76159600  0.53043700  1
  H  493  1  0.38618400  0.81127700  0.49842700  1
  H  494  1  0.33676700  0.79910900  0.48894200  1
  H  495  1  0.43142800  0.77826300  0.45853300  1
  H  496  1  0.42022300  0.73645900  0.42239300  1
  H  499  1  0.31826700  0.74849600  0.43753500  1
  H  500  1  0.35394000  0.72034600  0.41236900  1
  H  502  1  0.31280500  0.73526300  0.50394500  1
  H  503  1  0.34933900  0.69623900  0.53179000  1
  H  505  1  0.39940800  0.67318400  0.44660600  1
  H  506  1  0.39434300  0.66224200  0.49684600  1
  H  511  1  0.58717900  0.23012900  0.92319100  1
  H  512  1  0.57498200  0.27848400  0.93661000  1
  H  515  1  0.62618500  0.32416100  0.96220000  1
  H  516  1  0.67419000  0.30715100  0.97158400  1
  H  517  1  0.57496200  0.30078000  0.00488100  1
  H  518  1  0.58848800  0.26623100  0.04686500  1
  H  521  1  0.68772200  0.25936500  0.02784400  1
  H  522  1  0.64984400  0.23854600  0.05649100  1
  H  524  1  0.68968800  0.24017700  0.96304900  1
  H  525  1  0.64699000  0.20367900  0.93832100  1
  H  527  1  0.59746300  0.19490800  0.02748700  1
  H  528  1  0.59928100  0.17908600  0.97828600  1
  H  533  1  0.98434900  0.66305400  0.72076600  1
  H  534  1  0.97786900  0.63743400  0.76519200  1
  H  537  1  0.91140800  0.63401200  0.79542400  1
  H  538  1  0.86959300  0.65223900  0.77111000  1
  H  539  1  0.94304300  0.57729100  0.76701300  1
  H  540  1  0.91904000  0.55728500  0.71416400  1
  H  543  1  0.84268000  0.62311200  0.70860500  1
  H  544  1  0.86512000  0.58306400  0.68480900  1
  H  546  1  0.87505200  0.68319000  0.70646200  1
  H  547  1  0.92946400  0.68385000  0.68305700  1
  H  549  1  0.93674600  0.58737400  0.65769200  1
  H  550  1  0.96261400  0.63199600  0.65794100  1
  H  555  1  0.52044300  0.32139300  0.19165000  1
  H  556  1  0.52124800  0.33859900  0.24044700  1
  H  559  1  0.58519600  0.33786500  0.27776400  1
  H  560  1  0.62950900  0.32415500  0.25493900  1
  H  561  1  0.55410600  0.39683300  0.25630300  1
  H  562  1  0.58096500  0.42706100  0.20888400  1
  H  565  1  0.66119100  0.36349000  0.20071700  1
  H  566  1  0.63966900  0.40656900  0.18163400  1
  H  568  1  0.63056000  0.30282600  0.18437300  1
  H  569  1  0.58254600  0.30549600  0.15487900  1
  H  571  1  0.57104800  0.40591200  0.14746800  1
  H  572  1  0.54638800  0.36143800  0.13885900  1
  H  577  1  0.02151600  0.16740100  0.76803400  1
  H  578  1  0.02718100  0.14218100  0.72357300  1
  H  581  1  0.09339600  0.13654300  0.69339400  1
  H  582  1  0.13602700  0.15255300  0.71790300  1
  H  583  1  0.05856000  0.08128200  0.72142300  1
  H  584  1  0.08190200  0.05969500  0.77415900  1
  H  587  1  0.16143000  0.12149400  0.78011000  1
  H  588  1  0.13709500  0.08256500  0.80383400  1
  H  590  1  0.13158300  0.18279900  0.78237700  1
  H  591  1  0.07641200  0.18597700  0.80547400  1
  H  593  1  0.06575300  0.08972900  0.83092800  1
  H  594  1  0.04200400  0.13551100  0.83120600  1
  H  599  1  0.48787900  0.82278100  0.24602500  1
  H  600  1  0.47819000  0.85223900  0.20495000  1
  H  603  1  0.41043600  0.85674200  0.17864600  1
  H  604  1  0.37024800  0.83516700  0.20302400  1
  H  605  1  0.44355300  0.91088200  0.21098000  1
  H  606  1  0.42192500  0.92584300  0.26680900  1
  H  609  1  0.34617500  0.85900100  0.26964600  1
  H  610  1  0.36939600  0.89705700  0.29578500  1
  H  612  1  0.37944900  0.79980500  0.26192500  1
  H  613  1  0.43747900  0.79707600  0.28174500  1
  H  615  1  0.44281900  0.89100000  0.31907800  1
  H  616  1  0.46851200  0.84667400  0.31342400  1
  H  621  1  0.72020700  0.98426600  0.66298500  1
  H  622  1  0.76471300  0.97787500  0.63747600  1
  H  625  1  0.79503600  0.91144100  0.63405400  1
  H  626  1  0.77073100  0.86958400  0.65218600  1
  H  627  1  0.76673800  0.94307600  0.57730600  1
  H  628  1  0.71395400  0.91904600  0.55714600  1
  H  631  1  0.70832400  0.84263000  0.62292000  1
  H  632  1  0.68459300  0.86507000  0.58283300  1
  H  634  1  0.70595800  0.87495700  0.68304800  1
  H  635  1  0.68245000  0.92925700  0.68364300  1
  H  637  1  0.65739000  0.93665200  0.58711700  1
  H  638  1  0.65750900  0.96249900  0.63175300  1
  H  643  1  0.19125800  0.52049900  0.32144700  1
  H  644  1  0.24004000  0.52121300  0.33870000  1
  H  647  1  0.27748800  0.58507700  0.33796300  1
  H  648  1  0.25477300  0.62943200  0.32420600  1
  H  649  1  0.25590900  0.55406100  0.39692400  1
  H  650  1  0.20851900  0.58102400  0.42711100  1
  H  653  1  0.20056900  0.66125100  0.36348700  1
  H  654  1  0.18141100  0.63978500  0.40656000  1
  H  656  1  0.18422800  0.63062600  0.30282000  1
  H  657  1  0.15461800  0.58270600  0.30544900  1
  H  659  1  0.14710100  0.57123100  0.40589400  1
  H  660  1  0.13849000  0.54657200  0.36141800  1
  H  665  1  0.76712300  0.02150400  0.16740000  1
  H  666  1  0.72282100  0.02732200  0.14193800  1
  H  669  1  0.69291800  0.09364000  0.13612400  1
  H  670  1  0.71751900  0.13618300  0.15223400  1
  H  671  1  0.72109200  0.05862300  0.08100800  1
  H  672  1  0.77399100  0.08179400  0.05964400  1
  H  675  1  0.77996800  0.16133600  0.12138600  1
  H  676  1  0.80375100  0.13687900  0.08257100  1
  H  678  1  0.78175600  0.13154200  0.18270100  1
  H  679  1  0.80460100  0.07618900  0.18609100  1
  H  681  1  0.83056900  0.06542600  0.08994800  1
  H  682  1  0.83056100  0.04174300  0.13576600  1
  H  687  1  0.24611900  0.48798300  0.82297000  1
  H  688  1  0.20507900  0.47832600  0.85249100  1
  H  691  1  0.17872900  0.41059500  0.85702900  1
  H  692  1  0.20304300  0.37038800  0.83541600  1
  H  693  1  0.21116800  0.44367500  0.91112700  1
  H  694  1  0.26699300  0.42199000  0.92600000  1
  H  697  1  0.26967800  0.34625800  0.85914300  1
  H  698  1  0.29589400  0.36945200  0.89716300  1
  H  700  1  0.26190200  0.37954100  0.79996500  1
  H  701  1  0.28176700  0.43755300  0.79721200  1
  H  703  1  0.31923200  0.44286100  0.89108300  1
  H  704  1  0.31353700  0.46856000  0.84676900  1
  H  709  1  0.66308300  0.72066500  0.98434900  1
  H  710  1  0.63750500  0.76511800  0.97787200  1
  H  713  1  0.63408000  0.79533800  0.91140800  1
  H  714  1  0.65226300  0.77100100  0.86959000  1
  H  715  1  0.57734200  0.76699200  0.94306700  1
  H  716  1  0.55728200  0.71416100  0.91908200  1
  H  719  1  0.62307100  0.70851600  0.84270400  1
  H  720  1  0.58301100  0.68476200  0.86516100  1
  H  722  1  0.68316000  0.70631400  0.87504600  1
  H  723  1  0.68381200  0.68291500  0.92945200  1
  H  725  1  0.58731800  0.65765700  0.93679100  1
  H  726  1  0.63195200  0.65786700  0.96264100  1
  H  731  1  0.32144400  0.19120400  0.52044900  1
  H  732  1  0.33869700  0.23998600  0.52116900  1
  H  735  1  0.33791800  0.27743800  0.58503300  1
  H  736  1  0.32413800  0.25472600  0.62938200  1
  H  737  1  0.39688900  0.25585700  0.55405500  1
  H  738  1  0.42707300  0.20846900  0.58103000  1
  H  741  1  0.36339800  0.20052200  0.66122700  1
  H  742  1  0.40648100  0.18136200  0.63978500  1
  H  744  1  0.30274600  0.18418200  0.63056300  1
  H  745  1  0.30540100  0.15457800  0.58263500  1
  H  747  1  0.40585900  0.14704900  0.57124300  1
  H  748  1  0.36140000  0.13843700  0.54655100  1
  H  753  1  0.16749800  0.76753100  0.02140100  1
  H  754  1  0.14219500  0.72312800  0.02716800  1
  H  757  1  0.13645600  0.69314900  0.09345600  1
  H  758  1  0.15246400  0.71775500  0.13603300  1
  H  759  1  0.08125800  0.72116900  0.05846700  1
  H  760  1  0.05973500  0.77399700  0.08166900  1
  H  763  1  0.12144200  0.78007700  0.16123500  1
  H  764  1  0.08256400  0.80377500  0.13679500  1
  H  766  1  0.18276600  0.78214400  0.13145300  1
  H  767  1  0.18607200  0.80506000  0.07617400  1
  H  769  1  0.08986000  0.83067600  0.06536800  1
  H  770  1  0.13567500  0.83081800  0.04168000  1
  H  775  1  0.82286400  0.24635200  0.48798600  1
  H  776  1  0.85226600  0.20522900  0.47832600  1
  H  779  1  0.85671500  0.17886400  0.41058700  1
  H  780  1  0.83515500  0.20323900  0.37038500  1
  H  781  1  0.91090200  0.21115600  0.44366300  1
  H  782  1  0.92592000  0.26695800  0.42199000  1
  H  785  1  0.85906600  0.26981700  0.34625200  1
  H  786  1  0.89715700  0.29592800  0.36944600  1
  H  788  1  0.79987900  0.26221300  0.37954700  1
  H  789  1  0.79718500  0.28207600  0.43755300  1
  H  791  1  0.89115400  0.31928300  0.44284900  1
  H  792  1  0.84683400  0.31369300  0.46856900  1
  H  797  1  0.00990800  0.33119800  0.27303000  1
  H  798  1  0.01648200  0.35685900  0.22864300  1
  H  801  1  0.08298800  0.36026900  0.19853000  1
  H  802  1  0.12475400  0.34200100  0.22289300  1
  H  803  1  0.05132500  0.41698700  0.22694400  1
  H  804  1  0.07525800  0.43693100  0.27984500  1
  H  807  1  0.15158100  0.37108900  0.28547300  1
  H  808  1  0.12911200  0.41111900  0.30926500  1
  H  810  1  0.11919400  0.31104100  0.28747800  1
  H  811  1  0.06468000  0.31034800  0.31076600  1
  H  813  1  0.05744100  0.40680000  0.33626600  1
  H  814  1  0.03156700  0.36218400  0.33594400  1
  H  819  1  0.47371400  0.67280500  0.80311500  1
  H  820  1  0.47297400  0.65559300  0.75431900  1
  H  823  1  0.40908600  0.65636000  0.71690600  1
  H  824  1  0.36474200  0.67009600  0.73966200  1
  H  825  1  0.44011600  0.59738000  0.73841900  1
  H  826  1  0.41318300  0.56715500  0.78580000  1
  H  829  1  0.33296000  0.63076800  0.79384300  1
  H  830  1  0.35443700  0.58767900  0.81295800  1
  H  832  1  0.36359100  0.69142900  0.81022600  1
  H  833  1  0.41152200  0.68876400  0.83980900  1
  H  835  1  0.42300800  0.58831600  0.84723000  1
  H  836  1  0.44767400  0.63278700  0.85586300  1
  H  841  1  0.97283300  0.82674500  0.22698900  1
  H  842  1  0.96703700  0.85211500  0.27134600  1
  H  845  1  0.90074500  0.85785800  0.30129500  1
  H  846  1  0.85818100  0.84179800  0.27669800  1
  H  847  1  0.93572200  0.91303400  0.27320500  1
  H  848  1  0.91252500  0.93448200  0.22034400  1
  H  851  1  0.83297900  0.87274000  0.21432700  1
  H  852  1  0.85741400  0.91159500  0.19058300  1
  H  854  1  0.86278700  0.81142800  0.21238200  1
  H  855  1  0.91810500  0.80810300  0.18949300  1
  H  857  1  0.92885700  0.90428600  0.16370900  1
  H  858  1  0.95255200  0.85847400  0.16363300  1
  H  863  1  0.50628100  0.17124600  0.74794200  1
  H  864  1  0.51594900  0.14175900  0.78900600  1
  H  867  1  0.58368600  0.13730300  0.81538600  1
  H  868  1  0.62387600  0.15894600  0.79106900  1
  H  869  1  0.55067500  0.08316300  0.78297000  1
  H  870  1  0.57236500  0.06826100  0.72715200  1
  H  873  1  0.64805000  0.13519800  0.72444900  1
  H  874  1  0.62489400  0.09714200  0.69825200  1
  H  876  1  0.61470500  0.19434900  0.73218100  1
  H  877  1  0.55670200  0.19703800  0.71229600  1
  H  879  1  0.55150400  0.10314100  0.67488600  1
  H  880  1  0.52575100  0.14743000  0.68054900  1
  H  885  1  0.27364600  0.00992000  0.33116600  1
  H  886  1  0.22918800  0.01641400  0.35672500  1
  H  889  1  0.19899500  0.08289800  0.36013900  1
  H  890  1  0.22335700  0.12470300  0.34196500  1
  H  891  1  0.22730900  0.05121600  0.41687400  1
  H  892  1  0.28015700  0.07517000  0.43696700  1
  H  895  1  0.28584600  0.15156100  0.37117800  1
  H  896  1  0.30957600  0.12908800  0.41124700  1
  H  898  1  0.28805900  0.11921500  0.31108500  1
  H  899  1  0.31143200  0.06480600  0.31043700  1
  H  901  1  0.33665400  0.05744700  0.40694200  1
  H  902  1  0.33643500  0.03159300  0.36231200  1
  H  907  1  0.80308500  0.47375800  0.67297700  1
  H  908  1  0.75428900  0.47307400  0.65575600  1
  H  911  1  0.71683200  0.40921300  0.65643700  1
  H  912  1  0.73955300  0.36484000  0.67013200  1
  H  913  1  0.73837700  0.44029100  0.59749900  1
  H  914  1  0.78573700  0.41334300  0.56726200  1
  H  917  1  0.79372200  0.33306300  0.63078500  1
  H  918  1  0.81285700  0.35456700  0.58772400  1
  H  920  1  0.81010700  0.36361100  0.69148200  1
  H  921  1  0.83973500  0.41151600  0.68887400  1
  H  923  1  0.84717400  0.42312400  0.58843700  1
  H  924  1  0.85582400  0.44772700  0.63294100  1
  H  929  1  0.22722500  0.97282700  0.82670000  1
  H  930  1  0.27154400  0.96703100  0.85213600  1
  H  933  1  0.30147300  0.90073900  0.85794400  1
  H  934  1  0.27688800  0.85817500  0.84186300  1
  H  935  1  0.27331200  0.93575200  0.91307800  1
  H  936  1  0.22042900  0.91256300  0.93446100  1
  H  939  1  0.21446900  0.83299700  0.87275500  1
  H  940  1  0.19068800  0.85745600  0.91157100  1
  H  942  1  0.21263700  0.86277200  0.81143700  1
  H  943  1  0.18976500  0.91812000  0.80803500  1
  H  945  1  0.16383400  0.92890400  0.90418800  1
  H  946  1  0.16380900  0.95256700  0.85835800  1
  H  951  1  0.74797500  0.50626600  0.17140300  1
  H  952  1  0.78905900  0.51592000  0.14194500  1
  H  955  1  0.81543000  0.58365300  0.13746000  1
  H  956  1  0.79109000  0.62386100  0.15904900  1
  H  957  1  0.78306400  0.55058600  0.08331500  1
  H  958  1  0.72724600  0.57226200  0.06836100  1
  H  961  1  0.72447800  0.64800300  0.13522400  1
  H  962  1  0.69831800  0.62480800  0.09716800  1
  H  964  1  0.73216600  0.61471100  0.19439800  1
  H  965  1  0.71229900  0.55670500  0.19713400  1
  H  967  1  0.67496300  0.55141200  0.10321000  1
  H  968  1  0.68060900  0.52569500  0.14752100  1
  H  973  1  0.33108600  0.27369900  0.01011500  1
  H  974  1  0.35660100  0.22920400  0.01654300  1
  H  977  1  0.36011800  0.19898500  0.08300700  1
  H  978  1  0.34204500  0.22335300  0.12485500  1
  H  979  1  0.41683900  0.22724100  0.05122900  1
  H  980  1  0.43700500  0.28005200  0.07518300  1
  H  983  1  0.37136800  0.28579500  0.15167700  1
  H  984  1  0.41143000  0.30948400  0.12915000  1
  H  986  1  0.31121300  0.28811300  0.11944700  1
  H  987  1  0.31052300  0.31152100  0.06507300  1
  H  989  1  0.40703400  0.33658900  0.05751000  1
  H  990  1  0.36235600  0.33643800  0.03174200  1
  H  995  1  0.67285200  0.80319800  0.47374000  1
  H  996  1  0.65562300  0.75440800  0.47305100  1
  H  999  1  0.65638400  0.71692900  0.40920400  1
  H  1000  1  0.67013200  0.73962700  0.36483700  1
  H  1001  1  0.59741300  0.73849600  0.44020200  1
  H  1002  1  0.56720200  0.78585900  0.41321500  1
  H  1005  1  0.63083300  0.79379900  0.33298600  1
  H  1006  1  0.58775000  0.81294900  0.35444000  1
  H  1008  1  0.69149100  0.81018100  0.36361100  1
  H  1009  1  0.68885000  0.83980900  0.41152200  1
  H  1011  1  0.58839300  0.84729000  0.42297300  1
  H  1012  1  0.63286400  0.85593400  0.44763600  1
  H  1017  1  0.82703800  0.22657600  0.97292800  1
  H  1018  1  0.85236400  0.27097400  0.96720900  1
  H  1021  1  0.85806200  0.30107000  0.90095800  1
  H  1022  1  0.84198500  0.27654200  0.85836100  1
  H  1023  1  0.91327600  0.27295700  0.93582600  1
  H  1024  1  0.93473600  0.22015700  0.91252200  1
  H  1027  1  0.87291800  0.21424200  0.83302400  1
  H  1028  1  0.91181100  0.19047500  0.85737600  1
  H  1030  1  0.81162600  0.21213800  0.86287600  1
  H  1031  1  0.80839900  0.18911700  0.91808700  1
  H  1033  1  0.90459700  0.16346800  0.92876200  1
  H  1034  1  0.85881100  0.16330700  0.95250700  1
  H  1039  1  0.17134100  0.74805800  0.50625100  1
  H  1040  1  0.14188600  0.78914500  0.51591100  1
  H  1043  1  0.13742500  0.81552500  0.58364400  1
  H  1044  1  0.15903100  0.79119000  0.62384600  1
  H  1045  1  0.08327200  0.78315300  0.55060100  1
  H  1046  1  0.06832500  0.72733800  0.57228500  1
  H  1049  1  0.13521700  0.72458500  0.64800600  1
  H  1050  1  0.09715000  0.69842100  0.62482900  1
  H  1052  1  0.19438000  0.73227000  0.61468700  1
  H  1053  1  0.19708400  0.71238800  0.55668700  1
  H  1055  1  0.10316100  0.67505500  0.55143200  1
  H  1056  1  0.14746600  0.68069100  0.52570400  1
  H  1063  1  0.53229700  0.19641500  0.15169200  1
  H  1066  1  0.64211200  0.23666200  0.26992800  1
  H  1073  1  0.94715500  0.79754600  0.65986200  1
  H  1076  1  0.88433900  0.74041100  0.80392000  1
  H  1083  1  0.43177100  0.69357800  0.33203000  1
  H  1086  1  0.41714400  0.73363800  0.17013000  1
  H  1093  1  0.06741600  0.29757400  0.83713000  1
  H  1096  1  0.12247300  0.24550100  0.68802700  1
  H  1103  1  0.15188200  0.53211600  0.19649100  1
  H  1106  1  0.26981000  0.64223300  0.23680900  1
  H  1113  1  0.65975300  0.94757200  0.79741600  1
  H  1116  1  0.80331600  0.88360800  0.74032800  1
  H  1123  1  0.33185200  0.43179800  0.69360500  1
  H  1126  1  0.17001400  0.41728900  0.73396000  1
  H  1133  1  0.83699600  0.06826500  0.29746200  1
  H  1136  1  0.68727800  0.12166800  0.24544900  1
  H  1143  1  0.19640900  0.15175500  0.53211900  1
  H  1146  1  0.23673200  0.26981100  0.64208200  1
  H  1153  1  0.79749900  0.65973200  0.94724100  1
  H  1156  1  0.74046400  0.80371300  0.88415500  1
  H  1163  1  0.69357800  0.33218700  0.43196100  1
  H  1166  1  0.73379800  0.17035300  0.41704900  1
  H  1173  1  0.29755900  0.83710000  0.06776000  1
  H  1176  1  0.24553600  0.68774000  0.12213500  1
  H  1183  1  0.46217100  0.79769100  0.84263300  1
  H  1186  1  0.35198000  0.75753700  0.72471200  1
  H  1193  1  0.04741100  0.19674700  0.33441300  1
  H  1196  1  0.10955400  0.25375500  0.19001200  1
  H  1203  1  0.56232700  0.30070300  0.66229300  1
  H  1206  1  0.57698900  0.26028200  0.82409800  1
  H  1213  1  0.92628100  0.69671000  0.15719200  1
  H  1216  1  0.87248500  0.74862600  0.30679900  1
  H  1223  1  0.84256500  0.46207300  0.79784800  1
  H  1226  1  0.72455500  0.35203000  0.75756100  1
  H  1233  1  0.33451700  0.04695300  0.19672300  1
  H  1236  1  0.19066200  0.11028400  0.25379200  1
  H  1243  1  0.66227500  0.56240700  0.30078900  1
  H  1246  1  0.82408000  0.57716700  0.26039100  1
  H  1253  1  0.15720600  0.92594400  0.69672200  1
  H  1256  1  0.30705000  0.87275500  0.74858500  1
  H  1263  1  0.79783700  0.84262700  0.46206200  1
  H  1266  1  0.75753400  0.72460300  0.35205400  1
  H  1273  1  0.19682600  0.33458200  0.04713800  1
  H  1276  1  0.25378900  0.19077400  0.11067500  1
  H  1283  1  0.30071800  0.66233400  0.56233900  1
  H  1286  1  0.26038200  0.82415400  0.57705500  1
  H  1293  1  0.69677800  0.15752000  0.92695300  1
  H  1296  1  0.74905500  0.30659400  0.87199700  1
  H  1303  1  0.44750000  0.07334800  0.35027200  1
  H  1306  1  0.34256000  0.20041500  0.33042800  1
  H  1313  1  0.05275800  0.91074800  0.85486200  1
  H  1316  1  0.16995400  0.79294900  0.83303500  1
  H  1323  1  0.56654200  0.56852900  0.15860600  1
  H  1326  1  0.68117400  0.68760700  0.17953900  1
  H  1333  1  0.96212300  0.40328600  0.63569400  1
  H  1336  1  0.84343200  0.28685800  0.65506000  1
  H  1343  1  0.35064500  0.44750000  0.07355300  1
  H  1346  1  0.33076000  0.34258700  0.20063300  1
  H  1353  1  0.85504000  0.05238300  0.91064800  1
  H  1356  1  0.83345600  0.16959400  0.79281600  1
  H  1363  1  0.15838800  0.56660700  0.56866500  1
  H  1366  1  0.17958300  0.68132200  0.68761300  1
  H  1373  1  0.63576500  0.96222600  0.40317100  1
  H  1376  1  0.65517900  0.84349400  0.28679800  1
  H  1383  1  0.07344300  0.35027200  0.44708800  1
  H  1386  1  0.20034800  0.33010300  0.34204200  1
  H  1393  1  0.91084000  0.85478200  0.05260800  1
  H  1396  1  0.79285100  0.83322200  0.16965400  1
  H  1403  1  0.56871200  0.15847300  0.56648900  1
  H  1406  1  0.68761600  0.17962900  0.68125700  1
  H  1413  1  0.40333700  0.63571700  0.96220000  1
  H  1416  1  0.28679200  0.65502800  0.84361300  1
  H  1423  1  0.54653300  0.92058600  0.64374000  1
  H  1426  1  0.65162100  0.79364200  0.66359500  1
  H  1433  1  0.94162200  0.08347900  0.13946700  1
  H  1436  1  0.82451500  0.20139500  0.16108500  1
  H  1443  1  0.42762400  0.42559300  0.83585700  1
  H  1446  1  0.31283200  0.30670400  0.81471100  1
  H  1453  1  0.03217600  0.59097100  0.35844300  1
  H  1456  1  0.15085800  0.70741800  0.33914100  1
  H  1463  1  0.64387600  0.54680800  0.92076300  1
  H  1466  1  0.66388200  0.65186000  0.79382200  1
  H  1473  1  0.13937800  0.94181700  0.08333900  1
  H  1476  1  0.16079100  0.82485300  0.20143900  1
  H  1483  1  0.83593100  0.42777800  0.42572900  1
  H  1486  1  0.81479900  0.31320500  0.30663000  1
  H  1493  1  0.35837100  0.03212200  0.59097400  1
  H  1496  1  0.33903400  0.15081100  0.70740000  1
  H  1503  1  0.92068300  0.64395000  0.54688500  1
  H  1506  1  0.79382800  0.66403000  0.65201700  1
  H  1513  1  0.08386800  0.13921200  0.94206300  1
  H  1516  1  0.20161200  0.16090400  0.82477000  1
  H  1523  1  0.42565200  0.83583900  0.42755300  1
  H  1526  1  0.30660900  0.81466600  0.31293300  1
  H  1533  1  0.59064900  0.35860200  0.03243800  1
  H  1536  1  0.70735600  0.33926200  0.15086000  1
  H  1543  1  0.89745600  0.57105100  0.82329900  1
  H  1546  1  0.77545000  0.49800700  0.73713700  1
  H  1553  1  0.60574700  0.38834500  0.32011200  1
  H  1556  1  0.69194700  0.49564700  0.22847700  1
  H  1563  1  0.10928700  0.07752700  0.66282900  1
  H  1566  1  0.19596400  0.98148900  0.76550900  1
  H  1573  1  0.39359700  0.92014700  0.15686000  1
  H  1576  1  0.27181500  0.99799200  0.24817600  1
  H  1583  1  0.82307400  0.89750100  0.57111900  1
  H  1586  1  0.73701300  0.77548900  0.49795900  1
  H  1593  1  0.31984500  0.60561000  0.38841600  1
  H  1596  1  0.22835700  0.69209800  0.49560300  1
  H  1603  1  0.66281100  0.10907500  0.07668400  1
  H  1606  1  0.76520700  0.19722500  0.98161100  1
  H  1613  1  0.15699900  0.39371200  0.92042600  1
  H  1616  1  0.24832800  0.27190200  0.99819200  1
  H  1623  1  0.57113100  0.82327500  0.89745000  1
  H  1626  1  0.49808900  0.73696500  0.77557700  1
  H  1633  1  0.38833000  0.31979800  0.60562500  1
  H  1636  1  0.49557600  0.22831900  0.69205600  1
  H  1643  1  0.07727700  0.66276300  0.10913700  1
  H  1646  1  0.98154300  0.76539100  0.19624000  1
  H  1653  1  0.92003800  0.15695900  0.39368300  1
  H  1656  1  0.99816000  0.24829500  0.27211000  1
  H  1663  1  0.09698600  0.42325100  0.17073700  1
  H  1666  1  0.21881500  0.49605300  0.25729300  1
  H  1673  1  0.38853800  0.60593300  0.67452200  1
  H  1676  1  0.30218900  0.49861000  0.76598600  1
  H  1683  1  0.88498100  0.91700900  0.33161300  1
  H  1686  1  0.79821000  0.01275800  0.22872700  1
  H  1693  1  0.60060100  0.07390300  0.83713600  1
  H  1696  1  0.72270200  0.99638900  0.74596800  1
  H  1703  1  0.17107000  0.09681300  0.42310300  1
  H  1706  1  0.25726700  0.21880900  0.49611500  1
  H  1713  1  0.67443600  0.38872400  0.60596900  1
  H  1716  1  0.76591500  0.30238200  0.49864900  1
  H  1723  1  0.33168100  0.88514100  0.91723200  1
  H  1726  1  0.22899800  0.79782800  0.01271700  1
  H  1733  1  0.83724500  0.60053000  0.07409200  1
  H  1736  1  0.74600000  0.72236200  0.99626200  1
  H  1743  1  0.42313000  0.17098600  0.09680000  1
  H  1746  1  0.49632200  0.25707900  0.21879000  1
  H  1753  1  0.60599800  0.67454000  0.38864100  1
  H  1756  1  0.49856600  0.76592400  0.30234300  1
  H  1763  1  0.91732000  0.33142600  0.88527100  1
  H  1766  1  0.01281200  0.22908700  0.79753800  1
  H  1773  1  0.07407000  0.83734900  0.60058400  1
  H  1776  1  0.99624700  0.74600300  0.72235600  1
  H  1783  1  0.41344300  0.03658700  0.21343300  1
  H  1786  1  0.52715400  0.95336900  0.30316600  1
  H  1793  1  0.07986400  0.95357000  0.71457300  1
  H  1796  1  0.97586800  0.03733700  0.81563100  1
  H  1803  1  0.59226500  0.51887400  0.28821100  1
  H  1806  1  0.47039500  0.46127100  0.18822500  1
  H  1813  1  0.92024500  0.44918100  0.77165500  1
  H  1816  1  0.02962400  0.53468300  0.67822000  1
  H  1823  1  0.21374800  0.41363600  0.03682700  1
  H  1826  1  0.30369900  0.52706300  0.95346700  1
  H  1833  1  0.71470900  0.07986800  0.95330100  1
  H  1836  1  0.81544500  0.97583200  0.03739900  1
  H  1843  1  0.28791900  0.59226500  0.51891600  1
  H  1846  1  0.18775600  0.47050500  0.46139300  1
  H  1853  1  0.77167900  0.92035200  0.44917500  1
  H  1856  1  0.67814300  0.02973200  0.53456700  1
  H  1863  1  0.03656500  0.21342800  0.41333700  1
  H  1866  1  0.95363200  0.30331700  0.52714300  1
  H  1873  1  0.95354900  0.71451400  0.07980900  1
  H  1876  1  0.03738900  0.81536500  0.97566900  1
  H  1883  1  0.51884800  0.28792300  0.59231800  1
  H  1886  1  0.46139000  0.18781500  0.47048100  1
  H  1893  1  0.44921100  0.77168500  0.92036400  1
  H  1896  1  0.53473300  0.67821700  0.02969700  1
  H  1903  1  0.58083200  0.95747800  0.78050400  1
  H  1906  1  0.46713600  0.04069300  0.69075700  1
  H  1913  1  0.91436600  0.04072500  0.27975400  1
  H  1916  1  0.01845700  0.95683500  0.17889100  1
  H  1923  1  0.40192200  0.47539500  0.70635500  1
  H  1926  1  0.52372600  0.53287700  0.80648700  1
  H  1933  1  0.07412800  0.54509100  0.22245700  1
  H  1936  1  0.96468300  0.45953300  0.31576600  1
  H  1943  1  0.78068400  0.58081700  0.95764100  1
  H  1946  1  0.69086900  0.46707900  0.04073600  1
  H  1953  1  0.27967800  0.91452600  0.04079200  1
  H  1956  1  0.17887700  0.01849000  0.95668200  1
  H  1963  1  0.70628400  0.40229500  0.47549000  1
  H  1966  1  0.80675300  0.52379100  0.53303400  1
  H  1973  1  0.22249200  0.07407800  0.54498200  1
  H  1976  1  0.31587200  0.96452900  0.45962800  1
  H  1983  1  0.95761700  0.78078500  0.58091800  1
  H  1986  1  0.04063900  0.69098200  0.46711500  1
  H  1993  1  0.04100100  0.27951200  0.91452000  1
  H  1996  1  0.95702500  0.17867900  0.01856400  1
  H  2003  1  0.47545400  0.70637000  0.40200400  1
  H  2006  1  0.53288600  0.80664400  0.52372000  1
  H  2013  1  0.54500800  0.22249800  0.07387700  1
  H  2016  1  0.45946800  0.31596400  0.96454700  1
  C  1  1  0.49925600  0.08171600  0.23323300  1
  C  2  1  0.46883800  0.07653800  0.26432800  1
  C  3  1  0.53887800  0.09119600  0.24924500  1
  C  4  1  0.53671100  0.13312500  0.26257900  1
  C  7  1  0.50857800  0.13546800  0.29693800  1
  C  8  1  0.46590400  0.12102600  0.28289700  1
  C  13  1  0.45456300  0.15125200  0.24880300  1
  C  14  1  0.48501600  0.15138600  0.21344400  1
  C  17  1  0.52863200  0.16164100  0.22917700  1
  C  20  1  0.48645500  0.10651500  0.19938600  1
  C  23  1  0.99582400  0.91095600  0.74040500  1
  C  24  1  0.02816400  0.91412900  0.76989900  1
  C  25  1  0.95704000  0.90029200  0.75771200  1
  C  26  1  0.96013300  0.85808600  0.76908800  1
  C  29  1  0.99035600  0.85309200  0.80097700  1
  C  30  1  0.03201500  0.86839100  0.78503000  1
  C  35  1  0.04153600  0.84084200  0.74815000  1
  C  36  1  0.00830800  0.84280500  0.71518600  1
  C  39  1  0.96600400  0.83171200  0.73377100  1
  C  42  1  0.00655900  0.88867300  0.70430300  1
  C  45  1  0.50924700  0.57670200  0.27537800  1
  C  46  1  0.54177300  0.57123400  0.24647400  1
  C  47  1  0.47060200  0.58481100  0.25626300  1
  C  48  1  0.47325500  0.62503300  0.23940800  1
  C  51  1  0.50385000  0.62751100  0.20773200  1
  C  52  1  0.54550000  0.61483500  0.22603800  1
  C  57  1  0.55347200  0.64675700  0.25957500  1
  C  58  1  0.51932700  0.64779600  0.29179000  1
  C  61  1  0.47658800  0.65538300  0.27115600  1
  C  64  1  0.51917300  0.60346100  0.30849200  1
  C  67  1  0.00875200  0.40973700  0.75491100  1
  C  68  1  0.97880400  0.41050100  0.72276400  1
  C  69  1  0.04933400  0.40070800  0.74124900  1
  C  70  1  0.04939800  0.35832400  0.73014500  1
  C  73  1  0.02222000  0.35116900  0.69618600  1
  C  74  1  0.97864800  0.36431000  0.70846000  1
  C  79  1  0.96769700  0.33713100  0.74524800  1
  C  80  1  0.99838200  0.34160700  0.78050400  1
  C  83  1  0.04280500  0.33240900  0.76538200  1
  C  86  1  0.99639500  0.38764700  0.79054500  1
  C  89  1  0.23369500  0.49933600  0.08186900  1
  C  90  1  0.26482100  0.46894700  0.07670000  1
  C  91  1  0.24966100  0.53895400  0.09144100  1
  C  92  1  0.26290000  0.53673100  0.13339700  1
  C  95  1  0.29726300  0.50860800  0.13577400  1
  C  96  1  0.28328000  0.46595200  0.12123300  1
  C  101  1  0.24912300  0.45454500  0.15136400  1
  C  102  1  0.21375500  0.48498400  0.15146900  1
  C  105  1  0.22943500  0.52859300  0.16182400  1
  C  108  1  0.19979700  0.48648200  0.10657000  1
  C  111  1  0.74044400  0.99572900  0.91082500  1
  C  112  1  0.76999700  0.02801600  0.91401400  1
  C  113  1  0.75768200  0.95690600  0.90019200  1
  C  114  1  0.76908500  0.95995900  0.85798500  1
  C  117  1  0.80104900  0.99010700  0.85301800  1
  C  118  1  0.78517200  0.03180400  0.86828500  1
  C  123  1  0.74833600  0.04139600  0.84070300  1
  C  124  1  0.71528900  0.00825400  0.84265400  1
  C  127  1  0.73379200  0.96591500  0.83157900  1
  C  130  1  0.70437700  0.00651500  0.88851000  1
  C  133  1  0.27511800  0.50922900  0.57677000  1
  C  134  1  0.24623400  0.54177600  0.57131700  1
  C  135  1  0.25597600  0.47060500  0.58491100  1
  C  136  1  0.23915700  0.47328400  0.62514900  1
  C  139  1  0.20750800  0.50391000  0.62764400  1
  C  140  1  0.22583700  0.54553800  0.61493300  1
  C  145  1  0.25940800  0.55349600  0.64682200  1
  C  146  1  0.29159700  0.51932700  0.64785200  1
  C  149  1  0.27093600  0.47660900  0.65546900  1
  C  152  1  0.30826100  0.51914400  0.60350300  1
  C  155  1  0.75497300  0.00887100  0.40968700  1
  C  156  1  0.72283500  0.97891700  0.41043300  1
  C  157  1  0.74132000  0.04944600  0.40062200  1
  C  158  1  0.73021900  0.04947600  0.35824400  1
  C  161  1  0.69628100  0.02228900  0.35106500  1
  C  162  1  0.70855700  0.97872700  0.36423600  1
  C  167  1  0.74536400  0.96778300  0.33707700  1
  C  168  1  0.78059500  0.99849600  0.34156200  1
  C  171  1  0.76546200  0.04292000  0.33233800  1
  C  174  1  0.79061600  0.99651900  0.38761700  1
  C  177  1  0.08186100  0.23332700  0.49908700  1
  C  178  1  0.07666200  0.26433800  0.46859500  1
  C  179  1  0.09135000  0.24944900  0.53866100  1
  C  180  1  0.13328400  0.26276900  0.53643800  1
  C  183  1  0.13560500  0.29706800  0.50822600  1
  C  184  1  0.12113500  0.28292700  0.46559300  1
  C  189  1  0.15137700  0.24882400  0.45432300  1
  C  190  1  0.15152900  0.21352800  0.48485100  1
  C  193  1  0.16180300  0.22934300  0.52843000  1
  C  196  1  0.10666400  0.19945800  0.48635700  1
  C  199  1  0.91094400  0.74028100  0.99577300  1
  C  200  1  0.91414400  0.76982000  0.02807100  1
  C  201  1  0.90029200  0.75754300  0.95696300  1
  C  202  1  0.85809500  0.76894900  0.96004700  1
  C  205  1  0.85311900  0.80088000  0.99022600  1
  C  206  1  0.86841500  0.78497700  0.03190500  1
  C  211  1  0.84084500  0.74812600  0.04147800  1
  C  212  1  0.84278400  0.71511500  0.00829400  1
  C  215  1  0.83170300  0.73365300  0.96596800  1
  C  218  1  0.88864300  0.70420600  0.00655700  1
  C  221  1  0.57669300  0.27528300  0.50925000  1
  C  222  1  0.57127600  0.24636000  0.54176700  1
  C  223  1  0.58483100  0.25618700  0.47060200  1
  C  224  1  0.62508400  0.23939400  0.47324600  1
  C  227  1  0.62761500  0.20771500  0.50383600  1
  C  228  1  0.61490600  0.22599100  0.54549100  1
  C  233  1  0.64677700  0.25957600  0.55347200  1
  C  234  1  0.64776900  0.29180100  0.51933300  1
  C  237  1  0.65538000  0.27119100  0.47659100  1
  C  240  1  0.60341100  0.30843600  0.51918200  1
  C  243  1  0.40978100  0.75491400  0.00885800  1
  C  244  1  0.41054500  0.72276700  0.97891400  1
  C  245  1  0.40072300  0.74127300  0.04943900  1
  C  246  1  0.35833900  0.73017700  0.04947700  1
  C  249  1  0.35118100  0.69621900  0.02230300  1
  C  250  1  0.36434800  0.70848000  0.97873600  1
  C  255  1  0.33719000  0.74527800  0.96776800  1
  C  256  1  0.34166600  0.78053000  0.99845700  1
  C  259  1  0.33243600  0.76542000  0.04287900  1
  C  262  1  0.38771500  0.79055400  0.99648700  1
  C  265  1  0.49501400  0.91237100  0.76087600  1
  C  266  1  0.52535700  0.91750700  0.72970300  1
  C  267  1  0.45535600  0.90285000  0.74497000  1
  C  268  1  0.45750300  0.86090100  0.73169600  1
  C  271  1  0.48556400  0.85850700  0.69728400  1
  C  272  1  0.52826500  0.87298600  0.71120700  1
  C  277  1  0.53968900  0.84281900  0.74532800  1
  C  278  1  0.50930300  0.84273400  0.78074600  1
  C  281  1  0.46565800  0.83244300  0.76512700  1
  C  284  1  0.50789100  0.88762800  0.79473400  1
  C  287  1  0.99842000  0.08328300  0.25398400  1
  C  288  1  0.96611900  0.08010900  0.22444500  1
  C  289  1  0.03723400  0.09392600  0.23673000  1
  C  290  1  0.03416700  0.13612000  0.22532600  1
  C  293  1  0.00398300  0.14113600  0.19341200  1
  C  294  1  0.96230000  0.12584900  0.20931100  1
  C  299  1  0.95274100  0.15340300  0.24617900  1
  C  300  1  0.98594800  0.15144000  0.27917200  1
  C  303  1  0.02828200  0.16250400  0.26062600  1
  C  306  1  0.98764400  0.10557100  0.29006600  1
  C  309  1  0.48497200  0.41753200  0.71911100  1
  C  310  1  0.45242900  0.42297900  0.74799900  1
  C  311  1  0.52359900  0.40939100  0.73825000  1
  C  312  1  0.52092600  0.36914700  0.75505600  1
  C  315  1  0.49030400  0.36664300  0.78670800  1
  C  316  1  0.44867200  0.37935800  0.76838400  1
  C  321  1  0.44071100  0.34747400  0.73480700  1
  C  322  1  0.47488000  0.34645600  0.70261600  1
  C  325  1  0.51760100  0.33883600  0.72327100  1
  C  328  1  0.47505800  0.39080800  0.68596100  1
  C  331  1  0.98558700  0.58450600  0.23920400  1
  C  332  1  0.01554100  0.58374500  0.27134300  1
  C  333  1  0.94500300  0.59352300  0.25286200  1
  C  334  1  0.94493800  0.63589200  0.26399200  1
  C  337  1  0.97211700  0.64305900  0.29794100  1
  C  338  1  0.01569000  0.62993000  0.28565700  1
  C  343  1  0.02662300  0.65712700  0.24887400  1
  C  344  1  0.99592100  0.65264800  0.21363300  1
  C  347  1  0.95148900  0.66182800  0.22876700  1
  C  350  1  0.99792900  0.60660500  0.20357700  1
  C  353  1  0.76090600  0.49502800  0.91244800  1
  C  354  1  0.72981900  0.52545200  0.91761600  1
  C  355  1  0.74488400  0.45541300  0.90294800  1
  C  356  1  0.73158600  0.45759700  0.86100500  1
  C  359  1  0.69723400  0.48573900  0.85864900  1
  C  360  1  0.71127500  0.52840700  0.87311900  1
  C  365  1  0.74538800  0.53974500  0.84291100  1
  C  366  1  0.78074000  0.50928300  0.84279300  1
  C  369  1  0.76501500  0.46567300  0.83251400  1
  C  372  1  0.79477000  0.50782300  0.88767200  1
  C  375  1  0.25389100  0.99858800  0.08326300  1
  C  376  1  0.22432400  0.96631200  0.08006700  1
  C  377  1  0.23667000  0.03741300  0.09392200  1
  C  378  1  0.22527100  0.03433900  0.13612200  1
  C  381  1  0.19330800  0.00419400  0.14109600  1
  C  382  1  0.20916600  0.96250200  0.12580100  1
  C  387  1  0.24601500  0.95288600  0.15335900  1
  C  388  1  0.27906000  0.98603400  0.15141900  1
  C  391  1  0.26056500  0.02837600  0.16251300  1
  C  394  1  0.28996000  0.98777700  0.10555800  1
  C  397  1  0.71922400  0.48517000  0.41767100  1
  C  398  1  0.74814100  0.45264800  0.42310300  1
  C  399  1  0.73832700  0.52380600  0.40949400  1
  C  400  1  0.75509500  0.52112400  0.36923600  1
  C  403  1  0.78676500  0.49052600  0.36671100  1
  C  404  1  0.76848400  0.44888500  0.37946100  1
  C  409  1  0.73487500  0.44089200  0.34761900  1
  C  410  1  0.70265700  0.47503400  0.34661900  1
  C  413  1  0.72327600  0.51776400  0.33896000  1
  C  416  1  0.68605300  0.47522300  0.39098900  1
  C  419  1  0.23912000  0.98554500  0.58449700  1
  C  420  1  0.27127300  0.01548300  0.58374200  1
  C  421  1  0.25276100  0.94495800  0.59351400  1
  C  422  1  0.26390000  0.94489600  0.63588000  1
  C  425  1  0.29785200  0.97206700  0.64305900  1
  C  426  1  0.28558100  0.01564200  0.62993000  1
  C  431  1  0.24879800  0.02658000  0.65712400  1
  C  432  1  0.21355400  0.99588000  0.65264200  1
  C  435  1  0.22868100  0.95143900  0.66181900  1
  C  438  1  0.20349800  0.99790100  0.60659900  1
  C  441  1  0.91238500  0.76101500  0.49511400  1
  C  442  1  0.91755100  0.72995200  0.52556500  1
  C  443  1  0.90292400  0.74495800  0.45550700  1
  C  444  1  0.86098700  0.73163700  0.45767100  1
  C  447  1  0.85863400  0.69729900  0.48583300  1
  C  448  1  0.87306900  0.71137300  0.52849800  1
  C  453  1  0.84283100  0.74547000  0.53979800  1
  C  454  1  0.84271000  0.78080800  0.50931800  1
  C  457  1  0.83246700  0.76505300  0.46570900  1
  C  460  1  0.88757700  0.79487000  0.50787300  1
  C  463  1  0.08346100  0.25384400  0.99864800  1
  C  464  1  0.08034400  0.22426500  0.96637700  1
  C  465  1  0.09408800  0.23664800  0.03749300  1
  C  466  1  0.13630400  0.22529600  0.03448000  1
  C  469  1  0.14135800  0.19333200  0.00434900  1
  C  470  1  0.12610100  0.20916300  0.96263200  1
  C  475  1  0.15362800  0.24604100  0.95304300  1
  C  476  1  0.15160200  0.27909000  0.98618500  1
  C  479  1  0.16266100  0.26061900  0.02854500  1
  C  482  1  0.10572600  0.28993600  0.98785700  1
  C  485  1  0.41757900  0.71915600  0.48501600  1
  C  486  1  0.42301400  0.74803700  0.45246400  1
  C  487  1  0.40943200  0.73830600  0.52363700  1
  C  488  1  0.36918300  0.75510300  0.52095800  1
  C  491  1  0.36666900  0.78674100  0.49032400  1
  C  492  1  0.37938700  0.76840700  0.44869600  1
  C  497  1  0.34751600  0.73481600  0.44075300  1
  C  498  1  0.34650600  0.70263700  0.47493300  1
  C  501  1  0.33888600  0.72330300  0.51764600  1
  C  504  1  0.39086200  0.68599600  0.47511400  1
  C  507  1  0.58451500  0.23952300  0.98544700  1
  C  508  1  0.58365900  0.27159700  0.01546600  1
  C  509  1  0.59358800  0.25329200  0.94491100  1
  C  510  1  0.63596300  0.26445100  0.94493500  1
  C  513  1  0.64301800  0.29836500  0.97220000  1
  C  514  1  0.62982300  0.28597600  0.01572500  1
  C  519  1  0.65704100  0.24920500  0.02663800  1
  C  520  1  0.65266900  0.21400700  0.99587700  1
  C  523  1  0.66191100  0.22922800  0.95150400  1
  C  526  1  0.60664100  0.20389300  0.99776400  1
  C  529  1  0.95663100  0.60676800  0.71421200  1
  C  530  1  0.93370600  0.57639700  0.73591700  1
  C  531  1  0.96386900  0.64363600  0.73664800  1
  C  532  1  0.92490200  0.66276600  0.74209600  1
  C  535  1  0.89813700  0.63791400  0.76616000  1
  C  536  1  0.89158600  0.59701000  0.74411500  1
  C  541  1  0.87135800  0.60928400  0.70282900  1
  C  542  1  0.89934800  0.63850300  0.67877000  1
  C  545  1  0.90679900  0.67829400  0.70506700  1
  C  548  1  0.94059500  0.61485900  0.67446600  1
  C  551  1  0.54660100  0.37846400  0.19858300  1
  C  552  1  0.56762600  0.40410900  0.22762200  1
  C  553  1  0.53833000  0.33800700  0.21294500  1
  C  554  1  0.57716400  0.31906400  0.21925100  1
  C  557  1  0.60133600  0.33894800  0.24974800  1
  C  558  1  0.60923100  0.38278600  0.23564300  1
  C  563  1  0.63279300  0.37772900  0.19473700  1
  C  564  1  0.60769100  0.35266100  0.16388900  1
  C  567  1  0.59908900  0.30859600  0.18227900  1
  C  570  1  0.56640000  0.37622800  0.15966300  1
  C  573  1  0.04674100  0.11051900  0.77477500  1
  C  574  1  0.06811400  0.07954200  0.75246600  1
  C  575  1  0.04139000  0.14761400  0.75217600  1
  C  576  1  0.08124400  0.16522000  0.74685300  1
  C  579  1  0.10684200  0.13947000  0.72266400  1
  C  580  1  0.11116300  0.09811700  0.74448200  1
  C  585  1  0.13211900  0.10909900  0.78589400  1
  C  586  1  0.10553700  0.13933800  0.81043000  1
  C  589  1  0.09966400  0.17945500  0.78436400  1
  C  592  1  0.06319400  0.11755200  0.81446800  1
  C  595  1  0.45969600  0.87742300  0.25997200  1
  C  596  1  0.43511900  0.90908800  0.24232100  1
  C  597  1  0.46598400  0.84304100  0.23351000  1
  C  598  1  0.42681200  0.82363900  0.22830300  1
  C  601  1  0.39863600  0.84995400  0.20799500  1
  C  602  1  0.39295200  0.88860800  0.23422700  1
  C  607  1  0.37498500  0.87258300  0.27527200  1
  C  608  1  0.40440800  0.84186900  0.29554800  1
  C  611  1  0.41108400  0.80532900  0.26526500  1
  C  614  1  0.44575900  0.86521200  0.29964600  1
  C  617  1  0.71384200  0.95659300  0.60665800  1
  C  618  1  0.73565100  0.93371200  0.57632300  1
  C  619  1  0.73617200  0.96383100  0.64358900  1
  C  620  1  0.74162200  0.92485400  0.66269800  1
  C  623  1  0.76577900  0.89813400  0.63788100  1
  C  624  1  0.74383900  0.89158600  0.59692200  1
  C  629  1  0.70255100  0.87130700  0.60909500  1
  C  630  1  0.67839700  0.89925000  0.63827500  1
  C  633  1  0.70458500  0.90670400  0.67814800  1
  C  636  1  0.67409900  0.94050600  0.61464200  1
  C  639  1  0.19819600  0.54667200  0.37852000  1
  C  640  1  0.22725800  0.56765800  0.40417400  1
  C  641  1  0.21257300  0.53834800  0.33807500  1
  C  642  1  0.21897600  0.57716400  0.31912600  1
  C  645  1  0.24950800  0.60127900  0.33901700  1
  C  646  1  0.23538200  0.60923100  0.38283600  1
  C  651  1  0.19452400  0.63286900  0.37773500  1
  C  652  1  0.16364800  0.60782200  0.35264600  1
  C  655  1  0.18206500  0.59916600  0.30860500  1
  C  658  1  0.15931800  0.56654800  0.37622800  1
  C  661  1  0.77425400  0.04665200  0.11050100  1
  C  662  1  0.75217000  0.06808600  0.07940200  1
  C  663  1  0.75145300  0.04142000  0.14749700  1
  C  664  1  0.74620500  0.08131300  0.16504300  1
  C  667  1  0.72222800  0.10697600  0.13917100  1
  C  668  1  0.74424800  0.11117900  0.09791000  1
  C  673  1  0.78569600  0.13199100  0.10904100  1
  C  674  1  0.81000400  0.10534900  0.13941200  1
  C  677  1  0.78373000  0.09961300  0.17939600  1
  C  680  1  0.81397700  0.06296600  0.11770200  1
  C  683  1  0.26012200  0.45978500  0.87759200  1
  C  684  1  0.24250100  0.43522300  0.90928300  1
  C  685  1  0.23361600  0.46610000  0.84324900  1
  C  686  1  0.22834900  0.42693100  0.82385200  1
  C  689  1  0.20805800  0.39877200  0.85019700  1
  C  690  1  0.23434300  0.39306400  0.88881200  1
  C  695  1  0.27534800  0.37506200  0.87271900  1
  C  696  1  0.29560200  0.40447300  0.84198200  1
  C  699  1  0.26527000  0.41117300  0.80548600  1
  C  702  1  0.29976500  0.44581800  0.86532400  1
  C  705  1  0.60678000  0.71416100  0.95665800  1
  C  706  1  0.57641800  0.73589400  0.93374500  1
  C  707  1  0.64367500  0.73656600  0.96387500  1
  C  708  1  0.66279000  0.74198600  0.92489900  1
  C  711  1  0.63795000  0.76606900  0.89814000  1
  C  712  1  0.59702200  0.74406100  0.89161200  1
  C  717  1  0.60924900  0.70276100  0.87138700  1
  C  718  1  0.63845300  0.67867800  0.89936900  1
  C  721  1  0.67827600  0.70493700  0.90679600  1
  C  724  1  0.61482300  0.67440700  0.94062400  1
  C  727  1  0.37849900  0.19814400  0.54665700  1
  C  728  1  0.40414200  0.22720900  0.56765800  1
  C  729  1  0.33806000  0.21252100  0.53830600  1
  C  730  1  0.31908400  0.21892700  0.57710800  1
  C  733  1  0.33896300  0.24945900  0.60123800  1
  C  734  1  0.38277700  0.23533200  0.60922200  1
  C  739  1  0.37766100  0.19447500  0.63285500  1
  C  740  1  0.35258400  0.16360100  0.60779200  1
  C  743  1  0.30854800  0.18201900  0.59910600  1
  C  746  1  0.37619300  0.15926700  0.56653600  1
  C  749  1  0.11058500  0.77443800  0.04654300  1
  C  750  1  0.07955500  0.75223500  0.06795400  1
  C  751  1  0.14765600  0.75176700  0.04129800  1
  C  752  1  0.16521200  0.74653600  0.08118800  1
  C  755  1  0.13940700  0.72245300  0.10682300  1
  C  756  1  0.09807900  0.74433700  0.11104200  1
  C  761  1  0.10908500  0.78579700  0.13189400  1
  C  762  1  0.13938300  0.81022000  0.10527400  1
  C  765  1  0.17946200  0.78408300  0.09952300  1
  C  768  1  0.11766100  0.81416600  0.06289200  1
  C  771  1  0.87752100  0.26020100  0.45977900  1
  C  772  1  0.90914700  0.24249000  0.43519300  1
  C  773  1  0.84310400  0.23379100  0.46610000  1
  C  774  1  0.82368400  0.22857400  0.42693700  1
  C  777  1  0.84996000  0.20821200  0.39876600  1
  C  778  1  0.88864300  0.23439200  0.39304000  1
  C  783  1  0.87266000  0.27544500  0.37505300  1
  C  784  1  0.84197900  0.29577500  0.40447900  1
  C  787  1  0.80540600  0.26553900  0.41118200  1
  C  790  1  0.86534800  0.29987700  0.44581500  1
  C  793  1  0.03764400  0.38746000  0.27969700  1
  C  794  1  0.06061000  0.41784500  0.25805800  1
  C  795  1  0.03042900  0.35061800  0.25720500  1
  C  796  1  0.06939900  0.33147300  0.25180800  1
  C  799  1  0.09621000  0.35633800  0.22781200  1
  C  800  1  0.10273500  0.39722300  0.24990600  1
  C  805  1  0.12289700  0.38491700  0.29121300  1
  C  806  1  0.09486200  0.35568300  0.31520900  1
  C  809  1  0.08744100  0.31592900  0.28886000  1
  C  812  1  0.05361500  0.37933100  0.31946300  1
  C  815  1  0.44754100  0.61573800  0.79614300  1
  C  816  1  0.42654300  0.59010400  0.76707200  1
  C  817  1  0.45585400  0.65619400  0.78179400  1
  C  818  1  0.41703400  0.67515000  0.77543200  1
  C  821  1  0.39290100  0.65528300  0.74489600  1
  C  822  1  0.38495900  0.61144800  0.75899000  1
  C  827  1  0.36134400  0.61651300  0.79986400  1
  C  828  1  0.38640900  0.64157900  0.83074700  1
  C  831  1  0.39505300  0.68563800  0.81236300  1
  C  834  1  0.42768900  0.61799400  0.83503400  1
  C  837  1  0.94767000  0.88364000  0.21998000  1
  C  838  1  0.92624300  0.91469200  0.24213300  1
  C  839  1  0.95292200  0.84660600  0.24271200  1
  C  840  1  0.91303700  0.82904200  0.24795200  1
  C  843  1  0.88738200  0.85486500  0.27199100  1
  C  844  1  0.88315800  0.89616500  0.25004800  1
  C  849  1  0.86231900  0.88510000  0.20859800  1
  C  850  1  0.88895700  0.85477900  0.18422000  1
  C  853  1  0.89471500  0.81474300  0.21041700  1
  C  856  1  0.93133500  0.87650600  0.18025600  1
  C  859  1  0.53454100  0.11664300  0.73398400  1
  C  860  1  0.55913200  0.08498900  0.75163700  1
  C  861  1  0.52818200  0.15099500  0.76046800  1
  C  862  1  0.56732700  0.17043300  0.76574000  1
  C  865  1  0.59551000  0.14413100  0.78605400  1
  C  866  1  0.60126700  0.10550700  0.75979300  1
  C  871  1  0.61926100  0.12159200  0.71878300  1
  C  872  1  0.58982600  0.15229700  0.69850700  1
  C  875  1  0.58307900  0.18880100  0.72881800  1
  C  878  1  0.54851100  0.12890600  0.69433900  1
  C  881  1  0.28013900  0.03760700  0.38747200  1
  C  882  1  0.25840800  0.06054100  0.41782200  1
  C  883  1  0.25774900  0.03040000  0.35056800  1
  C  884  1  0.25235000  0.06937900  0.33144700  1
  C  887  1  0.22827300  0.09615000  0.35627800  1
  C  888  1  0.25026900  0.10267300  0.39721500  1
  C  893  1  0.29158300  0.12287500  0.38500300  1
  C  894  1  0.31565900  0.09487800  0.35580200  1
  C  897  1  0.28941100  0.08746200  0.31597000  1
  C  900  1  0.31990700  0.05362000  0.37943500  1
  C  903  1  0.79610500  0.44765900  0.61588300  1
  C  904  1  0.76702500  0.42670900  0.59021900  1
  C  905  1  0.78175600  0.45593400  0.65634200  1
  C  906  1  0.77536100  0.41709600  0.67525000  1
  C  909  1  0.74481000  0.39301100  0.65535100  1
  C  910  1  0.75890800  0.38511000  0.61151000  1
  C  915  1  0.79976400  0.36145600  0.61656400  1
  C  916  1  0.83065800  0.38647100  0.64165600  1
  C  919  1  0.81227700  0.39508000  0.68572400  1
  C  922  1  0.83498000  0.42777500  0.61812100  1
  C  925  1  0.22012900  0.94769400  0.88359900  1
  C  926  1  0.24223700  0.92628100  0.91469400  1
  C  927  1  0.24291400  0.95292200  0.84659400  1
  C  928  1  0.24816500  0.91302500  0.82905400  1
  C  931  1  0.27216900  0.88738500  0.85491900  1
  C  932  1  0.25017300  0.88318700  0.89619500  1
  C  937  1  0.20873200  0.86234300  0.88509100  1
  C  938  1  0.18439100  0.88896600  0.85472900  1
  C  941  1  0.21064000  0.89470000  0.81473100  1
  C  944  1  0.18041100  0.93135800  0.87642300  1
  C  947  1  0.73405800  0.53447800  0.11676400  1
  C  948  1  0.75173200  0.55905500  0.08511100  1
  C  949  1  0.76051200  0.52815200  0.15114600  1
  C  950  1  0.76576100  0.56731500  0.17055800  1
  C  953  1  0.78609300  0.59548000  0.14425300  1
  C  954  1  0.75986400  0.60120800  0.10560400  1
  C  959  1  0.71883000  0.61920100  0.12163800  1
  C  960  1  0.69853700  0.58978100  0.15235000  1
  C  963  1  0.72882400  0.58307600  0.18888200  1
  C  966  1  0.69440100  0.54844500  0.12898900  1
  C  969  1  0.38745100  0.28010900  0.03769200  1
  C  970  1  0.41782200  0.25833700  0.06055700  1
  C  971  1  0.35050900  0.25776900  0.03055000  1
  C  972  1  0.33145900  0.25238300  0.06956400  1
  C  975  1  0.35631100  0.22826200  0.09627700  1
  C  976  1  0.39728600  0.25020700  0.10272800  1
  C  981  1  0.38515400  0.29152700  0.12297100  1
  C  982  1  0.35593800  0.31565000  0.09503500  1
  C  985  1  0.31605600  0.28945900  0.08768800  1
  C  988  1  0.37950000  0.31988100  0.05373100  1
  C  991  1  0.61578800  0.79622000  0.44756500  1
  C  992  1  0.59014500  0.76713700  0.42659000  1
  C  993  1  0.65623600  0.78186500  0.45589800  1
  C  994  1  0.67519400  0.77545300  0.41709100  1
  C  997  1  0.65531800  0.74489900  0.39298700  1
  C  998  1  0.61149300  0.75900500  0.38502100  1
  C  1003  1  0.61657900  0.79985300  0.36136400  1
  C  1004  1  0.64165300  0.83074700  0.38640000  1
  C  1007  1  0.68570600  0.81235400  0.39507100  1
  C  1010  1  0.61806500  0.83509000  0.42766800  1
  C  1013  1  0.88391800  0.21968300  0.94770600  1
  C  1014  1  0.91494000  0.24190000  0.92629900  1
  C  1015  1  0.84686600  0.24236600  0.95303400  1
  C  1016  1  0.82927000  0.24767900  0.91317600  1
  C  1019  1  0.85506700  0.27178800  0.88755100  1
  C  1020  1  0.89637600  0.24988200  0.88324600  1
  C  1025  1  0.88531000  0.20846600  0.86234000  1
  C  1026  1  0.85502800  0.18402200  0.88895400  1
  C  1029  1  0.81496800  0.21017200  0.89479800  1
  C  1032  1  0.87680500  0.17998700  0.93129900  1
  C  1035  1  0.11671200  0.73414700  0.53448400  1
  C  1036  1  0.08506900  0.75182300  0.55907300  1
  C  1037  1  0.15109100  0.76060100  0.52814300  1
  C  1038  1  0.17051800  0.76585600  0.56729700  1
  C  1041  1  0.14422400  0.78619000  0.59547400  1
  C  1042  1  0.10557900  0.75995900  0.60121700  1
  C  1047  1  0.12161900  0.71893100  0.61921000  1
  C  1048  1  0.15231600  0.69863400  0.58978400  1
  C  1051  1  0.18884700  0.72891600  0.58305800  1
  C  1054  1  0.12894100  0.69449000  0.54845400  1
  C  1057  1  0.59358500  0.26347600  0.18792700  1
  C  1059  1  0.55128100  0.20794500  0.17197100  1
  C  1060  1  0.55624000  0.19184100  0.21050900  1
  C  1062  1  0.60871900  0.23979400  0.22000700  1
  C  1064  1  0.64064300  0.24960200  0.24356600  1
  C  1067  1  0.90629600  0.72375900  0.70965900  1
  C  1069  1  0.93273800  0.78497400  0.68324000  1
  C  1070  1  0.93521900  0.80121700  0.72201800  1
  C  1072  1  0.89730200  0.74525700  0.74523700  1
  C  1074  1  0.87685200  0.73055600  0.77721500  1
  C  1077  1  0.40864500  0.76014800  0.26484700  1
  C  1079  1  0.42520800  0.70287100  0.30399800  1
  C  1080  1  0.44134500  0.68372600  0.26997800  1
  C  1082  1  0.41237500  0.73597900  0.23028300  1
  C  1084  1  0.40371600  0.74775300  0.19218400  1
  C  1087  1  0.10330100  0.22494800  0.78234200  1
  C  1089  1  0.08069700  0.28583600  0.81261200  1
  C  1090  1  0.07599600  0.30345300  0.77465100  1
  C  1092  1  0.11113700  0.24748300  0.74719300  1
  C  1094  1  0.12948800  0.23315200  0.71372300  1
  C  1097  1  0.18783700  0.59359700  0.26351000  1
  C  1099  1  0.17211200  0.55113600  0.20804100  1
  C  1100  1  0.21066900  0.55616000  0.19200000  1
  C  1102  1  0.21995000  0.60874500  0.23988000  1
  C  1104  1  0.24341700  0.64074100  0.24968100  1
  C  1107  1  0.70922400  0.90631700  0.72361700  1
  C  1109  1  0.68303600  0.93302800  0.78482600  1
  C  1110  1  0.72183500  0.93524500  0.80104600  1
  C  1112  1  0.74474200  0.89707700  0.74512400  1
  C  1114  1  0.77655700  0.87636100  0.73044100  1
  C  1117  1  0.26476900  0.40873900  0.76030500  1
  C  1119  1  0.30383200  0.42525200  0.70294800  1
  C  1120  1  0.26978700  0.44138600  0.68384400  1
  C  1122  1  0.23016600  0.41247500  0.73619000  1
  C  1124  1  0.19208400  0.40384300  0.74803100  1
  C  1127  1  0.78176200  0.10343800  0.22486000  1
  C  1129  1  0.81233600  0.08130300  0.28574700  1
  C  1130  1  0.77445500  0.07624700  0.30345100  1
  C  1132  1  0.74656600  0.11097200  0.24740600  1
  C  1134  1  0.71289100  0.12894400  0.23307200  1
  C  1137  1  0.26345300  0.18778700  0.59352900  1
  C  1139  1  0.20797800  0.17201800  0.55109200  1
  C  1140  1  0.19197500  0.21060200  0.55602400  1
  C  1142  1  0.23982900  0.21992700  0.60863000  1
  C  1144  1  0.24961300  0.24342100  0.64061100  1
  C  1147  1  0.72374100  0.70950200  0.90629300  1
  C  1149  1  0.78493800  0.68309200  0.93278500  1
  C  1150  1  0.80120000  0.72186700  0.93520100  1
  C  1152  1  0.74526300  0.74505000  0.89723400  1
  C  1154  1  0.73058000  0.77700100  0.87672800  1
  C  1157  1  0.76022200  0.26510000  0.40874500  1
  C  1159  1  0.70289700  0.30417900  0.42533800  1
  C  1160  1  0.68375200  0.27010700  0.44136900  1
  C  1162  1  0.73606500  0.23051300  0.41237500  1
  C  1164  1  0.74786500  0.19244300  0.40363000  1
  C  1167  1  0.22493800  0.78210500  0.10329600  1
  C  1169  1  0.28583400  0.81252300  0.08094400  1
  C  1170  1  0.30352500  0.77460600  0.07612600  1
  C  1172  1  0.24748800  0.74695700  0.11105100  1
  C  1174  1  0.23315900  0.71340100  0.12924400  1
  C  1177  1  0.40063700  0.73074000  0.80664100  1
  C  1179  1  0.44312100  0.78617900  0.82240800  1
  C  1180  1  0.43807400  0.80227400  0.78387500  1
  C  1182  1  0.38547700  0.75441100  0.77456200  1
  C  1184  1  0.35347800  0.74463300  0.75108900  1
  C  1187  1  0.08804200  0.27046500  0.28435300  1
  C  1189  1  0.06177500  0.20927400  0.31097900  1
  C  1190  1  0.05915300  0.19297000  0.27223100  1
  C  1192  1  0.09690200  0.24893300  0.24876300  1
  C  1194  1  0.11718700  0.26362200  0.21667200  1
  C  1197  1  0.58547100  0.23398600  0.72933000  1
  C  1199  1  0.56890200  0.29135100  0.69030100  1
  C  1200  1  0.55281500  0.31044900  0.72437200  1
  C  1202  1  0.58176500  0.25809200  0.76394300  1
  C  1204  1  0.59044400  0.24624400  0.80201100  1
  C  1207  1  0.89092900  0.76927200  0.21236700  1
  C  1209  1  0.91318500  0.70840900  0.18182800  1
  C  1210  1  0.91817000  0.69070300  0.21971300  1
  C  1212  1  0.88332900  0.74670800  0.24753800  1
  C  1214  1  0.86526800  0.76101500  0.28117600  1
  C  1217  1  0.80654300  0.40062800  0.73082500  1
  C  1219  1  0.82231900  0.44306500  0.78630000  1
  C  1220  1  0.78376000  0.43808000  0.80234500  1
  C  1222  1  0.77443500  0.38549100  0.75447000  1
  C  1224  1  0.75093800  0.35351600  0.74466500  1
  C  1227  1  0.28483200  0.08796300  0.27050400  1
  C  1229  1  0.31118300  0.06144000  0.20929300  1
  C  1230  1  0.27240500  0.05910200  0.19303300  1
  C  1232  1  0.24929800  0.09709400  0.24898600  1
  C  1234  1  0.21738700  0.11766100  0.26367500  1
  C  1237  1  0.72931300  0.58553000  0.23406400  1
  C  1239  1  0.69028000  0.56900500  0.29143800  1
  C  1240  1  0.72436000  0.55296600  0.31056100  1
  C  1242  1  0.76392200  0.58189200  0.25818600  1
  C  1244  1  0.80198700  0.59059800  0.24634200  1
  C  1247  1  0.21256300  0.89084900  0.76926600  1
  C  1249  1  0.18189800  0.91293600  0.70840900  1
  C  1250  1  0.21975400  0.91806600  0.69067700  1
  C  1252  1  0.24774900  0.88336800  0.74669000  1
  C  1254  1  0.28146400  0.86544900  0.76099500  1
  C  1257  1  0.73080200  0.80660200  0.40063400  1
  C  1259  1  0.78627900  0.82237500  0.44306800  1
  C  1260  1  0.80230400  0.78380400  0.43810600  1
  C  1262  1  0.75443700  0.77448200  0.38551200  1
  C  1264  1  0.74464700  0.75098900  0.35353400  1
  C  1267  1  0.27058100  0.28491000  0.08821000  1
  C  1269  1  0.20938100  0.31125700  0.06165100  1
  C  1270  1  0.19312900  0.27247500  0.05931500  1
  C  1272  1  0.24904900  0.24939300  0.09737200  1
  C  1274  1  0.26372300  0.21750000  0.11798000  1
  C  1277  1  0.23403100  0.72939900  0.58548300  1
  C  1279  1  0.29137900  0.69034200  0.56892500  1
  C  1280  1  0.31050200  0.72441000  0.55285600  1
  C  1282  1  0.25815900  0.76399900  0.58180600  1
  C  1284  1  0.24632900  0.80207300  0.59049800  1
  C  1287  1  0.76947900  0.21225000  0.89113900  1
  C  1289  1  0.70855700  0.18203800  0.91370300  1
  C  1290  1  0.69096400  0.22002000  0.91838000  1
  C  1292  1  0.74698900  0.24742500  0.88330000  1
  C  1294  1  0.76136800  0.28088400  0.86496600  1
  C  1297  1  0.35705100  0.11129800  0.34723500  1
  C  1299  1  0.42690100  0.09437600  0.34361100  1
  C  1300  1  0.43413300  0.12441500  0.31545800  1
  C  1302  1  0.36595900  0.14640500  0.32586100  1
  C  1304  1  0.33918200  0.17530700  0.31562700  1
  C  1307  1  0.14281700  0.87246500  0.84690500  1
  C  1309  1  0.07291100  0.88996300  0.84638400  1
  C  1310  1  0.06512200  0.86265700  0.81576800  1
  C  1312  1  0.13310100  0.83898000  0.82324500  1
  C  1314  1  0.15938400  0.81001800  0.81162900  1
  C  1317  1  0.65762400  0.60462500  0.16467800  1
  C  1319  1  0.58751400  0.58854700  0.16703600  1
  C  1320  1  0.58045600  0.61707900  0.19678000  1
  C  1322  1  0.64914300  0.63822200  0.18861600  1
  C  1324  1  0.67622700  0.66666667  0.19946800  1
  C  1327  1  0.87158000  0.36619000  0.64310100  1
  C  1329  1  0.94166900  0.38263200  0.64382900  1
  C  1330  1  0.94846900  0.35608300  0.67533300  1
  C  1332  1  0.88084300  0.33211000  0.66606400  1
  C  1334  1  0.85384700  0.30340900  0.67688700  1
  C  1337  1  0.34748000  0.35705400  0.11148500  1
  C  1339  1  0.34397200  0.42691900  0.09459200  1
  C  1340  1  0.31586300  0.43419900  0.12466000  1
  C  1342  1  0.32618300  0.36599700  0.14663000  1
  C  1344  1  0.31593400  0.33923300  0.17553600  1
  C  1347  1  0.84725700  0.14246300  0.87237600  1
  C  1349  1  0.84661800  0.07255300  0.88985700  1
  C  1350  1  0.81599300  0.06483300  0.86254700  1
  C  1352  1  0.82360400  0.13279600  0.83887600  1
  C  1354  1  0.81203700  0.15911100  0.80992400  1
  C  1357  1  0.16462800  0.65772500  0.60464500  1
  C  1359  1  0.16686300  0.58759100  0.58865300  1
  C  1360  1  0.19661500  0.58052400  0.61717700  1
  C  1362  1  0.18857100  0.64924600  0.63824000  1
  C  1364  1  0.19948100  0.67634600  0.66659700  1
  C  1367  1  0.64315400  0.87166500  0.36611300  1
  C  1369  1  0.64391200  0.94175800  0.38253400  1
  C  1370  1  0.67544300  0.94853800  0.35600900  1
  C  1372  1  0.66616500  0.88090500  0.33205400  1
  C  1374  1  0.67699400  0.85389400  0.30337100  1
  C  1377  1  0.11125300  0.34703000  0.35658600  1
  C  1379  1  0.09442900  0.34354600  0.42646900  1
  C  1380  1  0.12447100  0.31539900  0.43372200  1
  C  1382  1  0.14635000  0.32563300  0.36548200  1
  C  1384  1  0.17521600  0.31533600  0.33869400  1
  C  1387  1  0.87245900  0.84697900  0.14263700  1
  C  1389  1  0.89002600  0.84635400  0.07274900  1
  C  1390  1  0.86269000  0.81576500  0.06497000  1
  C  1392  1  0.83895600  0.82335200  0.13291700  1
  C  1394  1  0.80996200  0.81179500  0.15919200  1
  C  1397  1  0.60468700  0.16465200  0.65760900  1
  C  1399  1  0.58869500  0.16694300  0.58747800  1
  C  1400  1  0.61718500  0.19673200  0.58044400  1
  C  1402  1  0.63826000  0.18863200  0.64915700  1
  C  1404  1  0.66666667  0.19953400  0.67626900  1
  C  1407  1  0.36616000  0.64305600  0.87168300  1
  C  1409  1  0.38266700  0.64384100  0.94175800  1
  C  1410  1  0.35612200  0.67534800  0.94856400  1
  C  1412  1  0.33209500  0.66603800  0.88095800  1
  C  1414  1  0.30337900  0.67685200  0.85397700  1
  C  1417  1  0.63702300  0.88274600  0.64678000  1
  C  1419  1  0.56714900  0.89957900  0.65039800  1
  C  1420  1  0.55996400  0.86955200  0.67857800  1
  C  1422  1  0.62815700  0.84762400  0.66814800  1
  C  1424  1  0.65496900  0.81875800  0.67839100  1
  C  1427  1  0.85157900  0.12183100  0.14727800  1
  C  1429  1  0.92147100  0.10428000  0.14790900  1
  C  1430  1  0.92923600  0.13159100  0.17852700  1
  C  1432  1  0.86128600  0.15531200  0.17094200  1
  C  1434  1  0.83500400  0.18429700  0.18250800  1
  C  1437  1  0.33650300  0.38961500  0.82963700  1
  C  1439  1  0.40663700  0.40560700  0.82737800  1
  C  1440  1  0.41369200  0.37710200  0.79761200  1
  C  1442  1  0.34497300  0.35603000  0.80567900  1
  C  1444  1  0.31786500  0.32767200  0.79477800  1
  C  1447  1  0.12272200  0.62809100  0.35113000  1
  C  1449  1  0.05263800  0.61162300  0.35031300  1
  C  1450  1  0.04586700  0.63815100  0.31878500  1
  C  1452  1  0.11347800  0.66214500  0.32811600  1
  C  1454  1  0.14047900  0.69084600  0.31731100  1
  C  1457  1  0.64702000  0.63729800  0.88292400  1
  C  1459  1  0.65056700  0.56742100  0.89976200  1
  C  1460  1  0.67872900  0.56019500  0.86973200  1
  C  1462  1  0.66840000  0.62840800  0.84781400  1
  C  1464  1  0.67866900  0.65520300  0.81894400  1
  C  1467  1  0.14712300  0.85181000  0.12178400  1
  C  1469  1  0.14777200  0.92169000  0.10418100  1
  C  1470  1  0.17833900  0.92947600  0.13154300  1
  C  1472  1  0.17070700  0.86154400  0.15531000  1
  C  1474  1  0.18223200  0.83528200  0.18432600  1
  C  1477  1  0.82971400  0.33670400  0.38963900  1
  C  1479  1  0.82747000  0.40682400  0.40570800  1
  C  1480  1  0.79773000  0.41392000  0.37718200  1
  C  1482  1  0.80579700  0.34522400  0.35603600  1
  C  1484  1  0.79489700  0.31815500  0.32764600  1
  C  1487  1  0.35104700  0.12267700  0.62806500  1
  C  1489  1  0.35023900  0.05258900  0.61161700  1
  C  1490  1  0.31870800  0.04582100  0.63814500  1
  C  1492  1  0.32803100  0.11344200  0.66211800  1
  C  1494  1  0.31721300  0.14045100  0.69080700  1
  C  1497  1  0.88290000  0.64711500  0.63739900  1
  C  1499  1  0.89970300  0.65066100  0.56751300  1
  C  1500  1  0.86969400  0.67885300  0.56031400  1
  C  1502  1  0.84780800  0.66853300  0.62853600  1
  C  1504  1  0.81895600  0.67881200  0.65534800  1
  C  1507  1  0.12214800  0.14704600  0.85199100  1
  C  1509  1  0.10465600  0.14765700  0.92190000  1
  C  1510  1  0.13191100  0.17833400  0.92962100  1
  C  1512  1  0.15562100  0.17073200  0.86167100  1
  C  1514  1  0.18457300  0.18232400  0.83536200  1
  C  1517  1  0.38958000  0.82957500  0.33647400  1
  C  1519  1  0.40564000  0.82736000  0.40659600  1
  C  1520  1  0.37712000  0.79761500  0.41370100  1
  C  1522  1  0.35598500  0.80564900  0.34499600  1
  C  1524  1  0.32759500  0.79474300  0.31792400  1
  C  1527  1  0.62788400  0.35119600  0.12292600  1
  C  1529  1  0.61133900  0.35047900  0.05286100  1
  C  1530  1  0.63795800  0.31905200  0.04598400  1
  C  1532  1  0.66197600  0.32827600  0.11360400  1
  C  1534  1  0.69071200  0.31745000  0.14055800  1
  C  1537  1  0.81028500  0.52762200  0.81448900  1
  C  1539  1  0.87250000  0.56180000  0.80903000  1
  C  1540  1  0.86494200  0.57144200  0.76905300  1
  C  1542  1  0.80360600  0.53541400  0.77342200  1
  C  1544  1  0.77139700  0.52312200  0.75161300  1
  C  1547  1  0.67310400  0.45989500  0.31587500  1
  C  1549  1  0.62591300  0.40644200  0.30681900  1
  C  1550  1  0.63321900  0.40516900  0.26568400  1
  C  1552  1  0.67890000  0.45941800  0.27388400  1
  C  1554  1  0.70411400  0.48181600  0.25137200  1
  C  1557  1  0.18123500  0.01292900  0.67903700  1
  C  1559  1  0.12959400  0.06243600  0.67927600  1
  C  1560  1  0.13550100  0.07007600  0.71995200  1
  C  1562  1  0.18428100  0.01827600  0.72090500  1
  C  1564  1  0.20933200  0.99909300  0.74627600  1
  C  1567  1  0.31197900  0.97009200  0.17762600  1
  C  1569  1  0.37087300  0.92990800  0.17418200  1
  C  1570  1  0.36553300  0.91680800  0.21346900  1
  C  1572  1  0.30868400  0.95963900  0.21864300  1
  C  1574  1  0.28061000  0.97030500  0.24623400  1
  C  1577  1  0.81437300  0.81034100  0.52763400  1
  C  1579  1  0.80883700  0.87254200  0.56182900  1
  C  1580  1  0.76884600  0.86496600  0.57139400  1
  C  1582  1  0.77330100  0.80363600  0.53536700  1
  C  1584  1  0.75152700  0.77141500  0.52304800  1
  C  1587  1  0.31572100  0.67309200  0.45985000  1
  C  1589  1  0.30658600  0.62581800  0.40648600  1
  C  1590  1  0.26546000  0.63318000  0.40520800  1
  C  1592  1  0.27373600  0.67893900  0.45938200  1
  C  1594  1  0.25126100  0.70421500  0.48174500  1
  C  1597  1  0.67908700  0.18170300  0.01289000  1
  C  1599  1  0.67925900  0.12958700  0.06187000  1
  C  1600  1  0.71987200  0.13558200  0.06979200  1
  C  1602  1  0.72090500  0.18490800  0.01852400  1
  C  1604  1  0.74622200  0.21028500  0.99969200  1
  C  1607  1  0.17778900  0.31204700  0.97028100  1
  C  1609  1  0.17432900  0.37098900  0.93017100  1
  C  1610  1  0.21360800  0.36565400  0.91704200  1
  C  1612  1  0.21881200  0.30878800  0.95984300  1
  C  1614  1  0.24642100  0.28073200  0.97051200  1
  C  1617  1  0.52768100  0.81445000  0.81029100  1
  C  1619  1  0.56186200  0.80900300  0.87250300  1
  C  1620  1  0.57146800  0.76901400  0.86496600  1
  C  1622  1  0.53544900  0.77337800  0.80363000  1
  C  1624  1  0.52313400  0.75154500  0.77144800  1
  C  1627  1  0.45978800  0.31567100  0.67308300  1
  C  1629  1  0.40640700  0.30653500  0.62582700  1
  C  1630  1  0.40513400  0.26540800  0.63318300  1
  C  1632  1  0.45932300  0.27368400  0.67892400  1
  C  1634  1  0.48171000  0.25121300  0.70418500  1
  C  1637  1  0.01295200  0.67903400  0.18130700  1
  C  1639  1  0.06227900  0.67922600  0.12950400  1
  C  1640  1  0.07000600  0.71988400  0.13541600  1
  C  1642  1  0.01838500  0.72088700  0.18437900  1
  C  1644  1  0.99930700  0.74624900  0.20952200  1
  C  1647  1  0.97009800  0.17767100  0.31212100  1
  C  1649  1  0.92984300  0.17427100  0.37097100  1
  C  1650  1  0.91680800  0.21358000  0.36562700  1
  C  1652  1  0.95971300  0.21870600  0.30883200  1
  C  1654  1  0.97043800  0.24629200  0.28078000  1
  C  1657  1  0.18417200  0.46660900  0.17970600  1
  C  1659  1  0.12192900  0.43247300  0.18504700  1
  C  1660  1  0.12942500  0.42279800  0.22502700  1
  C  1662  1  0.19078800  0.45878200  0.22077500  1
  C  1664  1  0.22296000  0.47104600  0.24265000  1
  C  1667  1  0.32112700  0.53442500  0.67863700  1
  C  1669  1  0.36834800  0.58783900  0.68778200  1
  C  1670  1  0.36100000  0.58909100  0.72891000  1
  C  1672  1  0.31529200  0.53487500  0.72062400  1
  C  1674  1  0.29005000  0.51246800  0.74309000  1
  C  1677  1  0.81294300  0.98144500  0.31520900  1
  C  1679  1  0.86465800  0.93202500  0.31511400  1
  C  1680  1  0.85877600  0.92427100  0.27445500  1
  C  1682  1  0.80992400  0.97600100  0.27335200  1
  C  1684  1  0.78485800  0.99511300  0.24793800  1
  C  1687  1  0.68237300  0.02418700  0.81643700  1
  C  1689  1  0.62336100  0.06420100  0.81983200  1
  C  1690  1  0.62870700  0.07732800  0.78055400  1
  C  1692  1  0.68567700  0.03465200  0.77542400  1
  C  1694  1  0.71379100  0.02404200  0.74785100  1
  C  1697  1  0.17984900  0.18398200  0.46653800  1
  C  1699  1  0.18533000  0.12177100  0.43236600  1
  C  1700  1  0.22531500  0.12932700  0.42275700  1
  C  1702  1  0.22091600  0.19067000  0.45876400  1
  C  1704  1  0.24270400  0.22289300  0.47105200  1
  C  1707  1  0.67854800  0.32133400  0.53444300  1
  C  1709  1  0.68769600  0.36854600  0.58786300  1
  C  1710  1  0.72882100  0.36119300  0.58911800  1
  C  1712  1  0.72053500  0.31550200  0.53488700  1
  C  1714  1  0.74301000  0.29024900  0.51249500  1
  C  1717  1  0.31530700  0.81286300  0.98139800  1
  C  1719  1  0.31519700  0.86474400  0.93216100  1
  C  1720  1  0.27456000  0.85881400  0.92432500  1
  C  1722  1  0.27346500  0.80977300  0.97586800  1
  C  1724  1  0.24808600  0.78458900  0.99486700  1
  C  1727  1  0.81655200  0.68218900  0.02419100  1
  C  1729  1  0.81994200  0.62326600  0.06433600  1
  C  1730  1  0.78065200  0.62862100  0.07741900  1
  C  1732  1  0.77553000  0.68549600  0.03462100  1
  C  1734  1  0.74795700  0.71358700  0.02395600  1
  C  1737  1  0.46668900  0.17971900  0.18391800  1
  C  1739  1  0.43243400  0.18523300  0.12174900  1
  C  1740  1  0.42285100  0.22522000  0.12932900  1
  C  1742  1  0.45892700  0.22078500  0.19063000  1
  C  1744  1  0.47123000  0.24256600  0.22285400  1
  C  1747  1  0.53444000  0.67860400  0.32129000  1
  C  1749  1  0.58789000  0.68778700  0.36846000  1
  C  1750  1  0.58913000  0.72891000  0.36108300  1
  C  1752  1  0.53487200  0.72058800  0.31543100  1
  C  1754  1  0.51242700  0.74303100  0.29020100  1
  C  1757  1  0.98134400  0.31521200  0.81281600  1
  C  1759  1  0.93222900  0.31499000  0.86481800  1
  C  1760  1  0.92443100  0.27434900  0.85886200  1
  C  1762  1  0.97582900  0.27337700  0.80967200  1
  C  1764  1  0.99477600  0.24805500  0.78439000  1
  C  1767  1  0.02416300  0.81659300  0.68222800  1
  C  1769  1  0.06431300  0.82003000  0.62330700  1
  C  1770  1  0.07740000  0.78073700  0.62864200  1
  C  1772  1  0.03459200  0.77556900  0.68550500  1
  C  1774  1  0.02393700  0.74797500  0.71357800  1
  C  1777  1  0.45171200  0.95067800  0.24079200  1
  C  1779  1  0.43339300  0.01831600  0.22694800  1
  C  1780  1  0.46272500  0.03305900  0.25331300  1
  C  1782  1  0.48572100  0.96501500  0.26143200  1
  C  1784  1  0.51428300  0.94195700  0.27932900  1
  C  1787  1  0.04811100  0.03963700  0.74858500  1
  C  1789  1  0.06165900  0.97209600  0.73005300  1
  C  1790  1  0.03473100  0.95757000  0.75907900  1
  C  1792  1  0.01514100  0.02590400  0.77126400  1
  C  1794  1  0.98875100  0.04911800  0.79194500  1
  C  1797  1  0.55102100  0.44324500  0.24169400  1
  C  1799  1  0.57077900  0.50497200  0.27209600  1
  C  1800  1  0.54183200  0.52606200  0.25032700  1
  C  1802  1  0.51618300  0.46223600  0.22742800  1
  C  1804  1  0.48690800  0.44415700  0.20554400  1
  C  1807  1  0.95250100  0.53587900  0.73947300  1
  C  1809  1  0.93881900  0.46807400  0.75708700  1
  C  1810  1  0.96910000  0.45387600  0.73139400  1
  C  1812  1  0.98732100  0.52263100  0.71942500  1
  C  1814  1  0.01522200  0.54610400  0.70111500  1
  C  1817  1  0.24107800  0.45182500  0.95087300  1
  C  1819  1  0.22728400  0.43355000  0.01853300  1
  C  1820  1  0.25374500  0.46281900  0.03323800  1
  C  1822  1  0.26184400  0.48577400  0.96518100  1
  C  1824  1  0.27979300  0.51428300  0.94209900  1
  C  1827  1  0.74842800  0.04809300  0.03947500  1
  C  1829  1  0.73011200  0.06164800  0.97187100  1
  C  1830  1  0.75911800  0.03465000  0.95743000  1
  C  1832  1  0.77111000  0.01509700  0.02581200  1
  C  1834  1  0.79171400  0.98871000  0.04909800  1
  C  1837  1  0.24129900  0.55106500  0.44332800  1
  C  1839  1  0.27177500  0.57079000  0.50502600  1
  C  1840  1  0.25002500  0.54184400  0.52613900  1
  C  1842  1  0.22702000  0.51624000  0.46233100  1
  C  1844  1  0.20508600  0.48699100  0.44426700  1
  C  1847  1  0.73931300  0.95254300  0.53582800  1
  C  1849  1  0.75707800  0.93891600  0.46805000  1
  C  1850  1  0.73141500  0.96921000  0.45382000  1
  C  1852  1  0.71931800  0.98738700  0.52256600  1
  C  1854  1  0.70098800  0.01528400  0.54603000  1
  C  1857  1  0.95075200  0.24090500  0.45173600  1
  C  1859  1  0.01834400  0.22698100  0.43331000  1
  C  1860  1  0.03316000  0.25336400  0.46258600  1
  C  1862  1  0.96516600  0.26155300  0.48570900  1
  C  1864  1  0.94216700  0.27949700  0.51428900  1
  C  1867  1  0.03964200  0.74837500  0.04796200  1
  C  1869  1  0.97208100  0.72994900  0.06157600  1
  C  1870  1  0.95757900  0.75897000  0.03462700  1
  C  1872  1  0.02591700  0.77104200  0.01498000  1
  C  1874  1  0.04914900  0.79167900  0.98857100  1
  C  1877  1  0.44329300  0.24127300  0.55108900  1
  C  1879  1  0.50496900  0.27178700  0.57083500  1
  C  1880  1  0.52609500  0.25009700  0.54185300  1
  C  1882  1  0.46230400  0.22704400  0.51624500  1
  C  1884  1  0.44425200  0.20512100  0.48698200  1
  C  1887  1  0.53591700  0.73947300  0.95257300  1
  C  1889  1  0.46811000  0.75710800  0.93892800  1
  C  1890  1  0.45391800  0.73140000  0.96920100  1
  C  1892  1  0.52267500  0.71941900  0.98739200  1
  C  1894  1  0.54615700  0.70110300  0.01528600  1
  C  1897  1  0.54256900  0.04338600  0.75313200  1
  C  1899  1  0.56088200  0.97574900  0.76698900  1
  C  1900  1  0.53151800  0.96099500  0.74066300  1
  C  1902  1  0.50855400  0.02904500  0.73250100  1
  C  1904  1  0.47999000  0.05209900  0.71460800  1
  C  1907  1  0.94622000  0.95461800  0.24594000  1
  C  1909  1  0.93259600  0.02218600  0.26431900  1
  C  1910  1  0.95954400  0.03667700  0.23529300  1
  C  1912  1  0.97918600  0.96833400  0.22324400  1
  C  1914  1  0.00558700  0.94509500  0.20260500  1
  C  1917  1  0.44313600  0.55096500  0.75299600  1
  C  1919  1  0.42339900  0.48927900  0.72249500  1
  C  1920  1  0.45236000  0.46815700  0.74422400  1
  C  1922  1  0.47796800  0.53195600  0.76724700  1
  C  1924  1  0.50722500  0.55001100  0.78917400  1
  C  1927  1  0.04182500  0.45837000  0.25453400  1
  C  1929  1  0.05554300  0.52619200  0.23700300  1
  C  1930  1  0.02525100  0.54037300  0.26269200  1
  C  1932  1  0.00700400  0.47161200  0.27458600  1
  C  1934  1  0.97908600  0.44813300  0.29286100  1
  C  1937  1  0.75326500  0.54249800  0.04350600  1
  C  1939  1  0.76714900  0.56085800  0.97588800  1
  C  1940  1  0.74079300  0.53153900  0.96111000  1
  C  1942  1  0.73262200  0.50850400  0.02913500  1
  C  1944  1  0.71470300  0.47993600  0.05217000  1
  C  1947  1  0.24596800  0.94629100  0.95461200  1
  C  1949  1  0.26426500  0.93273500  0.02221700  1
  C  1950  1  0.23521800  0.95969200  0.03665100  1
  C  1952  1  0.22323800  0.97925700  0.96827400  1
  C  1954  1  0.20261900  0.00563000  0.94498500  1
  C  1957  1  0.75299600  0.44336700  0.55109200  1
  C  1959  1  0.72248600  0.42371900  0.48938600  1
  C  1960  1  0.74434500  0.45259100  0.46827800  1
  C  1962  1  0.76737400  0.47815400  0.53208900  1
  C  1964  1  0.78937900  0.50734700  0.55015700  1
  C  1967  1  0.25475500  0.04175700  0.45833500  1
  C  1969  1  0.23706300  0.05548000  0.52611200  1
  C  1970  1  0.26269600  0.02516900  0.54035200  1
  C  1972  1  0.27472600  0.00690700  0.47161500  1
  C  1974  1  0.29302900  0.97897900  0.44816900  1
  C  1977  1  0.04345700  0.75336300  0.54254200  1
  C  1979  1  0.97585000  0.76725000  0.56094700  1
  C  1980  1  0.96105400  0.74090300  0.53162800  1
  C  1982  1  0.02906600  0.73272900  0.50855100  1
  C  1984  1  0.05208400  0.71481000  0.47997200  1
  C  1987  1  0.95486400  0.24568800  0.94628500  1
  C  1989  1  0.02244300  0.26407800  0.93272900  1
  C  1990  1  0.03691500  0.23508100  0.95971900  1
  C  1992  1  0.96855300  0.22300600  0.97927200  1
  C  1994  1  0.94529600  0.20239000  0.00567700  1
  C  1997  1  0.55100300  0.75307600  0.44318900  1
  C  1999  1  0.48933000  0.72253600  0.42347000  1
  C  2000  1  0.46819600  0.74428300  0.45240500  1
  C  2002  1  0.53198300  0.76735600  0.47800300  1
  C  2004  1  0.55002900  0.78932000  0.50724000  1
  C  2007  1  0.45829900  0.25470500  0.04168400  1
  C  2009  1  0.52610600  0.23707700  0.05531800  1
  C  2010  1  0.54029000  0.26285800  0.02510200  1
  C  2012  1  0.47152900  0.27478100  0.00687300  1
  C  2014  1  0.44803800  0.29309900  0.97899100  1
  N  1058  1  0.56735600  0.24337700  0.16431700  1
  N  1061  1  0.58753400  0.20727700  0.23105100  1
  N  1068  1  0.92063300  0.74732700  0.67969100  1
  N  1071  1  0.91412300  0.78145400  0.75031700  1
  N  1078  1  0.41174400  0.74017100  0.30020600  1
  N  1081  1  0.43039400  0.70034800  0.23464500  1
  N  1088  1  0.09199900  0.24773800  0.81419000  1
  N  1091  1  0.09501600  0.28424100  0.74446400  1
  N  1098  1  0.16433900  0.56726500  0.24342100  1
  N  1101  1  0.23111300  0.58752200  0.20742800  1
  N  1108  1  0.67939200  0.92092300  0.74719000  1
  N  1111  1  0.74996400  0.91391300  0.78129400  1
  N  1118  1  0.30009600  0.41181500  0.74026600  1
  N  1121  1  0.23447700  0.43046300  0.70053800  1
  N  1128  1  0.81376900  0.09253600  0.24761800  1
  N  1131  1  0.74406400  0.09491700  0.28420300  1
  N  1138  1  0.24335200  0.16424900  0.56724100  1
  N  1141  1  0.20739800  0.23107800  0.58736800  1
  N  1148  1  0.74729100  0.67954900  0.92068600  1
  N  1151  1  0.78146000  0.75013900  0.91405500  1
  N  1158  1  0.74021600  0.30043700  0.41190700  1
  N  1161  1  0.70041100  0.23480900  0.43035900  1
  N  1168  1  0.24770900  0.81403000  0.09217100  1
  N  1171  1  0.28427800  0.74434000  0.09499400  1
  N  1178  1  0.42699000  0.75079300  0.83014300  1
  N  1181  1  0.40670000  0.78687700  0.76343100  1
  N  1188  1  0.07386900  0.24693400  0.31442800  1
  N  1191  1  0.08010400  0.21271100  0.24381300  1
  N  1198  1  0.58235100  0.25403700  0.69401300  1
  N  1201  1  0.56377400  0.29374800  0.75966500  1
  N  1208  1  0.90192300  0.74653000  0.18038000  1
  N  1211  1  0.89941300  0.70992500  0.25006700  1
  N  1218  1  0.83006900  0.42694000  0.75091500  1
  N  1221  1  0.76329500  0.40672600  0.78692200  1
  N  1228  1  0.31475300  0.07351600  0.24694600  1
  N  1231  1  0.24417400  0.08029700  0.21278500  1
  N  1238  1  0.69399200  0.58240400  0.25410600  1
  N  1241  1  0.75964800  0.56393700  0.29386000  1
  N  1248  1  0.18051300  0.90169800  0.74653900  1
  N  1251  1  0.25019000  0.89943700  0.70989600  1
  N  1258  1  0.75089700  0.83013400  0.42693400  1
  N  1261  1  0.78688300  0.76333600  0.40675600  1
  N  1268  1  0.24703100  0.31482400  0.07373400  1
  N  1271  1  0.21286200  0.24425700  0.08054500  1
  N  1278  1  0.25406100  0.69407200  0.58235700  1
  N  1281  1  0.29381700  0.75970700  0.56382500  1
  N  1288  1  0.74665500  0.18041800  0.90241800  1
  N  1291  1  0.71021500  0.25018500  0.89938000  1
  N  1298  1  0.38917700  0.08825100  0.35581100  1
  N  1301  1  0.40281900  0.14941200  0.31005800  1
  N  1308  1  0.11099600  0.89492200  0.85789400  1
  N  1311  1  0.09594400  0.83779300  0.80772700  1
  N  1318  1  0.62519600  0.58266400  0.15455900  1
  N  1321  1  0.61213500  0.64101300  0.20427000  1
  N  1328  1  0.90372000  0.38822400  0.63216200  1
  N  1331  1  0.91761300  0.33097600  0.68249100  1
  N  1338  1  0.35608600  0.38917400  0.08844000  1
  N  1341  1  0.31044900  0.40288700  0.14966100  1
  N  1348  1  0.85818400  0.11061900  0.89483300  1
  N  1351  1  0.80802000  0.09567000  0.83767700  1
  N  1358  1  0.15444100  0.62528800  0.58273600  1
  N  1361  1  0.20417000  0.61221800  0.64106700  1
  N  1368  1  0.63221500  0.90381800  0.38812600  1
  N  1371  1  0.68261300  0.91766700  0.33092300  1
  N  1378  1  0.08826100  0.35568300  0.38873300  1
  N  1381  1  0.14940800  0.30991000  0.40237500  1
  N  1388  1  0.89496100  0.85790300  0.11082500  1
  N  1391  1  0.83778400  0.80779200  0.09577800  1
  N  1398  1  0.58278600  0.15447800  0.62516400  1
  N  1401  1  0.64107300  0.20427600  0.61214400  1
  N  1408  1  0.38822400  0.63214400  0.90381200  1
  N  1411  1  0.33099100  0.68248800  0.91772000  1
  N  1418  1  0.60486700  0.90575100  0.63820100  1
  N  1421  1  0.59130600  0.84458700  0.68396600  1
  N  1428  1  0.88340000  0.09934600  0.13634400  1
  N  1431  1  0.89842100  0.15648000  0.18651500  1
  N  1438  1  0.36894600  0.41152200  0.83981800  1
  N  1441  1  0.38199500  0.35321200  0.79006000  1
  N  1448  1  0.09057200  0.60605100  0.36203900  1
  N  1451  1  0.07672900  0.66325800  0.31163900  1
  N  1458  1  0.63840200  0.60515100  0.90592600  1
  N  1461  1  0.68417000  0.59153700  0.84477300  1
  N  1468  1  0.13622900  0.88361100  0.09925000  1
  N  1471  1  0.18627300  0.89868200  0.15647700  1
  N  1478  1  0.83988900  0.36911800  0.41159300  1
  N  1481  1  0.79019600  0.38225300  0.35324400  1
  N  1488  1  0.36196200  0.09052300  0.60603700  1
  N  1491  1  0.31155600  0.07669100  0.66324000  1
  N  1498  1  0.90587600  0.63848200  0.60523700  1
  N  1501  1  0.84475900  0.68431500  0.59166700  1
  N  1508  1  0.09970000  0.13609000  0.88383300  1
  N  1511  1  0.15678200  0.18633100  0.89879400  1
  N  1518  1  0.41152500  0.83976700  0.36888700  1
  N  1521  1  0.35319100  0.79006000  0.38203400  1
  N  1528  1  0.60578200  0.36211300  0.09082500  1
  N  1531  1  0.66310700  0.31189900  0.07681200  1
  N  1538  1  0.84500100  0.54131700  0.82970500  1
  N  1541  1  0.83102200  0.55683200  0.75347200  1
  N  1548  1  0.64664100  0.43239600  0.32937800  1
  N  1551  1  0.65848900  0.43291400  0.25192900  1
  N  1558  1  0.15332300  0.03583900  0.66096900  1
  N  1561  1  0.16158500  0.04615100  0.73856400  1
  N  1568  1  0.34372400  0.95452600  0.15825000  1
  N  1571  1  0.33527500  0.93363800  0.23360400  1
  N  1578  1  0.82955700  0.84506000  0.54136400  1
  N  1581  1  0.75330700  0.83104000  0.55675200  1
  N  1588  1  0.32918200  0.64656400  0.43239900  1
  N  1591  1  0.25174500  0.65851500  0.43291700  1
  N  1598  1  0.66099900  0.15348500  0.03539600  1
  N  1601  1  0.73851400  0.16201500  0.04627500  1
  N  1608  1  0.15840300  0.34380300  0.95475400  1
  N  1611  1  0.23375700  0.33539600  0.93385100  1
  N  1618  1  0.54138800  0.82967800  0.84499800  1
  N  1621  1  0.55685000  0.75342800  0.83105500  1
  N  1628  1  0.43232200  0.32912900  0.64656700  1
  N  1631  1  0.43285500  0.25169100  0.65850900  1
  N  1638  1  0.03572600  0.66094600  0.15330100  1
  N  1641  1  0.04621700  0.73852200  0.16160700  1
  N  1648  1  0.95446100  0.15830800  0.34383900  1
  N  1651  1  0.93370600  0.23370000  0.33539900  1
  N  1658  1  0.14946800  0.45295600  0.16442700  1
  N  1661  1  0.16333200  0.43736900  0.24066900  1
  N  1668  1  0.34762200  0.56191500  0.66518200  1
  N  1671  1  0.33569500  0.56135000  0.74262000  1
  N  1678  1  0.84088600  0.95862900  0.33333333  1
  N  1681  1  0.83266500  0.94811100  0.25576700  1
  N  1688  1  0.65056700  0.03965700  0.83578900  1
  N  1691  1  0.65903000  0.06058800  0.76044700  1
  N  1698  1  0.16464200  0.14926500  0.45283700  1
  N  1701  1  0.24088400  0.16325300  0.43736600  1
  N  1708  1  0.66509300  0.34782400  0.56193600  1
  N  1711  1  0.74253100  0.33589300  0.56137000  1
  N  1718  1  0.33343300  0.84091600  0.95871500  1
  N  1721  1  0.25588100  0.83257400  0.94802800  1
  N  1728  1  0.83590700  0.65042700  0.03974800  1
  N  1731  1  0.76054200  0.65890000  0.06059900  1
  N  1738  1  0.45293800  0.16452800  0.14921100  1
  N  1741  1  0.43750500  0.24076600  0.16324500  1
  N  1748  1  0.56195400  0.66517000  0.34777000  1
  N  1751  1  0.56136200  0.74260500  0.33579900  1
  N  1758  1  0.95871200  0.33328800  0.84094900  1
  N  1761  1  0.94807300  0.25573600  0.83252600  1
  N  1768  1  0.03972100  0.83597200  0.65047800  1
  N  1771  1  0.06057400  0.76060400  0.65890000  1
  N  1778  1  0.42835500  0.97901800  0.22348800  1
  N  1781  1  0.48824600  0.00465300  0.26715500  1
  N  1788  1  0.06841800  0.01122900  0.72784400  1
  N  1791  1  0.01166000  0.98626500  0.77607800  1
  N  1798  1  0.57496200  0.46608200  0.26512600  1
  N  1801  1  0.51459100  0.50216000  0.23145500  1
  N  1808  1  0.93107700  0.50712700  0.75862000  1
  N  1811  1  0.99255200  0.48307100  0.71590200  1
  N  1818  1  0.22375400  0.42851200  0.97924000  1
  N  1821  1  0.26762900  0.48828800  0.00481100  1
  N  1828  1  0.72780900  0.06842600  0.01099600  1
  N  1831  1  0.77601900  0.01158000  0.98618500  1
  N  1838  1  0.26476500  0.57498500  0.46614700  1
  N  1841  1  0.23110000  0.51462600  0.50224900  1
  N  1848  1  0.75852300  0.93113900  0.50710100  1
  N  1851  1  0.71587800  0.99265000  0.48300300  1
  N  1858  1  0.97903500  0.22355300  0.42834300  1
  N  1861  1  0.00481400  0.26724600  0.48815400  1
  N  1868  1  0.01121700  0.72769300  0.06830900  1
  N  1871  1  0.98627900  0.77590600  0.01152200  1
  N  1878  1  0.46609700  0.26473300  0.57503000  1
  N  1881  1  0.50221300  0.23117200  0.51462300  1
  N  1888  1  0.50716000  0.75863800  0.93116900  1
  N  1891  1  0.48311900  0.71589900  0.99263800  1
  N  1898  1  0.56593500  0.01504800  0.77042900  1
  N  1901  1  0.50600500  0.98940300  0.72681100  1
  N  1908  1  0.92587300  0.98305300  0.26660300  1
  N  1911  1  0.98264100  0.00796800  0.21835700  1
  N  1918  1  0.41920400  0.52815500  0.72952900  1
  N  1921  1  0.47958400  0.49204100  0.76314700  1
  N  1928  1  0.06327100  0.48713600  0.23542800  1
  N  1931  1  0.00178400  0.51116800  0.27814500  1
  N  1938  1  0.77058900  0.56587300  0.01519200  1
  N  1941  1  0.72692700  0.50600300  0.98949100  1
  N  1948  1  0.26660000  0.92597400  0.98309400  1
  N  1951  1  0.21830500  0.98275400  0.00790000  1
  N  1958  1  0.72946700  0.41950900  0.52826800  1
  N  1961  1  0.76332700  0.47976500  0.49217200  1
  N  1968  1  0.23559500  0.06321400  0.48705600  1
  N  1971  1  0.27818700  0.00168200  0.51118000  1
  N  1978  1  0.01515800  0.77068400  0.56593500  1
  N  1981  1  0.98942000  0.72704200  0.50607100  1
  N  1988  1  0.98331600  0.26635200  0.92595900  1
  N  1991  1  0.00818300  0.21814500  0.98278600  1
  N  1998  1  0.52820200  0.72957900  0.41927800  1
  N  2001  1  0.49207100  0.76324200  0.47961400  1
  N  2008  1  0.48705600  0.23552000  0.06306800  1
  N  2011  1  0.51108500  0.27835100  0.00165900  1
  O  1065  1  0.67239900  0.25294200  0.22660700  1
  O  1075  1  0.84120000  0.72650300  0.77272100  1
  O  1085  1  0.36911800  0.75575800  0.18533900  1
  O  1095  1  0.16497400  0.22728100  0.71767200  1
  O  1105  1  0.22638300  0.67247000  0.25290200  1
  O  1115  1  0.77175900  0.84075600  0.72633500  1
  O  1125  1  0.18522800  0.36924800  0.75604500  1
  O  1135  1  0.71645900  0.16446600  0.22717300  1
  O  1145  1  0.25283700  0.22641300  0.67235200  1
  O  1155  1  0.72649700  0.77243900  0.84108800  1
  O  1165  1  0.75580200  0.18566800  0.36900200  1
  O  1175  1  0.22725500  0.71719900  0.16474100  1
  O  1185  1  0.32175200  0.74138800  0.76812300  1
  O  1195  1  0.15286300  0.26765800  0.22097600  1
  O  1205  1  0.62506300  0.23829600  0.80883400  1
  O  1215  1  0.82975500  0.76691200  0.27752500  1
  O  1225  1  0.76794900  0.32178100  0.74140600  1
  O  1235  1  0.22201800  0.15329200  0.26775800  1
  O  1245  1  0.80878100  0.62521700  0.23838500  1
  O  1255  1  0.27795200  0.82992700  0.76691500  1
  O  1265  1  0.74140300  0.76799900  0.32179600  1
  O  1275  1  0.26788400  0.22219600  0.15359300  1
  O  1285  1  0.23838000  0.80888500  0.62511600  1
  O  1295  1  0.76723200  0.27694500  0.82948000  1
  O  1305  1  0.33263400  0.17929600  0.28026900  1
  O  1315  1  0.15500100  0.79319800  0.77986700  1
  O  1325  1  0.67652900  0.67839700  0.23369500  1
  O  1335  1  0.85862800  0.28569500  0.70811900  1
  O  1345  1  0.28057100  0.33273500  0.17955100  1
  O  1355  1  0.78023100  0.15482900  0.79315600  1
  O  1365  1  0.23372200  0.67662700  0.67833800  1
  O  1375  1  0.70825000  0.85864600  0.28569200  1
  O  1385  1  0.17914500  0.27996700  0.33217500  1
  O  1395  1  0.79318300  0.78000300  0.15487900  1
  O  1405  1  0.67836200  0.23377200  0.67655600  1
  O  1415  1  0.28570700  0.70811000  0.85873100  1
  O  1425  1  0.66152600  0.81478800  0.71374700  1
  O  1435  1  0.83932900  0.20109100  0.21429300  1
  O  1445  1  0.31762500  0.31586300  0.76055900  1
  O  1455  1  0.13573400  0.70853700  0.28606000  1
  O  1465  1  0.71403400  0.66173300  0.81498300  1
  O  1475  1  0.21402300  0.83958100  0.20111400  1
  O  1485  1  0.76065700  0.31788200  0.31590200  1
  O  1495  1  0.28594100  0.13572800  0.70846300  1
  O  1505  1  0.81501300  0.71417600  0.66188100  1
  O  1515  1  0.20142200  0.21407500  0.83972300  1
  O  1525  1  0.31580700  0.76051800  0.31769600  1
  O  1535  1  0.70832700  0.28615600  0.13581100  1
  O  1545  1  0.75332400  0.54849000  0.73321700  1
  O  1555  1  0.73632900  0.46722200  0.24381300  1
  O  1565  1  0.23627900  0.01839700  0.76076400  1
  O  1575  1  0.25686100  0.94528400  0.25714100  1
  O  1585  1  0.73318200  0.75328900  0.54841600  1
  O  1595  1  0.24373300  0.73641500  0.46710000  1
  O  1605  1  0.76103600  0.23674000  0.01942900  1
  O  1615  1  0.25739700  0.25703000  0.94547900  1
  O  1625  1  0.54852200  0.73325000  0.75330400  1
  O  1635  1  0.46708200  0.24366800  0.73639100  1
  O  1645  1  0.01875100  0.76086400  0.23630100  1
  O  1655  1  0.94548800  0.25719200  0.25695300  1
  O  1665  1  0.24109300  0.44561700  0.26089600  1
  O  1675  1  0.25783400  0.52707200  0.75063300  1
  O  1685  1  0.75799600  0.97573400  0.23339200  1
  O  1695  1  0.73745700  0.04913500  0.73692400  1
  O  1705  1  0.26100600  0.24102100  0.44565800  1
  O  1715  1  0.75053600  0.25803100  0.52710400  1
  O  1725  1  0.23338800  0.75791900  0.97533200  1
  O  1735  1  0.73705700  0.73734400  0.04897200  1
  O  1745  1  0.44585900  0.26091000  0.24097400  1
  O  1755  1  0.52699800  0.75056500  0.25796700  1
  O  1765  1  0.97514800  0.23322100  0.75786600  1
  O  1775  1  0.04896000  0.73705700  0.73732000  1
  O  1785  1  0.53677900  0.92497300  0.25669200  1
  O  1795  1  0.96659000  0.06971000  0.77211700  1
  O  1805  1  0.46824900  0.41791400  0.22201600  1
  O  1815  1  0.03655200  0.56440200  0.72391300  1
  O  1825  1  0.25719700  0.53686400  0.92517400  1
  O  1835  1  0.77181200  0.96654000  0.06960900  1
  O  1845  1  0.22152100  0.46830500  0.41801700  1
  O  1855  1  0.72376500  0.03655700  0.56441700  1
  O  1865  1  0.92516200  0.25689500  0.53680200  1
  O  1875  1  0.06971900  0.77181200  0.96642400  1
  O  1885  1  0.41799300  0.22155300  0.46830800  1
  O  1895  1  0.56447600  0.72389800  0.03660200  1
  O  1905  1  0.45747600  0.06905300  0.73724600  1
  O  1915  1  0.02776700  0.92456100  0.22247300  1
  O  1925  1  0.52590200  0.57627300  0.77274700  1
  O  1935  1  0.95775000  0.42987300  0.27003600  1
  O  1945  1  0.73732300  0.45742900  0.06915400  1
  O  1955  1  0.22250600  0.02781400  0.92447300  1
  O  1965  1  0.77298700  0.52607700  0.57640600  1
  O  1975  1  0.27022700  0.95770000  0.42981700  1
  O  1985  1  0.06906500  0.73743000  0.45745800  1
  O  1995  1  0.92476300  0.22227800  0.02783800  1
  O  2005  1  0.57629100  0.77291600  0.52593800  1
  O  2015  1  0.42966600  0.27031000  0.95771500  1
