# generated using pymatgen
data_H22C37(NO2)2
_symmetry_space_group_name_H-M   'P 1'
_cell_length_a   43.83070000
_cell_length_b   43.83110000
_cell_length_c   47.21880000
_cell_angle_alpha   90.00030000
_cell_angle_beta   90.00000000
_cell_angle_gamma   90.00000000
_symmetry_Int_Tables_number   1
_chemical_formula_structural   H22C37(NO2)2
_chemical_formula_sum   'H352 C592 N32 O64'
_cell_volume   90714.29349044
_cell_formula_units_Z   16
loop_
 _symmetry_equiv_pos_site_id
 _symmetry_equiv_pos_as_xyz
  1  'x, y, z'
loop_
 _atom_site_type_symbol
 _atom_site_label
 _atom_site_symmetry_multiplicity
 _atom_site_fract_x
 _atom_site_fract_y
 _atom_site_fract_z
 _atom_site_occupancy
  H  26  1  0.21607300  0.28622200  0.88902000  1
  H  27  1  0.21078900  0.33852900  0.87666900  1
  H  28  1  0.12458500  0.28478000  0.91681400  1
  H  29  1  0.11885200  0.33626800  0.90297000  1
  H  30  1  0.12504400  0.38945000  0.92052600  1
  H  31  1  0.13730700  0.42124900  0.95945100  1
  H  32  1  0.22632800  0.43311300  0.92727100  1
  H  33  1  0.21409100  0.40083000  0.88816000  1
  H  34  1  0.17687800  0.42908600  0.85003100  1
  H  35  1  0.20300300  0.43964200  0.80691700  1
  H  36  1  0.20292300  0.34565100  0.78745400  1
  H  37  1  0.17671800  0.33531000  0.82993500  1
  H  38  1  0.12113600  0.33563400  0.84264000  1
  H  39  1  0.12016100  0.42547900  0.87473300  1
  H  40  1  0.06744600  0.42939600  0.86372300  1
  H  41  1  0.06899600  0.34012400  0.83032900  1
  H  67  1  0.28319600  0.63942000  0.38904900  1
  H  68  1  0.28845500  0.58713700  0.37665500  1
  H  69  1  0.37465900  0.64078900  0.41689200  1
  H  70  1  0.38037700  0.58930700  0.40302800  1
  H  71  1  0.37423000  0.53607600  0.42047300  1
  H  72  1  0.36195600  0.50429200  0.45940400  1
  H  73  1  0.27287000  0.49261800  0.42732200  1
  H  74  1  0.28512400  0.52488000  0.38820400  1
  H  75  1  0.32227400  0.49655800  0.35002000  1
  H  76  1  0.29616900  0.48603500  0.30689300  1
  H  77  1  0.29639700  0.58002300  0.28742800  1
  H  78  1  0.32258600  0.59032200  0.32992200  1
  H  79  1  0.37813400  0.59003200  0.34271800  1
  H  80  1  0.37903100  0.50011700  0.37464400  1
  H  81  1  0.43174000  0.49619000  0.36364400  1
  H  82  1  0.43026900  0.58553300  0.33042000  1
  H  108  1  0.92804300  0.92873100  0.13520400  1
  H  109  1  0.87624600  0.92319100  0.12155200  1
  H  110  1  0.92546700  0.84195500  0.17381000  1
  H  111  1  0.87432700  0.83573100  0.15882000  1
  H  112  1  0.81770700  0.83433000  0.16665400  1
  H  113  1  0.78526400  0.84607800  0.20513100  1
  H  114  1  0.78399300  0.93853700  0.18029600  1
  H  115  1  0.81673000  0.92666400  0.14136800  1
  H  116  1  0.78437000  0.89392200  0.10186600  1
  H  117  1  0.77414400  0.92025200  0.05893500  1
  H  118  1  0.86664700  0.91123600  0.03549900  1
  H  119  1  0.87661100  0.88467100  0.07792100  1
  H  120  1  0.88238500  0.83218100  0.09922700  1
  H  121  1  0.78802500  0.83427300  0.11653000  1
  H  122  1  0.78441100  0.78169800  0.10494300  1
  H  123  1  0.87864400  0.78017200  0.08659700  1
  H  149  1  0.57114700  0.99695200  0.63517100  1
  H  150  1  0.62294900  0.00249600  0.62152900  1
  H  151  1  0.57369300  0.08373900  0.67374700  1
  H  152  1  0.62483800  0.08996300  0.65879300  1
  H  153  1  0.68150800  0.09144400  0.66666667  1
  H  154  1  0.71396900  0.07974400  0.70507600  1
  H  155  1  0.71520100  0.98724900  0.68035700  1
  H  156  1  0.68244600  0.99907200  0.64143000  1
  H  157  1  0.71482900  0.03170200  0.60190700  1
  H  158  1  0.72505000  0.00535100  0.55898600  1
  H  159  1  0.63256700  0.01446400  0.53550300  1
  H  160  1  0.62260900  0.04105200  0.57791200  1
  H  161  1  0.61676100  0.09352600  0.59927000  1
  H  162  1  0.71114900  0.09140400  0.61644200  1
  H  163  1  0.71476100  0.14397900  0.60485500  1
  H  164  1  0.62050100  0.14554100  0.58664000  1
  H  190  1  0.28267600  0.27983600  0.61362100  1
  H  191  1  0.28645400  0.33241800  0.62513300  1
  H  192  1  0.37089300  0.28260400  0.57797600  1
  H  193  1  0.37535100  0.33457600  0.59086900  1
  H  194  1  0.37662600  0.39073200  0.58007000  1
  H  195  1  0.36621800  0.41720400  0.53775000  1
  H  196  1  0.27207200  0.41550900  0.55646500  1
  H  197  1  0.28268300  0.38911000  0.59943600  1
  H  198  1  0.31047800  0.42666100  0.63776800  1
  H  199  1  0.27840300  0.43874400  0.67703800  1
  H  200  1  0.29123600  0.34993300  0.70938600  1
  H  201  1  0.32286000  0.33780700  0.67027400  1
  H  202  1  0.37564300  0.33057200  0.65131500  1
  H  203  1  0.37317900  0.42332800  0.62758100  1
  H  204  1  0.42555100  0.42825400  0.63985600  1
  H  205  1  0.42725900  0.33585900  0.66489100  1
  H  231  1  0.21648700  0.64584500  0.11351100  1
  H  232  1  0.21274900  0.59326400  0.12499600  1
  H  233  1  0.12821700  0.64307500  0.07797400  1
  H  234  1  0.12379900  0.59108300  0.09086500  1
  H  235  1  0.12260500  0.53497600  0.08000200  1
  H  236  1  0.13301800  0.50850600  0.03768400  1
  H  237  1  0.22715500  0.51012200  0.05645300  1
  H  238  1  0.21653700  0.53652300  0.09941800  1
  H  239  1  0.18869000  0.49902700  0.13778400  1
  H  240  1  0.22076700  0.48697900  0.17706200  1
  H  241  1  0.20804600  0.57586600  0.20927500  1
  H  242  1  0.17641200  0.58795100  0.17016200  1
  H  243  1  0.12357900  0.59505700  0.15132300  1
  H  244  1  0.12603700  0.50233100  0.12748900  1
  H  245  1  0.07366100  0.49739400  0.13978700  1
  H  246  1  0.07197100  0.58975100  0.16491800  1
  H  272  1  0.56626500  0.92958500  0.36515800  1
  H  273  1  0.61868000  0.92548800  0.37703200  1
  H  274  1  0.56986500  0.84326500  0.32576700  1
  H  275  1  0.62173300  0.83841500  0.33898800  1
  H  276  1  0.67890500  0.83485400  0.33113800  1
  H  277  1  0.70541100  0.84489900  0.28879400  1
  H  278  1  0.70147100  0.93938600  0.30560100  1
  H  279  1  0.67492600  0.92916800  0.34862200  1
  H  280  1  0.71274600  0.90357200  0.38714700  1
  H  281  1  0.72439600  0.93551800  0.42657000  1
  H  282  1  0.63695700  0.91862800  0.46048900  1
  H  283  1  0.62514800  0.88720900  0.42108300  1
  H  284  1  0.61593100  0.83525800  0.39872900  1
  H  285  1  0.70993800  0.83990000  0.38024900  1
  H  286  1  0.71524200  0.78755900  0.39247800  1
  H  287  1  0.62133300  0.78361400  0.41188500  1
  H  313  1  0.93298000  0.99598200  0.86523500  1
  H  314  1  0.88055100  0.00012700  0.87708600  1
  H  315  1  0.92944400  0.08226600  0.82576900  1
  H  316  1  0.87756900  0.08715100  0.83895300  1
  H  317  1  0.82037200  0.09081900  0.83116600  1
  H  318  1  0.79385400  0.08082500  0.78882200  1
  H  319  1  0.79780100  0.98631500  0.80552100  1
  H  320  1  0.82435700  0.99647900  0.84855500  1
  H  321  1  0.78651900  0.02200900  0.88705200  1
  H  322  1  0.77483300  0.99005000  0.92645200  1
  H  323  1  0.86218500  0.00703900  0.96052100  1
  H  324  1  0.87403700  0.03847100  0.92113200  1
  H  325  1  0.88336200  0.09038200  0.89869800  1
  H  326  1  0.78934100  0.08573100  0.88029600  1
  H  327  1  0.78404100  0.13806900  0.89252300  1
  H  328  1  0.87797700  0.14202900  0.91185000  1
  H  354  1  0.78467300  0.64137600  0.11359500  1
  H  355  1  0.78955100  0.58934400  0.12698700  1
  H  356  1  0.87223300  0.63845300  0.07657300  1
  H  357  1  0.87760300  0.58700800  0.09096700  1
  H  358  1  0.87813500  0.53059600  0.08251400  1
  H  359  1  0.86632100  0.49824200  0.04398000  1
  H  360  1  0.77388200  0.49699000  0.06889000  1
  H  361  1  0.78581100  0.52965100  0.10785800  1
  H  362  1  0.81866100  0.49726100  0.14738600  1
  H  363  1  0.79217200  0.48708400  0.19025000  1
  H  364  1  0.80068700  0.57971500  0.21341700  1
  H  365  1  0.82741700  0.58963900  0.17106600  1
  H  366  1  0.88033200  0.59484700  0.15046800  1
  H  367  1  0.87814400  0.50060800  0.13249000  1
  H  368  1  0.93089500  0.49694200  0.14374400  1
  H  369  1  0.93257600  0.59110300  0.16232500  1
  H  395  1  0.71452800  0.28432900  0.61354700  1
  H  396  1  0.70966400  0.33633700  0.62697100  1
  H  397  1  0.62696200  0.28727400  0.57655700  1
  H  398  1  0.62159100  0.33870500  0.59096900  1
  H  399  1  0.62107300  0.39513600  0.58255200  1
  H  400  1  0.63289400  0.42746900  0.54400400  1
  H  401  1  0.72534300  0.42866600  0.56888400  1
  H  402  1  0.71340300  0.39602800  0.60786000  1
  H  403  1  0.68055900  0.42843200  0.64743100  1
  H  404  1  0.70703100  0.43859400  0.69030400  1
  H  405  1  0.69852100  0.34595400  0.71343500  1
  H  406  1  0.67180500  0.33605300  0.67107500  1
  H  407  1  0.61889900  0.33085100  0.65048700  1
  H  408  1  0.62106000  0.42508700  0.63250100  1
  H  409  1  0.56831800  0.42873800  0.64377200  1
  H  410  1  0.56666400  0.33458300  0.66236600  1
  H  436  1  0.07298500  0.99704300  0.85832000  1
  H  437  1  0.12505700  0.00237500  0.87136400  1
  H  438  1  0.07136400  0.08913000  0.83225000  1
  H  439  1  0.12286200  0.09463000  0.84610500  1
  H  440  1  0.17718400  0.08983400  0.83019600  1
  H  441  1  0.20922800  0.07837900  0.79123000  1
  H  442  1  0.21891300  0.98800300  0.82066100  1
  H  443  1  0.18649300  0.99948400  0.85987700  1
  H  444  1  0.21483100  0.03496000  0.89938200  1
  H  445  1  0.22451800  0.00835600  0.94239000  1
  H  446  1  0.13035600  0.00989200  0.96108600  1
  H  447  1  0.12089700  0.03667800  0.91873900  1
  H  448  1  0.12075300  0.09236200  0.90545200  1
  H  449  1  0.21222500  0.09217800  0.87765300  1
  H  450  1  0.21647200  0.14469500  0.88951300  1
  H  451  1  0.12516600  0.14449100  0.91784700  1
  H  477  1  0.42633300  0.92855600  0.35835300  1
  H  478  1  0.37427400  0.92323200  0.37145400  1
  H  479  1  0.42786200  0.83651700  0.33214100  1
  H  480  1  0.37638200  0.83101800  0.34603800  1
  H  481  1  0.32198900  0.83565700  0.33028600  1
  H  482  1  0.28991800  0.84706400  0.29133300  1
  H  483  1  0.28044200  0.93754300  0.32055300  1
  H  484  1  0.31288500  0.92611100  0.35976400  1
  H  485  1  0.28443100  0.89077500  0.39929900  1
  H  486  1  0.27474100  0.91740500  0.44229300  1
  H  487  1  0.36887400  0.91566400  0.46110700  1
  H  488  1  0.37833500  0.88885000  0.41877600  1
  H  489  1  0.37862000  0.83322000  0.40535000  1
  H  490  1  0.28705700  0.83348000  0.37781400  1
  H  491  1  0.28280800  0.78096100  0.38966900  1
  H  492  1  0.37420500  0.78108400  0.41774900  1
  H  518  1  0.71673000  0.64616600  0.38330500  1
  H  519  1  0.71249100  0.59361900  0.37177000  1
  H  520  1  0.63049600  0.64303200  0.42286400  1
  H  521  1  0.62560700  0.59100400  0.41024000  1
  H  522  1  0.62167600  0.53370100  0.41801800  1
  H  523  1  0.63174800  0.50721000  0.46036800  1
  H  524  1  0.72622100  0.51099800  0.44344000  1
  H  525  1  0.71597500  0.53752200  0.40041300  1
  H  526  1  0.69024600  0.49965800  0.36202600  1
  H  527  1  0.72209400  0.48785600  0.32257700  1
  H  528  1  0.70517600  0.57518900  0.28843600  1
  H  529  1  0.67387400  0.58716200  0.32787600  1
  H  530  1  0.62214600  0.59689500  0.35065900  1
  H  531  1  0.62640700  0.50278600  0.36881700  1
  H  532  1  0.57394400  0.49781900  0.35688800  1
  H  533  1  0.57029800  0.59186000  0.33801000  1
  H  559  1  0.78253800  0.27948900  0.88340800  1
  H  560  1  0.78674700  0.33203600  0.87189700  1
  H  561  1  0.86883300  0.28260300  0.92285800  1
  H  562  1  0.87369500  0.33465100  0.91023200  1
  H  563  1  0.87754600  0.39189800  0.91808700  1
  H  564  1  0.86746400  0.41838400  0.96043600  1
  H  565  1  0.77300300  0.41470100  0.94343000  1
  H  566  1  0.78326100  0.38818300  0.90040500  1
  H  567  1  0.80908100  0.42599700  0.86199900  1
  H  568  1  0.77723100  0.43778500  0.82254800  1
  H  569  1  0.79396600  0.35035400  0.78854100  1
  H  570  1  0.82527700  0.33840300  0.82797600  1
  H  571  1  0.87705100  0.32878700  0.85060300  1
  H  572  1  0.87286700  0.42286400  0.86893000  1
  H  573  1  0.92533200  0.42781500  0.85695000  1
  H  574  1  0.92887800  0.33381800  0.83789400  1
  H  600  1  0.43234300  0.99594600  0.63917800  1
  H  601  1  0.38004400  0.00016700  0.62676600  1
  H  602  1  0.43084800  0.08608200  0.67056400  1
  H  603  1  0.37898300  0.09059900  0.65732600  1
  H  604  1  0.32275700  0.09136500  0.66864500  1
  H  605  1  0.29583300  0.08166300  0.71086400  1
  H  606  1  0.29624600  0.98736800  0.69271800  1
  H  607  1  0.32302900  0.99727900  0.64983100  1
  H  608  1  0.28699000  0.02505700  0.61036100  1
  H  609  1  0.27567200  0.99283400  0.57098900  1
  H  610  1  0.36565000  0.00408400  0.54099500  1
  H  611  1  0.37696400  0.03596700  0.58014500  1
  H  612  1  0.38280700  0.08985100  0.59783900  1
  H  613  1  0.28979900  0.08686300  0.62053300  1
  H  614  1  0.28453500  0.13902600  0.60764000  1
  H  615  1  0.37742200  0.14142300  0.58421700  1
  H  641  1  0.06679200  0.92977600  0.13908900  1
  H  642  1  0.11909600  0.92552800  0.12666200  1
  H  643  1  0.06834500  0.83974600  0.17073100  1
  H  644  1  0.12020300  0.83520600  0.15748500  1
  H  645  1  0.17648000  0.83427500  0.16859800  1
  H  646  1  0.20342800  0.84392900  0.21080800  1
  H  647  1  0.20287100  0.93826100  0.19283900  1
  H  648  1  0.17606600  0.92840500  0.14994400  1
  H  649  1  0.21216300  0.90072600  0.11049700  1
  H  650  1  0.22351700  0.93295800  0.07114400  1
  H  651  1  0.13363700  0.92152800  0.04095500  1
  H  652  1  0.12228100  0.88963700  0.08009500  1
  H  653  1  0.11627400  0.83582000  0.09796400  1
  H  654  1  0.20934100  0.83885200  0.12042600  1
  H  655  1  0.21459400  0.78669200  0.10753600  1
  H  656  1  0.12163400  0.78424700  0.08433300  1
  H  662  1  0.25789000  0.42491500  0.78642100  1
  H  664  1  0.22526700  0.37428400  0.70027100  1
  H  665  1  0.19307100  0.37342800  0.74086000  1
  H  674  1  0.24134200  0.50080500  0.28636700  1
  H  676  1  0.27399500  0.55145200  0.20024300  1
  H  677  1  0.30619400  0.55227800  0.24083700  1
  H  686  1  0.79039700  0.97225600  0.03746400  1
  H  688  1  0.83695400  0.93845900  0.94976300  1
  H  689  1  0.83781400  0.90585500  0.99006900  1
  H  698  1  0.70874700  0.95337100  0.53751500  1
  H  700  1  0.66228400  0.98719300  0.44977700  1
  H  701  1  0.66142800  0.01981300  0.49008100  1
  H  710  1  0.73994900  0.50333700  0.21154600  1
  H  712  1  0.77366500  0.54997800  0.29924600  1
  H  713  1  0.80627200  0.55087500  0.25893700  1
  H  722  1  0.75925500  0.42232500  0.71160700  1
  H  724  1  0.72553600  0.37562800  0.79927400  1
  H  725  1  0.69292200  0.37476500  0.75896300  1
  H  734  1  0.20967900  0.95416000  0.96293100  1
  H  736  1  0.15778900  0.98661400  0.04847500  1
  H  737  1  0.15721800  0.01872300  0.00784400  1
  H  746  1  0.28964400  0.97154000  0.46285200  1
  H  748  1  0.34137000  0.93903400  0.54846600  1
  H  749  1  0.34195000  0.90690800  0.50783600  1
  H  758  1  0.75809100  0.92452000  0.28568300  1
  H  760  1  0.72463500  0.87247400  0.20055400  1
  H  761  1  0.69292900  0.87218900  0.24144600  1
  H  770  1  0.74119900  0.00120300  0.78564300  1
  H  772  1  0.77458900  0.05335300  0.70054400  1
  H  773  1  0.80632400  0.05360400  0.74143000  1
  H  782  1  0.28638600  0.47098800  0.53632900  1
  H  784  1  0.33776800  0.43897600  0.45037400  1
  H  785  1  0.33869800  0.40672500  0.49091300  1
  H  794  1  0.21279500  0.45466600  0.03632000  1
  H  796  1  0.16150700  0.48668000  0.95031300  1
  H  797  1  0.16056600  0.51895400  0.99085200  1
  H  806  1  0.24136300  0.00182600  0.71297500  1
  H  808  1  0.27343100  0.05413300  0.79842400  1
  H  809  1  0.30554100  0.05483000  0.75780300  1
  H  818  1  0.25778700  0.92380600  0.21303400  1
  H  820  1  0.22581400  0.87131600  0.29842400  1
  H  821  1  0.19367600  0.87066600  0.25780900  1
  H  830  1  0.71127000  0.45441000  0.46342200  1
  H  832  1  0.65944800  0.48809400  0.54859100  1
  H  833  1  0.65917000  0.51975200  0.50766700  1
  H  842  1  0.78799900  0.47125700  0.96341800  1
  H  844  1  0.83971000  0.43755900  0.04864500  1
  H  845  1  0.83999900  0.40588000  0.00772000  1
  H  854  1  0.21050700  0.18712900  0.93163800  1
  H  856  1  0.13310400  0.24191700  0.87888400  1
  H  857  1  0.13277600  0.18796700  0.87913000  1
  H  866  1  0.28884100  0.73851400  0.43170400  1
  H  868  1  0.36617000  0.68366200  0.37891100  1
  H  869  1  0.36652400  0.73761200  0.37913300  1
  H  878  1  0.02537300  0.92695800  0.18002300  1
  H  880  1  0.96955200  0.84470200  0.13513100  1
  H  881  1  0.02348000  0.84399700  0.13493300  1
  H  890  1  0.47377700  0.99884200  0.68002400  1
  H  892  1  0.52965100  0.08099300  0.63501900  1
  H  893  1  0.47571600  0.08173200  0.63482600  1
  H  902  1  0.28896400  0.18150300  0.56913000  1
  H  904  1  0.36690500  0.23952700  0.61809100  1
  H  905  1  0.36896900  0.18565100  0.61851900  1
  H  914  1  0.21009500  0.74420600  0.06908000  1
  H  916  1  0.13225600  0.68611600  0.11811200  1
  H  917  1  0.13016900  0.73999100  0.11857300  1
  H  926  1  0.46852500  0.92537800  0.31976300  1
  H  928  1  0.52631800  0.84529600  0.36589700  1
  H  929  1  0.47243600  0.84333900  0.36620400  1
  H  938  1  0.03076700  0.00024800  0.81978000  1
  H  940  1  0.97292900  0.08025800  0.86597800  1
  H  941  1  0.02681100  0.08224300  0.86629100  1
  H  950  1  0.79055500  0.73936700  0.06801400  1
  H  952  1  0.86790000  0.68151800  0.11792100  1
  H  953  1  0.86949000  0.73539600  0.11890300  1
  H  962  1  0.70856900  0.18631600  0.56795900  1
  H  964  1  0.63128500  0.24419300  0.61792200  1
  H  965  1  0.62968100  0.19031700  0.61891100  1
  H  974  1  0.71067500  0.74467200  0.42903700  1
  H  976  1  0.63332000  0.68551000  0.38043800  1
  H  977  1  0.63087900  0.73935500  0.37941100  1
  H  986  1  0.78865000  0.18095900  0.92907600  1
  H  988  1  0.86595200  0.24015200  0.88043600  1
  H  989  1  0.86840000  0.18630900  0.87938800  1
  H  998  1  0.52502900  0.42002900  0.68267600  1
  H  1000  1  0.46958800  0.34634900  0.62606300  1
  H  1001  1  0.52351200  0.34571700  0.62605200  1
  H  1010  1  0.97417700  0.50564200  0.18263300  1
  H  1012  1  0.02966700  0.57931900  0.12605800  1
  H  1013  1  0.97574400  0.57997900  0.12603500  1
  H  1022  1  0.96850100  0.42194400  0.81964900  1
  H  1024  1  0.02651500  0.34591700  0.87115200  1
  H  1025  1  0.97263900  0.34401400  0.87182500  1
  H  1034  1  0.53074400  0.50376500  0.31959500  1
  H  1036  1  0.47268700  0.57963600  0.37126400  1
  H  1037  1  0.52656700  0.58155700  0.37195200  1
  C  1  1  0.06291800  0.38507300  0.84611700  1
  C  2  1  0.07879500  0.40986200  0.85825900  1
  C  3  1  0.10984700  0.40710800  0.86549100  1
  C  4  1  0.12586000  0.37910500  0.86232900  1
  C  5  1  0.11053100  0.35589600  0.84683700  1
  C  6  1  0.07963000  0.35850600  0.83937000  1
  C  7  1  0.15840600  0.37412700  0.87324200  1
  C  8  1  0.17630400  0.38070400  0.84616000  1
  C  9  1  0.18283800  0.35741300  0.82614400  1
  C  10  1  0.19778000  0.36358400  0.80050200  1
  C  11  1  0.20598400  0.39369700  0.79304900  1
  C  12  1  0.19821000  0.41743600  0.81193200  1
  C  13  1  0.18293400  0.41106600  0.83749400  1
  C  14  1  0.16729300  0.39387800  0.89855600  1
  C  15  1  0.16341000  0.34229800  0.88577700  1
  C  16  1  0.19233700  0.32764400  0.88521600  1
  C  17  1  0.19573900  0.29682400  0.89306500  1
  C  18  1  0.17074600  0.28009800  0.90383200  1
  C  19  1  0.14315900  0.29592700  0.90869400  1
  C  20  1  0.13975400  0.32641900  0.90014200  1
  C  21  1  0.14645100  0.39863500  0.92119300  1
  C  22  1  0.15364300  0.41729300  0.94437700  1
  C  23  1  0.18270200  0.43085900  0.94652400  1
  C  24  1  0.20486900  0.42403300  0.92586300  1
  C  25  1  0.19733300  0.40538400  0.90258800  1
  C  42  1  0.43630800  0.54053800  0.34610400  1
  C  43  1  0.42040400  0.51573600  0.35819200  1
  C  44  1  0.38933900  0.51847600  0.36537800  1
  C  45  1  0.37336800  0.54651800  0.36230900  1
  C  46  1  0.38870700  0.56973800  0.34683900  1
  C  47  1  0.41961000  0.56711900  0.33937800  1
  C  48  1  0.34082700  0.55149400  0.37323700  1
  C  49  1  0.32290600  0.54493900  0.34616800  1
  C  50  1  0.31643500  0.56822800  0.32613100  1
  C  51  1  0.30150100  0.56208400  0.30048000  1
  C  52  1  0.29324900  0.53198200  0.29302600  1
  C  53  1  0.30098300  0.50823400  0.31191200  1
  C  54  1  0.31624800  0.51458800  0.33748500  1
  C  55  1  0.33195400  0.53172200  0.39853700  1
  C  56  1  0.33583300  0.58331800  0.38578500  1
  C  57  1  0.30692200  0.59799500  0.38520700  1
  C  58  1  0.30351300  0.62879900  0.39311700  1
  C  59  1  0.32851100  0.64551600  0.40389700  1
  C  60  1  0.35610400  0.62967300  0.40869800  1
  C  61  1  0.35948500  0.59917000  0.40017800  1
  C  62  1  0.35280900  0.52692500  0.42115700  1
  C  63  1  0.34561400  0.50827100  0.44434000  1
  C  64  1  0.31653100  0.49476000  0.44652000  1
  C  65  1  0.29435300  0.50163700  0.42588200  1
  C  66  1  0.30189300  0.52028500  0.40260900  1
  C  83  1  0.83133400  0.77528700  0.09535100  1
  C  84  1  0.80512900  0.79223000  0.10291100  1
  C  85  1  0.80746300  0.82327100  0.11031700  1
  C  86  1  0.83615700  0.83829500  0.11201000  1
  C  87  1  0.86142700  0.82209900  0.10065200  1
  C  88  1  0.85923500  0.79124600  0.09290200  1
  C  89  1  0.83923300  0.87100700  0.12307400  1
  C  90  1  0.83226500  0.88870700  0.09597700  1
  C  91  1  0.85493200  0.89253500  0.07476900  1
  C  92  1  0.84892700  0.90780000  0.04925100  1
  C  93  1  0.81940000  0.91886100  0.04300600  1
  C  94  1  0.79604600  0.91345400  0.06301100  1
  C  95  1  0.80226800  0.89809700  0.08856200  1
  C  96  1  0.81846000  0.87865700  0.14802600  1
  C  97  1  0.87043700  0.87764600  0.13629100  1
  C  98  1  0.88611100  0.90574500  0.13259100  1
  C  99  1  0.91658500  0.90950500  0.14136700  1
  C  100  1  0.93202400  0.88581900  0.15572200  1
  C  101  1  0.91517000  0.85957900  0.16326400  1
  C  102  1  0.88488400  0.85590100  0.15415900  1
  C  103  1  0.81024400  0.85631500  0.16844900  1
  C  104  1  0.79126000  0.86322300  0.19147800  1
  C  105  1  0.78064200  0.89324300  0.19575500  1
  C  106  1  0.79077100  0.91642500  0.17731500  1
  C  107  1  0.80977600  0.90922000  0.15420300  1
  C  124  1  0.66782100  0.15040900  0.59534400  1
  C  125  1  0.69403600  0.13345600  0.60285200  1
  C  126  1  0.69170400  0.10241300  0.61025500  1
  C  127  1  0.66301000  0.08739700  0.61198600  1
  C  128  1  0.63772100  0.10360300  0.60067200  1
  C  129  1  0.63990700  0.13446300  0.59294700  1
  C  130  1  0.65995500  0.05469100  0.62307000  1
  C  131  1  0.66694500  0.03697700  0.59598600  1
  C  132  1  0.64428500  0.03318200  0.57476500  1
  C  133  1  0.65028800  0.01789000  0.54926100  1
  C  134  1  0.67980600  0.00679400  0.54303200  1
  C  135  1  0.70315500  0.01218600  0.56304300  1
  C  136  1  0.69693800  0.02754700  0.58859500  1
  C  137  1  0.68072500  0.04708800  0.64803700  1
  C  138  1  0.62875000  0.04803900  0.63628500  1
  C  139  1  0.61308100  0.01994100  0.63256400  1
  C  140  1  0.58258200  0.01621500  0.64127500  1
  C  141  1  0.56714800  0.03987100  0.65567600  1
  C  142  1  0.58401000  0.06609500  0.66324500  1
  C  143  1  0.61432000  0.06975800  0.65419400  1
  C  144  1  0.68895700  0.06945800  0.66842500  1
  C  145  1  0.70796000  0.06258000  0.69145000  1
  C  146  1  0.71856900  0.03256200  0.69576200  1
  C  147  1  0.70842300  0.00935700  0.67735600  1
  C  148  1  0.68940700  0.01653100  0.65424200  1
  C  165  1  0.43178100  0.38244000  0.65325700  1
  C  166  1  0.41496000  0.40781000  0.64342400  1
  C  167  1  0.38410000  0.40462200  0.63559900  1
  C  168  1  0.36948700  0.37566600  0.63536800  1
  C  169  1  0.38546700  0.35155300  0.64896300  1
  C  170  1  0.41603400  0.35467200  0.65735300  1
  C  171  1  0.33758700  0.37110500  0.62283900  1
  C  172  1  0.31791800  0.37994600  0.64822600  1
  C  173  1  0.31351300  0.35914600  0.67095800  1
  C  174  1  0.29495100  0.36624800  0.69423900  1
  C  175  1  0.28117000  0.39520200  0.69639300  1
  C  176  1  0.28762500  0.41734600  0.67561100  1
  C  177  1  0.30615500  0.40988800  0.65223900  1
  C  178  1  0.33109900  0.38935700  0.59593900  1
  C  179  1  0.33239700  0.33870600  0.61161500  1
  C  180  1  0.30464700  0.32240400  0.61532500  1
  C  181  1  0.30195900  0.29142200  0.60782200  1
  C  182  1  0.32647600  0.27592100  0.59480400  1
  C  183  1  0.35268600  0.29296600  0.58757400  1
  C  184  1  0.35526200  0.32377800  0.59535200  1
  C  185  1  0.35446600  0.39658400  0.57620800  1
  C  186  1  0.34827200  0.41166500  0.55064100  1
  C  187  1  0.31808500  0.41938500  0.54300300  1
  C  188  1  0.29430700  0.41105100  0.56162600  1
  C  189  1  0.30070900  0.39561200  0.58709700  1
  C  206  1  0.06744500  0.54318500  0.15324500  1
  C  207  1  0.08425300  0.51784500  0.14332600  1
  C  208  1  0.11511900  0.52103000  0.13552800  1
  C  209  1  0.12973300  0.54998400  0.13533200  1
  C  210  1  0.11375700  0.57407700  0.14895800  1
  C  211  1  0.08320300  0.57094200  0.15738200  1
  C  212  1  0.16162400  0.55457400  0.12278800  1
  C  213  1  0.18130500  0.54577000  0.14817500  1
  C  214  1  0.18574300  0.56660700  0.17087300  1
  C  215  1  0.20431500  0.55952800  0.19415300  1
  C  216  1  0.21806000  0.53056000  0.19635100  1
  C  217  1  0.21156700  0.50838400  0.17560900  1
  C  218  1  0.19303700  0.51582100  0.15222900  1
  C  219  1  0.16812200  0.53631600  0.09589400  1
  C  220  1  0.16678300  0.58697100  0.11154800  1
  C  221  1  0.19455900  0.60325700  0.11517000  1
  C  222  1  0.19722000  0.63424800  0.10768700  1
  C  223  1  0.17265500  0.64975300  0.09474800  1
  C  224  1  0.14644400  0.63271000  0.08753700  1
  C  225  1  0.14387100  0.60191000  0.09535100  1
  C  226  1  0.14476200  0.52911500  0.07614700  1
  C  227  1  0.15096300  0.51403700  0.05058000  1
  C  228  1  0.18114700  0.50628200  0.04296200  1
  C  229  1  0.20491900  0.51459800  0.06160100  1
  C  230  1  0.19851200  0.53003500  0.08707100  1
  C  247  1  0.66862700  0.77992300  0.40255800  1
  C  248  1  0.69427800  0.79754700  0.39468200  1
  C  249  1  0.69096500  0.82843100  0.38698800  1
  C  250  1  0.66179800  0.84249700  0.38525400  1
  C  251  1  0.63717400  0.82581900  0.39721300  1
  C  252  1  0.64035700  0.79516100  0.40530100  1
  C  253  1  0.65769600  0.87454700  0.37289000  1
  C  254  1  0.66666667  0.89403100  0.39839300  1
  C  255  1  0.64615400  0.89731200  0.42157000  1
  C  256  1  0.65306700  0.91573500  0.44500300  1
  C  257  1  0.68150600  0.93059200  0.44677800  1
  C  258  1  0.70335600  0.92546500  0.42542400  1
  C  259  1  0.69611600  0.90699900  0.40195500  1
  C  260  1  0.67625800  0.88070700  0.34608500  1
  C  261  1  0.62542400  0.88031200  0.36156200  1
  C  262  1  0.60891500  0.90775400  0.36633800  1
  C  263  1  0.57801200  0.91067400  0.35862900  1
  C  264  1  0.56279200  0.88677100  0.34439900  1
  C  265  1  0.58003100  0.86102200  0.33623300  1
  C  266  1  0.61076500  0.85820700  0.34420200  1
  C  267  1  0.68435100  0.85704300  0.32695100  1
  C  268  1  0.69945000  0.86298900  0.30135100  1
  C  269  1  0.70643800  0.89316300  0.29312700  1
  C  270  1  0.69750600  0.91718800  0.31122200  1
  C  271  1  0.68197300  0.91102100  0.33669700  1
  C  288  1  0.83067700  0.14572500  0.90253800  1
  C  289  1  0.80502200  0.12810100  0.89467800  1
  C  290  1  0.80832100  0.09720800  0.88700400  1
  C  291  1  0.83749000  0.08314500  0.88523900  1
  C  292  1  0.86213200  0.09984300  0.89713900  1
  C  293  1  0.85895200  0.13049200  0.90525500  1
  C  294  1  0.84156900  0.05108800  0.87288000  1
  C  295  1  0.83261900  0.03162000  0.89838300  1
  C  296  1  0.85304100  0.02834600  0.92158500  1
  C  297  1  0.84610700  0.00990600  0.94500200  1
  C  298  1  0.81767700  0.99502600  0.94673200  1
  C  299  1  0.79586600  0.00012300  0.92534000  1
  C  300  1  0.80312600  0.01860000  0.90188300  1
  C  301  1  0.82303200  0.04493800  0.84605800  1
  C  302  1  0.87384800  0.04528800  0.86157700  1
  C  303  1  0.89035200  0.01785800  0.86641400  1
  C  304  1  0.92124600  0.01489600  0.85869100  1
  C  305  1  0.93648200  0.03877200  0.84444400  1
  C  306  1  0.91926300  0.06452500  0.83624800  1
  C  307  1  0.88852500  0.06736200  0.84419900  1
  C  308  1  0.81491000  0.06863600  0.82696600  1
  C  309  1  0.79982400  0.06271700  0.80135300  1
  C  310  1  0.79283600  0.03255200  0.79309600  1
  C  311  1  0.80178700  0.00850500  0.81115700  1
  C  312  1  0.81731400  0.01463800  0.83664200  1
  C  329  1  0.93721900  0.54381500  0.15345500  1
  C  330  1  0.92028300  0.51759600  0.14601500  1
  C  331  1  0.88919100  0.51999400  0.13877800  1
  C  332  1  0.87415600  0.54870900  0.13738300  1
  C  333  1  0.89037100  0.57387800  0.14892000  1
  C  334  1  0.92134400  0.57170600  0.15621700  1
  C  335  1  0.84153500  0.55204400  0.12614000  1
  C  336  1  0.82364600  0.54520000  0.15315100  1
  C  337  1  0.81958700  0.56795100  0.17423800  1
  C  338  1  0.80424100  0.56196900  0.19971900  1
  C  339  1  0.79330400  0.53241000  0.20602400  1
  C  340  1  0.79888200  0.50900200  0.18611800  1
  C  341  1  0.81433700  0.51518900  0.16061400  1
  C  342  1  0.83381400  0.53136300  0.10114800  1
  C  343  1  0.83528600  0.58331000  0.11286800  1
  C  344  1  0.80723300  0.59916100  0.11624000  1
  C  345  1  0.80393100  0.62978300  0.10773000  1
  C  346  1  0.82806000  0.64511500  0.09394300  1
  C  347  1  0.85425900  0.62813600  0.08658600  1
  C  348  1  0.85743900  0.59769400  0.09538200  1
  C  349  1  0.85613700  0.52317900  0.08070000  1
  C  350  1  0.84919200  0.50424000  0.05764900  1
  C  351  1  0.81915800  0.49365400  0.05338500  1
  C  352  1  0.79599600  0.50376600  0.07185500  1
  C  353  1  0.80323800  0.52271300  0.09499500  1
  C  370  1  0.56201000  0.38187400  0.65351200  1
  C  371  1  0.57893800  0.40809200  0.64605900  1
  C  372  1  0.61004400  0.40571500  0.63886300  1
  C  373  1  0.62506400  0.37699400  0.63741400  1
  C  374  1  0.60886700  0.35182400  0.64898200  1
  C  375  1  0.57789800  0.35399200  0.65629200  1
  C  376  1  0.65768000  0.37366000  0.62616200  1
  C  377  1  0.67559400  0.38048400  0.65315800  1
  C  378  1  0.67963700  0.35773600  0.67425100  1
  C  379  1  0.69497300  0.36370700  0.69973900  1
  C  380  1  0.70591600  0.39326100  0.70605600  1
  C  381  1  0.70033300  0.41667600  0.68616000  1
  C  382  1  0.68488500  0.41049500  0.66065100  1
  C  383  1  0.66539400  0.39435800  0.60118300  1
  C  384  1  0.66391500  0.34239700  0.61287900  1
  C  385  1  0.69196000  0.32653200  0.61624200  1
  C  386  1  0.69525900  0.29591600  0.60770400  1
  C  387  1  0.67113200  0.28058200  0.59391200  1
  C  388  1  0.64490600  0.29756300  0.58664000  1
  C  389  1  0.64175300  0.32801900  0.59540300  1
  C  390  1  0.64307400  0.40254800  0.58073300  1
  C  391  1  0.65002100  0.42147100  0.55767300  1
  C  392  1  0.68006200  0.43204100  0.55339700  1
  C  393  1  0.70321900  0.42192200  0.57186400  1
  C  394  1  0.69597500  0.40297700  0.59500500  1
  C  411  1  0.17106100  0.14994000  0.90435500  1
  C  412  1  0.19641600  0.13365500  0.89378300  1
  C  413  1  0.19356000  0.10271400  0.88615200  1
  C  414  1  0.16509900  0.08721500  0.88762400  1
  C  415  1  0.14132500  0.10274100  0.90217100  1
  C  416  1  0.14390400  0.13361200  0.90974000  1
  C  417  1  0.16034100  0.05489900  0.87606100  1
  C  418  1  0.16643800  0.03643900  0.90289600  1
  C  419  1  0.14285200  0.03013200  0.92267600  1
  C  420  1  0.14850600  0.01481600  0.94822700  1
  C  421  1  0.17840200  0.00603500  0.95588700  1
  C  422  1  0.20243800  0.01352400  0.93722100  1
  C  423  1  0.19658100  0.02909900  0.91170800  1
  C  424  1  0.18056400  0.04674100  0.85087800  1
  C  425  1  0.12876100  0.04992200  0.86298100  1
  C  426  1  0.11419500  0.02094700  0.86301300  1
  C  427  1  0.08349700  0.01752800  0.85474900  1
  C  428  1  0.06661700  0.04278900  0.84471100  1
  C  429  1  0.08245000  0.07046000  0.84024500  1
  C  430  1  0.11298900  0.07370500  0.84870900  1
  C  431  1  0.18609500  0.06833400  0.82902000  1
  C  432  1  0.20488700  0.06161900  0.80580300  1
  C  433  1  0.21784700  0.03236500  0.80280800  1
  C  434  1  0.21033300  0.00960700  0.82270700  1
  C  435  1  0.19158000  0.01666200  0.84603900  1
  C  452  1  0.32827000  0.77567700  0.40437100  1
  C  453  1  0.30288800  0.79198500  0.39388600  1
  C  454  1  0.30574000  0.82292600  0.38626000  1
  C  455  1  0.33421700  0.83840200  0.38765100  1
  C  456  1  0.35803200  0.82285600  0.40212000  1
  C  457  1  0.35545800  0.79198300  0.40968300  1
  C  458  1  0.33894700  0.87071200  0.37606200  1
  C  459  1  0.33281200  0.88918300  0.40288200  1
  C  460  1  0.35638900  0.89543900  0.42268600  1
  C  461  1  0.35072900  0.91077500  0.44822900  1
  C  462  1  0.32084100  0.91962000  0.45585100  1
  C  463  1  0.29681500  0.91217400  0.43716100  1
  C  464  1  0.30267300  0.89659800  0.41164600  1
  C  465  1  0.31872800  0.87882000  0.35086100  1
  C  466  1  0.37052500  0.87570600  0.36297900  1
  C  467  1  0.38511300  0.90466700  0.36306800  1
  C  468  1  0.41582200  0.90805700  0.35483200  1
  C  469  1  0.43266000  0.88283100  0.34466000  1
  C  470  1  0.41679000  0.85518600  0.34015100  1
  C  471  1  0.38624500  0.85195300  0.34860900  1
  C  472  1  0.31312700  0.85717300  0.32906400  1
  C  473  1  0.29430500  0.86385600  0.30586200  1
  C  474  1  0.28140500  0.89312900  0.30280100  1
  C  475  1  0.28898900  0.91592800  0.32263900  1
  C  476  1  0.30775400  0.90890400  0.34596800  1
  C  493  1  0.56651300  0.54453000  0.34709700  1
  C  494  1  0.58405800  0.51872200  0.35465100  1
  C  495  1  0.61502500  0.52183900  0.36215700  1
  C  496  1  0.62923600  0.55093700  0.36395700  1
  C  497  1  0.61259100  0.57570700  0.35221600  1
  C  498  1  0.58183400  0.57274800  0.34439700  1
  C  499  1  0.66136900  0.55482900  0.37621300  1
  C  500  1  0.68070500  0.54576500  0.35066200  1
  C  501  1  0.68391000  0.56612700  0.32740600  1
  C  502  1  0.70227900  0.55912200  0.30395800  1
  C  503  1  0.71712000  0.53067000  0.30224200  1
  C  504  1  0.71203200  0.50889600  0.32366800  1
  C  505  1  0.69364300  0.51623500  0.34716300  1
  C  506  1  0.66751600  0.53626300  0.40301200  1
  C  507  1  0.66738300  0.58708000  0.38748800  1
  C  508  1  0.69482700  0.60350200  0.38247100  1
  C  509  1  0.69784600  0.63445500  0.38997400  1
  C  510  1  0.67397700  0.64980700  0.40411100  1
  C  511  1  0.64826000  0.63269200  0.41255400  1
  C  512  1  0.64543500  0.60185500  0.40493400  1
  C  513  1  0.64386100  0.52820200  0.42216900  1
  C  514  1  0.64982700  0.51313300  0.44778200  1
  C  515  1  0.68000700  0.50611300  0.45597100  1
  C  516  1  0.70401700  0.51498800  0.43784300  1
  C  517  1  0.69783400  0.53050600  0.41236400  1
  C  534  1  0.93271100  0.38112400  0.84706400  1
  C  535  1  0.91520200  0.40691400  0.85474100  1
  C  536  1  0.88423300  0.40381400  0.86223400  1
  C  537  1  0.87000100  0.37472500  0.86398300  1
  C  538  1  0.88662000  0.34996800  0.85218500  1
  C  539  1  0.91736100  0.35292700  0.84431500  1
  C  540  1  0.83787800  0.37081400  0.87625100  1
  C  541  1  0.81853100  0.37985300  0.85070200  1
  C  542  1  0.81527300  0.35945500  0.82748100  1
  C  543  1  0.79689300  0.36644300  0.80403900  1
  C  544  1  0.78210600  0.39492000  0.80228100  1
  C  545  1  0.78725600  0.41672900  0.82366400  1
  C  546  1  0.80564700  0.40940100  0.84716100  1
  C  547  1  0.83172000  0.38938600  0.90304600  1
  C  548  1  0.83188400  0.33856600  0.88754400  1
  C  549  1  0.80440600  0.32216600  0.88261500  1
  C  550  1  0.80140600  0.29120400  0.89010000  1
  C  551  1  0.82532300  0.27584300  0.90415800  1
  C  552  1  0.85105100  0.29295000  0.91258200  1
  C  553  1  0.85388200  0.32377000  0.90492200  1
  C  554  1  0.85536300  0.39740300  0.92222900  1
  C  555  1  0.84939000  0.41248400  0.94783500  1
  C  556  1  0.81921000  0.41953800  0.95599900  1
  C  557  1  0.79520700  0.41069000  0.93785000  1
  C  558  1  0.80139600  0.39517400  0.91237300  1
  C  575  1  0.33066500  0.14577000  0.59538400  1
  C  576  1  0.30520800  0.12867200  0.60463500  1
  C  577  1  0.30854600  0.09792100  0.61275900  1
  C  578  1  0.33760300  0.08353100  0.61342400  1
  C  579  1  0.36174200  0.09956100  0.59993500  1
  C  580  1  0.35857500  0.13014900  0.59160600  1
  C  581  1  0.34226000  0.05184200  0.62637800  1
  C  582  1  0.33408700  0.03179100  0.60107500  1
  C  583  1  0.35557500  0.02678400  0.57901400  1
  C  584  1  0.34894700  0.00808500  0.55570500  1
  C  585  1  0.31985800  0.99473700  0.55282700  1
  C  586  1  0.29716800  0.00170800  0.57295500  1
  C  587  1  0.30413800  0.02035600  0.59637700  1
  C  588  1  0.32357700  0.04571100  0.65308200  1
  C  589  1  0.37447500  0.04686600  0.63811700  1
  C  590  1  0.39027600  0.01864000  0.63591300  1
  C  591  1  0.42112000  0.01579000  0.64387100  1
  C  592  1  0.43704300  0.04081900  0.65556800  1
  C  593  1  0.42034200  0.06761400  0.66155300  1
  C  594  1  0.38959000  0.07023500  0.65357700  1
  C  595  1  0.31655400  0.06932200  0.67262300  1
  C  596  1  0.30117400  0.06353800  0.69811700  1
  C  597  1  0.29296600  0.03352400  0.70591200  1
  C  598  1  0.30103300  0.00950400  0.68744300  1
  C  599  1  0.31670700  0.01549000  0.66200800  1
  C  616  1  0.16841800  0.77990700  0.09542000  1
  C  617  1  0.19389200  0.79701600  0.10461300  1
  C  618  1  0.19057300  0.82777500  0.11271700  1
  C  619  1  0.16151100  0.84215500  0.11346100  1
  C  620  1  0.13732800  0.82608700  0.10008200  1
  C  621  1  0.14049000  0.79551300  0.09171200  1
  C  622  1  0.15689700  0.87385200  0.12641100  1
  C  623  1  0.16510400  0.89388300  0.10110200  1
  C  624  1  0.14365800  0.89885500  0.07900100  1
  C  625  1  0.15030800  0.91756500  0.05570600  1
  C  626  1  0.17938200  0.93096400  0.05288500  1
  C  627  1  0.20203400  0.92404400  0.07306600  1
  C  628  1  0.19503900  0.90539100  0.09647800  1
  C  629  1  0.17557700  0.87996900  0.15312200  1
  C  630  1  0.12468400  0.87887100  0.13814100  1
  C  631  1  0.10885400  0.90707300  0.13583100  1
  C  632  1  0.07803600  0.90996600  0.14385700  1
  C  633  1  0.06212800  0.88496300  0.15561900  1
  C  634  1  0.07883800  0.85818800  0.16166400  1
  C  635  1  0.10958600  0.85555200  0.15368200  1
  C  636  1  0.18265900  0.85631700  0.17260600  1
  C  637  1  0.19804500  0.86207300  0.19810200  1
  C  638  1  0.20621500  0.89208200  0.20594800  1
  C  639  1  0.19809200  0.91613100  0.18753400  1
  C  640  1  0.18241400  0.91017800  0.16209400  1
  C  657  1  0.22237700  0.39925700  0.76753400  1
  C  658  1  0.25032400  0.41541400  0.76790000  1
  C  659  1  0.26975600  0.41613800  0.74390200  1
  C  660  1  0.26057700  0.40081500  0.71886900  1
  C  661  1  0.23190800  0.38615900  0.71791600  1
  C  663  1  0.21306000  0.38545600  0.74190700  1
  C  669  1  0.27687200  0.52644900  0.26749300  1
  C  670  1  0.24894600  0.51025300  0.26784100  1
  C  671  1  0.22949200  0.50960700  0.24385200  1
  C  672  1  0.23865000  0.52497000  0.21883000  1
  C  673  1  0.26731700  0.53963100  0.21790700  1
  C  675  1  0.28619200  0.54027000  0.24187800  1
  C  681  1  0.81409500  0.93588900  0.01773900  1
  C  682  1  0.79907200  0.96446300  0.01868300  1
  C  683  1  0.79823900  0.98407500  0.99482500  1
  C  684  1  0.81231100  0.97452300  0.96929900  1
  C  685  1  0.82595700  0.94539500  0.96779600  1
  C  687  1  0.82671700  0.92633100  0.99165100  1
  C  693  1  0.68509700  0.98975600  0.51776700  1
  C  694  1  0.70014600  0.96119200  0.51871600  1
  C  695  1  0.70092100  0.94155300  0.49487300  1
  C  696  1  0.68684000  0.95110000  0.46934700  1
  C  697  1  0.67320600  0.98022800  0.46783700  1
  C  699  1  0.67249100  0.99932000  0.49167300  1
  C  705  1  0.77627000  0.52710100  0.23127900  1
  C  706  1  0.74772000  0.51203200  0.23032800  1
  C  707  1  0.72809900  0.51118600  0.25417900  1
  C  708  1  0.73764200  0.52528300  0.27969400  1
  C  709  1  0.76675200  0.53896300  0.28121700  1
  C  711  1  0.78581400  0.53974600  0.25736200  1
  C  717  1  0.72292900  0.39855900  0.73132600  1
  C  718  1  0.75145700  0.41367300  0.73039400  1
  C  719  1  0.77109800  0.41444200  0.75423400  1
  C  720  1  0.76158000  0.40029500  0.77973700  1
  C  721  1  0.73247700  0.38660200  0.78123200  1
  C  723  1  0.71338700  0.38588300  0.75739600  1
  C  729  1  0.18349000  0.98951900  0.98143900  1
  C  730  1  0.19984100  0.96167800  0.98131400  1
  C  731  1  0.20045400  0.94232500  0.00537000  1
  C  732  1  0.18473800  0.95141300  0.03022800  1
  C  733  1  0.16982800  0.97996100  0.03093200  1
  C  735  1  0.16930200  0.99876300  0.00690800  1
  C  741  1  0.31575800  0.93615200  0.48140000  1
  C  742  1  0.29939300  0.96398400  0.48126000  1
  C  743  1  0.29882700  0.98337000  0.50529900  1
  C  744  1  0.31452800  0.97428500  0.53016700  1
  C  745  1  0.32941500  0.94572600  0.53088400  1
  C  747  1  0.32990800  0.92689400  0.50688100  1
  C  753  1  0.72248800  0.89851300  0.26743200  1
  C  754  1  0.75039100  0.91471200  0.26734700  1
  C  755  1  0.76961300  0.91498800  0.24318500  1
  C  756  1  0.76030000  0.89911300  0.21845800  1
  C  757  1  0.73152800  0.88457800  0.21797900  1
  C  759  1  0.71290600  0.88427400  0.24211800  1
  C  765  1  0.77677900  0.02724500  0.76739400  1
  C  766  1  0.74891500  0.01097600  0.76730100  1
  C  767  1  0.72965000  0.01078000  0.74316500  1
  C  768  1  0.73892700  0.02673000  0.71846200  1
  C  769  1  0.76768300  0.04128700  0.71798600  1
  C  771  1  0.78634300  0.04152600  0.74209700  1
  C  777  1  0.31246600  0.43575900  0.51749800  1
  C  778  1  0.29604600  0.46354800  0.51783700  1
  C  779  1  0.29529700  0.48302000  0.49386500  1
  C  780  1  0.31084800  0.47404500  0.46888600  1
  C  781  1  0.32572600  0.44548000  0.46796500  1
  C  783  1  0.32647200  0.42659700  0.49192500  1
  C  789  1  0.18676400  0.48991200  0.01745500  1
  C  790  1  0.20321500  0.46213700  0.01780500  1
  C  791  1  0.20391500  0.44262200  0.99385900  1
  C  792  1  0.18835900  0.45159500  0.96888200  1
  C  793  1  0.17347600  0.48015000  0.96793800  1
  C  795  1  0.17276900  0.49906900  0.99187500  1
  C  801  1  0.27651600  0.02829000  0.73146200  1
  C  802  1  0.24880000  0.01174300  0.73134900  1
  C  803  1  0.22942600  0.01108500  0.75539500  1
  C  804  1  0.23838500  0.02694100  0.78022200  1
  C  805  1  0.26686700  0.04199200  0.78091400  1
  C  807  1  0.28567400  0.04258700  0.75690100  1
  C  813  1  0.22267100  0.89727400  0.23150100  1
  C  814  1  0.25034300  0.91390200  0.23141200  1
  C  815  1  0.26976000  0.91447700  0.25543200  1
  C  816  1  0.26084900  0.89852000  0.28022100  1
  C  817  1  0.23238700  0.88343700  0.28090300  1
  C  819  1  0.21354000  0.88291300  0.25691700  1
  C  825  1  0.68537700  0.49009300  0.48167500  1
  C  826  1  0.70151400  0.46215600  0.48176200  1
  C  827  1  0.70178400  0.44296400  0.50594300  1
  C  828  1  0.68596800  0.45234600  0.53068100  1
  C  829  1  0.67150800  0.48115600  0.53115800  1
  C  831  1  0.67120900  0.49974600  0.50700000  1
  C  837  1  0.81384000  0.43555400  0.98171000  1
  C  838  1  0.79766800  0.46347700  0.98178600  1
  C  839  1  0.79744700  0.48270700  0.00594200  1
  C  840  1  0.81326500  0.47333000  0.03067800  1
  C  841  1  0.82772300  0.44452400  0.03117600  1
  C  843  1  0.82798700  0.42590000  0.00704200  1
  C  849  1  0.17133300  0.18235500  0.90594300  1
  C  850  1  0.19410800  0.19879900  0.92064700  1
  C  851  1  0.19442900  0.23121300  0.92097500  1
  C  852  1  0.17161600  0.24760500  0.90590100  1
  C  853  1  0.14925800  0.23093000  0.89079000  1
  C  855  1  0.14902700  0.19898200  0.89089400  1
  C  861  1  0.32797800  0.74325900  0.40595500  1
  C  862  1  0.30521000  0.72683300  0.42068700  1
  C  863  1  0.30487700  0.69441700  0.42103400  1
  C  864  1  0.32765800  0.67800900  0.40593400  1
  C  865  1  0.35001200  0.69466400  0.39080200  1
  C  867  1  0.35026800  0.72661100  0.39090400  1
  C  873  1  0.02971800  0.88518700  0.15802000  1
  C  874  1  0.01352400  0.90947800  0.17077200  1
  C  875  1  0.98112600  0.91016700  0.17120200  1
  C  876  1  0.96444900  0.88603100  0.15837200  1
  C  877  1  0.98078400  0.86187700  0.14551400  1
  C  879  1  0.01274000  0.86142700  0.14538100  1
  C  885  1  0.46945600  0.04056700  0.65794200  1
  C  886  1  0.48563400  0.01628700  0.67073100  1
  C  887  1  0.51803100  0.01557700  0.67115900  1
  C  888  1  0.53472300  0.03966700  0.65826800  1
  C  889  1  0.51840300  0.06381300  0.64538100  1
  C  891  1  0.48644900  0.06429600  0.64527100  1
  C  897  1  0.32946700  0.17822400  0.59325400  1
  C  898  1  0.30549600  0.19379000  0.57933300  1
  C  899  1  0.30392600  0.22616100  0.57888200  1
  C  900  1  0.32686000  0.24346500  0.59283400  1
  C  901  1  0.35060100  0.22780800  0.60698600  1
  C  903  1  0.35187200  0.19587900  0.60719500  1
  C  909  1  0.16963200  0.74745500  0.09326600  1
  C  910  1  0.19359300  0.73190700  0.07931300  1
  C  911  1  0.19517400  0.69953700  0.07883400  1
  C  912  1  0.17227800  0.68221400  0.09281900  1
  C  913  1  0.14856000  0.69785100  0.10701900  1
  C  915  1  0.14726400  0.72977900  0.10723400  1
  C  921  1  0.46511200  0.88389200  0.34238700  1
  C  922  1  0.48075600  0.90837700  0.32934000  1
  C  923  1  0.51312800  0.90990700  0.32899600  1
  C  924  1  0.53036300  0.88638300  0.34215000  1
  C  925  1  0.51464600  0.86205800  0.35534800  1
  C  927  1  0.48270900  0.86085100  0.35548200  1
  C  933  1  0.03416000  0.04170300  0.84246400  1
  C  934  1  0.01852700  0.01722600  0.82938500  1
  C  935  1  0.98615700  0.01568000  0.82903700  1
  C  936  1  0.96891100  0.03917700  0.84221600  1
  C  937  1  0.98461500  0.06348900  0.85544800  1
  C  939  1  0.01654800  0.06472400  0.85556900  1
  C  945  1  0.83048600  0.74281000  0.09297000  1
  C  946  1  0.80697000  0.72715000  0.07844700  1
  C  947  1  0.80561000  0.69477800  0.07776000  1
  C  948  1  0.82840500  0.67754600  0.09194100  1
  C  949  1  0.85175400  0.69323400  0.10660900  1
  C  951  1  0.85274200  0.72517000  0.10714300  1
  C  957  1  0.66867700  0.18288800  0.59297000  1
  C  958  1  0.69217600  0.19854000  0.57841600  1
  C  959  1  0.69354500  0.23091200  0.57772200  1
  C  960  1  0.67078000  0.24815100  0.59193900  1
  C  961  1  0.64744300  0.23247300  0.60663000  1
  C  963  1  0.64643400  0.20053600  0.60715300  1
  C  969  1  0.67021200  0.74744800  0.40475700  1
  C  970  1  0.69428900  0.73218500  0.41884400  1
  C  971  1  0.69618700  0.69983600  0.41950500  1
  C  972  1  0.67338400  0.68223900  0.40572900  1
  C  973  1  0.64953500  0.69751100  0.39140600  1
  C  975  1  0.64803600  0.72942400  0.39087700  1
  C  981  1  0.82908700  0.17819700  0.90475700  1
  C  982  1  0.80501500  0.19345300  0.91886200  1
  C  983  1  0.80311900  0.22580100  0.91954100  1
  C  984  1  0.82590000  0.24340700  0.90574200  1
  C  985  1  0.84973000  0.22814400  0.89138500  1
  C  987  1  0.85124300  0.19623200  0.89085800  1
  C  993  1  0.52954400  0.38246500  0.65492600  1
  C  994  1  0.51325200  0.40444700  0.67080100  1
  C  995  1  0.48083800  0.40501900  0.67117200  1
  C  996  1  0.46427200  0.38321300  0.65503900  1
  C  997  1  0.48073600  0.36173000  0.63870400  1
  C  999  1  0.51267900  0.36130800  0.63869300  1
  C  1005  1  0.96968500  0.54321300  0.15488300  1
  C  1006  1  0.98596300  0.52121300  0.17075000  1
  C  1007  1  0.01837400  0.52062900  0.17113500  1
  C  1008  1  0.03495400  0.54242100  0.15500100  1
  C  1009  1  0.01850800  0.56392200  0.13867200  1
  C  1011  1  0.98656600  0.56436700  0.13866300  1
  C  1017  1  0.96519000  0.38245900  0.84519200  1
  C  1018  1  0.98077300  0.40585500  0.83046000  1
  C  1019  1  0.01314800  0.40734300  0.82988000  1
  C  1020  1  0.03044300  0.38489800  0.84450600  1
  C  1021  1  0.01478600  0.36183400  0.85958000  1
  C  1023  1  0.98285800  0.36065900  0.85993400  1
  C  1029  1  0.53403400  0.54316600  0.34525500  1
  C  1030  1  0.51846300  0.51980400  0.33046200  1
  C  1031  1  0.48608800  0.51831100  0.32986500  1
  C  1032  1  0.46878300  0.54070200  0.34455200  1
  C  1033  1  0.48442700  0.56372700  0.35968800  1
  C  1035  1  0.51635400  0.56492200  0.36003900  1
  N  666  1  0.29877900  0.43028700  0.74488600  1
  N  678  1  0.20046400  0.49546400  0.24483700  1
  N  690  1  0.78497000  0.01348800  0.99628600  1
  N  702  1  0.71416500  0.91212800  0.49635200  1
  N  714  1  0.69869900  0.49788700  0.25271700  1
  N  726  1  0.80050000  0.42774100  0.75277300  1
  N  738  1  0.21490600  0.91344400  0.00459200  1
  N  750  1  0.28441200  0.01227000  0.50449500  1
  N  762  1  0.79870700  0.92901900  0.24389500  1
  N  774  1  0.70056300  0.99673600  0.74388000  1
  N  786  1  0.28092800  0.51193600  0.49485200  1
  N  798  1  0.21826500  0.41370000  0.99487000  1
  N  810  1  0.20061000  0.99650400  0.75460100  1
  N  822  1  0.29856200  0.92908700  0.25463800  1
  N  834  1  0.71574900  0.41383600  0.50524800  1
  N  846  1  0.78350900  0.51184600  0.00522100  1
  N  858  1  0.21662600  0.24746200  0.93668700  1
  N  870  1  0.28268700  0.67818700  0.43677400  1
  N  882  1  0.96513500  0.93419300  0.18466300  1
  N  894  1  0.53401300  0.99157100  0.68466000  1
  N  906  1  0.28026400  0.24152800  0.56428600  1
  N  918  1  0.21881300  0.68419200  0.06418800  1
  N  930  1  0.52857400  0.93415000  0.31532600  1
  N  942  1  0.97072300  0.99144400  0.81534600  1
  N  954  1  0.78228400  0.67931400  0.06279800  1
  N  966  1  0.71685500  0.24636700  0.56273000  1
  N  978  1  0.72003600  0.68473900  0.43407500  1
  N  990  1  0.77929100  0.24088700  0.93415000  1
  N  1002  1  0.46474200  0.42642400  0.68793000  1
  N  1014  1  0.03445800  0.49921200  0.18789200  1
  N  1026  1  0.02853100  0.43038100  0.81446700  1
  N  1038  1  0.47071800  0.49532100  0.31437900  1
  O  667  1  0.29643800  0.45830200  0.75008300  1
  O  668  1  0.31562600  0.41832600  0.76333400  1
  O  679  1  0.20279600  0.46744100  0.24998100  1
  O  680  1  0.18363500  0.50739600  0.26331700  1
  O  691  1  0.75706000  0.01191700  0.00217300  1
  O  692  1  0.79794000  0.02987100  0.01450400  1
  O  703  1  0.74208200  0.91368000  0.50221600  1
  O  704  1  0.70119500  0.89577500  0.51459000  1
  O  715  1  0.70030100  0.46997500  0.24683800  1
  O  716  1  0.68230900  0.51083400  0.23449200  1
  O  727  1  0.79890000  0.45566400  0.74694900  1
  O  728  1  0.81687200  0.41482800  0.73451300  1
  O  739  1  0.24295700  0.91605000  0.99968900  1
  O  740  1  0.20333900  0.89643000  0.98605700  1
  O  751  1  0.25635700  0.00969700  0.49959800  1
  O  752  1  0.29599800  0.02924800  0.48594300  1
  O  763  1  0.79653500  0.95712500  0.24871900  1
  O  764  1  0.81561000  0.91725800  0.26241300  1
  O  775  1  0.70275300  0.96861700  0.74863500  1
  O  776  1  0.68368500  0.00843600  0.76245100  1
  O  787  1  0.25290500  0.50937600  0.49991800  1
  O  788  1  0.29266700  0.52882600  0.51339100  1
  O  799  1  0.24629300  0.41624500  0.99991100  1
  O  800  1  0.20652600  0.39684100  0.01343300  1
  O  811  1  0.20334800  0.96845300  0.74975500  1
  O  812  1  0.18357200  0.00795100  0.73602100  1
  O  823  1  0.29579000  0.95715400  0.24988200  1
  O  824  1  0.31558000  0.91771900  0.23599900  1
  O  835  1  0.74385000  0.41594000  0.50038600  1
  O  836  1  0.70392400  0.39693700  0.48676200  1
  O  847  1  0.75540100  0.50976300  0.00037600  1
  O  848  1  0.79533900  0.52871200  0.98671200  1
  O  859  1  0.24317200  0.24147700  0.92829200  1
  O  860  1  0.21493000  0.24142700  0.96265600  1
  O  871  1  0.25613800  0.68417800  0.42839800  1
  O  872  1  0.28441200  0.68423500  0.46273600  1
  O  883  1  0.97138000  0.95957700  0.17373000  1
  O  884  1  0.97122000  0.93537000  0.21064500  1
  O  895  1  0.52775100  0.96616600  0.67377300  1
  O  896  1  0.52793300  0.99045300  0.71064600  1
  O  907  1  0.25450200  0.23466100  0.57407100  1
  O  908  1  0.28061800  0.23539700  0.53829300  1
  O  919  1  0.24459300  0.69106200  0.07393500  1
  O  920  1  0.21840700  0.69034000  0.03820000  1
  O  931  1  0.52171100  0.95948900  0.32602900  1
  O  932  1  0.52251900  0.93491200  0.28932600  1
  O  943  1  0.97759500  0.96609900  0.82603000  1
  O  944  1  0.97678000  0.99070900  0.78934500  1
  O  955  1  0.75633700  0.68592100  0.07231600  1
  O  956  1  0.78294800  0.68564100  0.03685100  1
  O  967  1  0.74281200  0.23975300  0.57222000  1
  O  968  1  0.71615300  0.24003800  0.53678500  1
  O  979  1  0.74568000  0.69171400  0.42409200  1
  O  980  1  0.71980800  0.69108000  0.46002500  1
  O  991  1  0.75363100  0.23391700  0.92419900  1
  O  992  1  0.77956000  0.23453300  0.96009700  1
  O  1003  1  0.47086600  0.45334600  0.68074900  1
  O  1004  1  0.47082000  0.42331300  0.71377600  1
  O  1015  1  0.02832700  0.47229500  0.18070300  1
  O  1016  1  0.02837400  0.50232200  0.21373700  1
  O  1027  1  0.02179300  0.45651800  0.82344400  1
  O  1028  1  0.02229000  0.42908300  0.78852400  1
  O  1039  1  0.47745500  0.46915700  0.32328900  1
  O  1040  1  0.47697100  0.49670300  0.28844300  1
