# generated using pymatgen
data_H18C21(NO)2
_symmetry_space_group_name_H-M   'P 1'
_cell_length_a   55.26030000
_cell_length_b   55.26040000
_cell_length_c   55.33530000
_cell_angle_alpha   90.07770000
_cell_angle_beta   89.92250000
_cell_angle_gamma   90.00000000
_symmetry_Int_Tables_number   1
_chemical_formula_structural   H18C21(NO)2
_chemical_formula_sum   'H432 C504 N48 O48'
_cell_volume   168977.44327092
_cell_formula_units_Z   24
loop_
 _symmetry_equiv_pos_site_id
 _symmetry_equiv_pos_as_xyz
  1  'x, y, z'
loop_
 _atom_site_type_symbol
 _atom_site_label
 _atom_site_symmetry_multiplicity
 _atom_site_fract_x
 _atom_site_fract_y
 _atom_site_fract_z
 _atom_site_occupancy
  H  5  1  0.16133600  0.28471600  0.03643000  1
  H  6  1  0.14081500  0.30572500  0.02440300  1
  H  9  1  0.13069600  0.30626300  0.97941700  1
  H  10  1  0.14538500  0.28621900  0.95939500  1
  H  11  1  0.09851400  0.29007200  0.00901000  1
  H  12  1  0.09206400  0.25892900  0.01043500  1
  H  15  1  0.13530700  0.24114400  0.96002500  1
  H  16  1  0.11482700  0.22907700  0.98107700  1
  H  18  1  0.17759300  0.25667000  0.97552700  1
  H  19  1  0.18407900  0.25529000  0.00661300  1
  H  21  1  0.12416000  0.22869400  0.02600800  1
  H  22  1  0.15202200  0.23970300  0.03691800  1
  H  35  1  0.36557700  0.78545200  0.96767000  1
  H  36  1  0.38620900  0.80620300  0.98001100  1
  H  39  1  0.39573400  0.80666500  0.02514600  1
  H  40  1  0.38047700  0.78686000  0.04492400  1
  H  41  1  0.42806300  0.79002700  0.99595000  1
  H  42  1  0.43413600  0.75880400  0.99455200  1
  H  45  1  0.38993500  0.74162200  0.04436200  1
  H  46  1  0.41056400  0.72926600  0.02359000  1
  H  48  1  0.34812000  0.75774300  0.02830800  1
  H  49  1  0.34204500  0.75635700  0.99714100  1
  H  51  1  0.40186200  0.72895800  0.97853100  1
  H  52  1  0.37430000  0.74031100  0.96724700  1
  H  65  1  0.86424800  0.24291400  0.53531100  1
  H  66  1  0.88470700  0.22154400  0.52371200  1
  H  69  1  0.89595400  0.22075300  0.47899800  1
  H  70  1  0.88215100  0.24101000  0.45865700  1
  H  71  1  0.92766100  0.23649100  0.50934200  1
  H  72  1  0.93456600  0.26753500  0.51091600  1
  H  75  1  0.89290800  0.28588500  0.45956700  1
  H  76  1  0.91302900  0.29767300  0.48109000  1
  H  78  1  0.84996800  0.27109500  0.47410900  1
  H  79  1  0.84273400  0.27260200  0.50505000  1
  H  81  1  0.90256800  0.29830800  0.52579100  1
  H  82  1  0.87426800  0.28776800  0.53606500  1
  H  95  1  0.66216000  0.74061000  0.47044000  1
  H  96  1  0.64196000  0.71896000  0.48192100  1
  H  99  1  0.63078600  0.71787200  0.52667200  1
  H  100  1  0.64436700  0.73823000  0.54711200  1
  H  101  1  0.59890000  0.73328600  0.49641000  1
  H  102  1  0.59157700  0.76423600  0.49500300  1
  H  105  1  0.63305200  0.78298900  0.54647800  1
  H  106  1  0.61273600  0.79457800  0.52505700  1
  H  108  1  0.67613000  0.76878000  0.53182300  1
  H  109  1  0.68332700  0.77049400  0.50089000  1
  H  111  1  0.62316000  0.79548800  0.48034900  1
  H  112  1  0.65158800  0.78534700  0.46999000  1
  H  125  1  0.28313700  0.98039100  0.85120500  1
  H  126  1  0.30489800  0.99206300  0.87114300  1
  H  129  1  0.30597400  0.03691800  0.88204800  1
  H  130  1  0.28550800  0.05726700  0.86853200  1
  H  131  1  0.29076100  0.00680600  0.91420900  1
  H  132  1  0.25984800  0.00534000  0.92171400  1
  H  135  1  0.24083200  0.05657800  0.88017200  1
  H  136  1  0.22938400  0.03520100  0.90064300  1
  H  138  1  0.25482100  0.04166500  0.83708600  1
  H  139  1  0.25312600  0.01063800  0.83011100  1
  H  141  1  0.22847300  0.99035100  0.89049000  1
  H  142  1  0.23846300  0.97986300  0.86208500  1
  H  155  1  0.78480800  0.04798700  0.64826400  1
  H  156  1  0.80588300  0.03555100  0.62799400  1
  H  159  1  0.80668600  0.99026400  0.61882300  1
  H  160  1  0.78676200  0.97049100  0.63395000  1
  H  161  1  0.79035500  0.01911100  0.58614700  1
  H  162  1  0.75921300  0.02026000  0.57968900  1
  H  165  1  0.74167600  0.97068800  0.62397100  1
  H  166  1  0.72949000  0.99121300  0.60308800  1
  H  168  1  0.75713700  0.98726900  0.66582400  1
  H  169  1  0.75557300  0.01853500  0.67165200  1
  H  171  1  0.72884500  0.03639600  0.61146500  1
  H  172  1  0.73978800  0.04804100  0.63903500  1
  H  185  1  0.24324300  0.47912400  0.15163600  1
  H  186  1  0.22168500  0.49121800  0.13176300  1
  H  189  1  0.22046200  0.53635500  0.12223000  1
  H  190  1  0.24060500  0.55644000  0.13664900  1
  H  191  1  0.23629000  0.50724200  0.08938700  1
  H  192  1  0.26730400  0.50616700  0.08224500  1
  H  195  1  0.28544100  0.55635100  0.12561100  1
  H  196  1  0.29730200  0.53563500  0.10464300  1
  H  198  1  0.27096600  0.54015500  0.16801600  1
  H  199  1  0.27276400  0.50895800  0.17406900  1
  H  201  1  0.29837400  0.49053000  0.11343600  1
  H  202  1  0.28806000  0.47917500  0.14136100  1
  H  215  1  0.74062400  0.54648400  0.35300600  1
  H  216  1  0.71929800  0.53462200  0.37332400  1
  H  219  1  0.71854700  0.48965600  0.38383700  1
  H  220  1  0.73878900  0.46948500  0.36963100  1
  H  221  1  0.73426700  0.51962700  0.41588500  1
  H  222  1  0.76530400  0.52115100  0.42275600  1
  H  225  1  0.78370900  0.47023200  0.38030500  1
  H  226  1  0.79548200  0.49150200  0.40073500  1
  H  228  1  0.76884800  0.48533900  0.33772900  1
  H  229  1  0.77035700  0.51640200  0.33097000  1
  H  231  1  0.79606500  0.53640000  0.39097700  1
  H  232  1  0.78549900  0.54705700  0.36289800  1
  H  245  1  0.98122400  0.16423600  0.72957700  1
  H  246  1  0.99282800  0.14416700  0.70784800  1
  H  249  1  0.03765300  0.13309500  0.70676500  1
  H  250  1  0.05802200  0.14663600  0.72720100  1
  H  251  1  0.00734400  0.10105700  0.72192900  1
  H  252  1  0.00578300  0.09360300  0.75278900  1
  H  255  1  0.05720500  0.13508000  0.77182700  1
  H  256  1  0.03571300  0.11467900  0.78325000  1
  H  258  1  0.04256100  0.17820600  0.75789700  1
  H  259  1  0.01157400  0.18533300  0.75960100  1
  H  261  1  0.99091900  0.12499800  0.78414600  1
  H  262  1  0.98058800  0.15346100  0.77418000  1
  H  275  1  0.04564600  0.36418800  0.23060400  1
  H  276  1  0.03401000  0.38454700  0.20925100  1
  H  279  1  0.98920800  0.39563200  0.20852500  1
  H  280  1  0.96885300  0.38182900  0.22882100  1
  H  281  1  0.01954700  0.42747800  0.22409900  1
  H  282  1  0.02108800  0.43451200  0.25508100  1
  H  285  1  0.96971900  0.39273300  0.27362400  1
  H  286  1  0.99121400  0.41298700  0.28530100  1
  H  288  1  0.98435400  0.34982400  0.25892600  1
  H  289  1  0.01534300  0.34268100  0.26039500  1
  H  291  1  0.03600300  0.40267900  0.28584700  1
  H  292  1  0.04633900  0.37436000  0.27537800  1
  H  305  1  0.47888500  0.86564200  0.77234300  1
  H  306  1  0.49074000  0.88602300  0.79360500  1
  H  309  1  0.53569200  0.89644300  0.79443600  1
  H  310  1  0.55592300  0.88214400  0.77431900  1
  H  311  1  0.50591800  0.92859600  0.77851300  1
  H  312  1  0.50460500  0.93535000  0.74747700  1
  H  315  1  0.55541200  0.89262700  0.72944500  1
  H  316  1  0.53427000  0.91307900  0.71753500  1
  H  318  1  0.54005000  0.85006600  0.74439400  1
  H  319  1  0.50895800  0.84338900  0.74286200  1
  H  321  1  0.48933900  0.90343900  0.71685900  1
  H  322  1  0.47851300  0.87540100  0.72750300  1
  H  335  1  0.54561400  0.66403400  0.27475800  1
  H  336  1  0.53410100  0.64383000  0.29635100  1
  H  339  1  0.48932600  0.63262800  0.29743100  1
  H  340  1  0.46886700  0.64619200  0.27713400  1
  H  341  1  0.51969900  0.60074300  0.28195500  1
  H  342  1  0.52120000  0.59345400  0.25102800  1
  H  345  1  0.46963500  0.63488100  0.23242700  1
  H  346  1  0.49116100  0.61460500  0.22080100  1
  H  348  1  0.48418800  0.67798600  0.24666100  1
  H  349  1  0.51515700  0.68520700  0.24497200  1
  H  351  1  0.53592000  0.62506400  0.21989400  1
  H  352  1  0.54620100  0.65349900  0.23006700  1
  H  367  1  0.01676900  0.35238800  0.16681300  1
  H  374  1  0.09116200  0.28042900  0.13888500  1
  H  375  1  0.11546800  0.27526200  0.10403200  1
  H  376  1  0.06766500  0.31840700  0.06363000  1
  H  377  1  0.03909400  0.28785400  0.20045600  1
  H  380  1  0.02020600  0.31892100  0.09681000  1
  H  381  1  0.03755100  0.34253300  0.08394500  1
  H  382  1  0.01725200  0.35462100  0.12254000  1
  H  383  1  0.04911300  0.35783100  0.12396900  1
  H  384  1  0.05862300  0.27556800  0.16417900  1
  H  386  1  0.10680400  0.30605500  0.04844600  1
  H  388  1  0.02933200  0.32629300  0.22244900  1
  H  395  1  0.50717700  0.85387200  0.83627400  1
  H  402  1  0.43471100  0.78050700  0.86557500  1
  H  403  1  0.41121800  0.77492600  0.90086900  1
  H  404  1  0.45891500  0.81910200  0.94039100  1
  H  405  1  0.48564200  0.78876000  0.80306100  1
  H  408  1  0.50567100  0.82069400  0.90621900  1
  H  409  1  0.48801100  0.84388600  0.91947800  1
  H  410  1  0.50712600  0.85645400  0.88048500  1
  H  411  1  0.47516400  0.85875100  0.87970600  1
  H  412  1  0.46686300  0.77625400  0.83964000  1
  H  414  1  0.42035600  0.80609600  0.95629600  1
  H  416  1  0.49445300  0.82760500  0.78100600  1
  H  423  1  0.00906500  0.17541000  0.66657300  1
  H  430  1  0.93383200  0.24675400  0.63887000  1
  H  431  1  0.90948400  0.25181500  0.60407600  1
  H  432  1  0.95691000  0.20799300  0.56370800  1
  H  433  1  0.98697200  0.24038400  0.69975400  1
  H  436  1  0.00439200  0.20748000  0.59640800  1
  H  437  1  0.98682300  0.18373400  0.58407800  1
  H  438  1  0.00744800  0.17210100  0.62252800  1
  H  439  1  0.97558700  0.16914400  0.62444500  1
  H  440  1  0.96659600  0.25187700  0.66376700  1
  H  442  1  0.91797500  0.22066300  0.54852900  1
  H  444  1  0.99745200  0.20227900  0.72197700  1
  H  451  1  0.51752600  0.67423900  0.33780900  1
  H  458  1  0.59323400  0.74462600  0.36679600  1
  H  459  1  0.61743200  0.74925800  0.40176900  1
  H  460  1  0.56968600  0.70518000  0.44135800  1
  H  461  1  0.54005100  0.73957800  0.30581300  1
  H  464  1  0.52238700  0.70513400  0.40856600  1
  H  465  1  0.53987000  0.68112300  0.42043700  1
  H  466  1  0.51916200  0.67020200  0.38178100  1
  H  467  1  0.55100900  0.66711600  0.37981300  1
  H  468  1  0.56051200  0.75035700  0.34199500  1
  H  470  1  0.60863300  0.71780300  0.45693900  1
  H  472  1  0.52933800  0.70191100  0.28288000  1
  H  479  1  0.35304300  0.84997200  0.99534600  1
  H  486  1  0.28086200  0.87713500  0.92111600  1
  H  487  1  0.27552000  0.91184500  0.89668600  1
  H  488  1  0.31888000  0.95277500  0.94392800  1
  H  489  1  0.28854700  0.81593700  0.97334900  1
  H  492  1  0.31949000  0.92003500  0.99152100  1
  H  493  1  0.34309500  0.93276600  0.97405500  1
  H  494  1  0.35517000  0.89435100  0.99464300  1
  H  495  1  0.35842200  0.89260300  0.96283600  1
  H  496  1  0.27616000  0.85208000  0.95372700  1
  H  498  1  0.30628700  0.96757900  0.90476000  1
  H  500  1  0.32716900  0.79419400  0.98293100  1
  H  507  1  0.85343200  0.17929400  0.50677200  1
  H  514  1  0.77991700  0.14962600  0.57893000  1
  H  515  1  0.77445200  0.11436400  0.60246600  1
  H  516  1  0.81940200  0.07496700  0.55529100  1
  H  517  1  0.78780500  0.21190400  0.52774700  1
  H  520  1  0.82109400  0.10885600  0.50851300  1
  H  521  1  0.84429600  0.09603700  0.52638500  1
  H  522  1  0.85656100  0.13508100  0.50714600  1
  H  523  1  0.85858900  0.13615800  0.53907300  1
  H  524  1  0.77560400  0.17528200  0.54666000  1
  H  526  1  0.80609400  0.05909600  0.59376400  1
  H  528  1  0.82646700  0.23439800  0.51908300  1
  H  535  1  0.17326100  0.34868000  0.00880400  1
  H  542  1  0.24678800  0.37713100  0.08134900  1
  H  543  1  0.25235400  0.41211800  0.10538000  1
  H  544  1  0.20776500  0.45224400  0.05870800  1
  H  545  1  0.23845700  0.31531300  0.02964200  1
  H  548  1  0.20629100  0.41890000  0.01141400  1
  H  549  1  0.18303700  0.43172000  0.02931400  1
  H  550  1  0.17066800  0.39297400  0.00945800  1
  H  551  1  0.16828100  0.39159500  0.04135300  1
  H  552  1  0.25095000  0.35170800  0.04885500  1
  H  554  1  0.22091200  0.46753600  0.09751800  1
  H  556  1  0.19957500  0.29329700  0.02086400  1
  H  563  1  0.67335900  0.67721900  0.49851000  1
  H  570  1  0.74460600  0.64946500  0.42325500  1
  H  571  1  0.74955100  0.61469300  0.39872800  1
  H  572  1  0.70601400  0.57417400  0.44616700  1
  H  573  1  0.73823900  0.71046500  0.47631300  1
  H  576  1  0.70571600  0.60688300  0.49377200  1
  H  577  1  0.68192400  0.59451600  0.47632500  1
  H  578  1  0.67032800  0.63302300  0.49711300  1
  H  579  1  0.66717900  0.63492500  0.46532000  1
  H  580  1  0.74985300  0.67435300  0.45604000  1
  H  582  1  0.71848300  0.55910700  0.40702500  1
  H  584  1  0.70008200  0.73270900  0.48665100  1
  H  591  1  0.84910000  0.02062700  0.66067600  1
  H  598  1  0.87733500  0.09572800  0.73195000  1
  H  599  1  0.91246300  0.11967800  0.73716500  1
  H  600  1  0.95260600  0.07145400  0.69401700  1
  H  601  1  0.81550600  0.04371500  0.72503200  1
  H  604  1  0.91916100  0.02432800  0.69362100  1
  H  605  1  0.93205800  0.04149100  0.66991400  1
  H  606  1  0.89335400  0.02129600  0.65805000  1
  H  607  1  0.89199000  0.05314800  0.65476900  1
  H  608  1  0.85181200  0.06343600  0.73692300  1
  H  610  1  0.96807800  0.11056900  0.70647800  1
  H  612  1  0.79348400  0.03331300  0.68670900  1
  H  619  1  0.17970000  0.50633600  0.16315800  1
  H  626  1  0.14979200  0.43153900  0.23410500  1
  H  627  1  0.11428300  0.40814800  0.23924000  1
  H  628  1  0.07524300  0.45648600  0.19545300  1
  H  629  1  0.21199400  0.48349100  0.22811600  1
  H  632  1  0.10921200  0.50306000  0.19475300  1
  H  633  1  0.09659200  0.48567700  0.17104300  1
  H  634  1  0.13565100  0.50534900  0.15947500  1
  H  635  1  0.13682100  0.47343900  0.15666300  1
  H  636  1  0.17548500  0.46371200  0.23933400  1
  H  638  1  0.05896300  0.41790100  0.20828000  1
  H  640  1  0.23470400  0.49392500  0.18997900  1
  H  647  1  0.34620400  0.00832100  0.84018400  1
  H  654  1  0.37570300  0.93428000  0.76817500  1
  H  655  1  0.41100500  0.91060700  0.76292600  1
  H  656  1  0.45034400  0.95828700  0.80729500  1
  H  657  1  0.31374100  0.98637900  0.77493900  1
  H  660  1  0.41666200  0.00516500  0.80838800  1
  H  661  1  0.42923600  0.98752100  0.83188000  1
  H  662  1  0.39027500  0.00726000  0.84371300  1
  H  663  1  0.38896300  0.97533300  0.84616700  1
  H  664  1  0.35019200  0.96666300  0.76335800  1
  H  666  1  0.46630600  0.91968600  0.79426000  1
  H  668  1  0.29111600  0.99630100  0.81322100  1
  H  675  1  0.67718500  0.51873700  0.34187600  1
  H  682  1  0.64929900  0.59412200  0.27100500  1
  H  683  1  0.61453000  0.61866200  0.26620100  1
  H  684  1  0.57411800  0.57132600  0.30994800  1
  H  685  1  0.71017200  0.54089400  0.27693300  1
  H  688  1  0.60667100  0.52366800  0.31007700  1
  H  689  1  0.59452400  0.54121400  0.33394600  1
  H  690  1  0.63300600  0.52028800  0.34521600  1
  H  691  1  0.63505600  0.55212100  0.34840600  1
  H  692  1  0.67407800  0.56127400  0.26561500  1
  H  694  1  0.55902900  0.61044600  0.29745900  1
  H  696  1  0.73254500  0.53056100  0.31491700  1
  H  703  1  0.59870700  0.92560700  0.74733600  1
  H  710  1  0.62692700  0.99671700  0.67271700  1
  H  711  1  0.66193100  0.00148500  0.64855500  1
  H  712  1  0.70233300  0.95955000  0.69739200  1
  H  713  1  0.56469100  0.98952800  0.72376600  1
  H  716  1  0.66864300  0.95990600  0.74461400  1
  H  717  1  0.68197200  0.93607400  0.72789000  1
  H  718  1  0.64318300  0.92410700  0.74796600  1
  H  719  1  0.64219800  0.92014500  0.71620900  1
  H  720  1  0.60124900  0.00199900  0.70487600  1
  H  722  1  0.71766300  0.97106400  0.65807400  1
  H  724  1  0.54291000  0.95103400  0.73335700  1
  H  731  1  0.92770300  0.42416500  0.25694000  1
  H  738  1  0.89891900  0.49551600  0.33174800  1
  H  739  1  0.86379400  0.50055900  0.35574200  1
  H  740  1  0.82393000  0.45696200  0.30780500  1
  H  741  1  0.96064000  0.48907400  0.27949400  1
  H  744  1  0.85732300  0.45647200  0.26070300  1
  H  745  1  0.84471600  0.43273300  0.27805200  1
  H  746  1  0.88350700  0.42106600  0.25784300  1
  H  747  1  0.88496400  0.41803000  0.28967000  1
  H  748  1  0.92426800  0.50069700  0.29930700  1
  H  750  1  0.80830000  0.46953500  0.34668900  1
  H  752  1  0.98302200  0.45093400  0.26934800  1
  H  759  1  0.09951800  0.10285800  0.75428700  1
  H  766  1  0.12563700  0.03168900  0.82977600  1
  H  767  1  0.15997700  0.02681200  0.85483300  1
  H  768  1  0.20154100  0.06952700  0.80755300  1
  H  769  1  0.06515500  0.03864900  0.77663800  1
  H  772  1  0.16951200  0.06927100  0.75944600  1
  H  773  1  0.18200300  0.09315900  0.77669900  1
  H  774  1  0.14388400  0.10488300  0.75538300  1
  H  775  1  0.14168900  0.10866400  0.78710600  1
  H  776  1  0.10104300  0.02650400  0.79685200  1
  H  778  1  0.21581000  0.05757300  0.84702500  1
  H  780  1  0.04346200  0.07686200  0.76639000  1
  H  787  1  0.42748800  0.60247500  0.25006100  1
  H  794  1  0.40061000  0.53096400  0.17505700  1
  H  795  1  0.36601100  0.52597700  0.15040900  1
  H  796  1  0.32484600  0.56851400  0.19830500  1
  H  797  1  0.46175000  0.53824600  0.22742600  1
  H  800  1  0.35758300  0.56858300  0.24600700  1
  H  801  1  0.34471100  0.59231200  0.22888200  1
  H  802  1  0.38310100  0.60435700  0.24955000  1
  H  803  1  0.38480000  0.60792700  0.21778300  1
  H  804  1  0.42563700  0.52589400  0.20770400  1
  H  806  1  0.31011900  0.55656100  0.15903100  1
  H  808  1  0.48338300  0.57672400  0.23723500  1
  H  815  1  0.76771000  0.42776700  0.41232800  1
  H  822  1  0.84220000  0.40068700  0.48435100  1
  H  823  1  0.86691400  0.36610700  0.48953700  1
  H  824  1  0.82015500  0.32514800  0.44567800  1
  H  825  1  0.78911500  0.46144100  0.47716800  1
  H  828  1  0.77227100  0.35752000  0.44502600  1
  H  829  1  0.79002700  0.34516000  0.42142200  1
  H  830  1  0.76910000  0.38348800  0.40962100  1
  H  831  1  0.80095000  0.38555800  0.40661300  1
  H  832  1  0.80925300  0.42542900  0.48916200  1
  H  834  1  0.85929600  0.31040500  0.45842900  1
  H  836  1  0.77932100  0.48345300  0.43879400  1
  H  843  1  0.25876000  0.09899900  0.91231600  1
  H  850  1  0.18548900  0.12676100  0.98530800  1
  H  851  1  0.16109900  0.16153500  0.99065700  1
  H  852  1  0.20837700  0.20217900  0.94704900  1
  H  853  1  0.23730500  0.06516100  0.97703000  1
  H  856  1  0.25597800  0.16905900  0.94608000  1
  H  857  1  0.23839900  0.18200400  0.92274500  1
  H  858  1  0.25852900  0.14338800  0.91034200  1
  H  859  1  0.22663500  0.14195600  0.90749800  1
  H  860  1  0.21811600  0.10150100  0.98973800  1
  H  862  1  0.16928700  0.21715000  0.95964400  1
  H  864  1  0.24610800  0.04334600  0.93828600  1
  H  871  1  0.75777500  0.92677000  0.59193000  1
  H  878  1  0.68218300  0.89845200  0.52159600  1
  H  879  1  0.65771400  0.86360900  0.51692600  1
  H  880  1  0.70563900  0.82331700  0.56003600  1
  H  881  1  0.73493300  0.95956800  0.52721800  1
  H  884  1  0.75316600  0.85603600  0.55980600  1
  H  885  1  0.73591400  0.84385800  0.58383700  1
  H  886  1  0.75691600  0.88243500  0.59488200  1
  H  887  1  0.72512500  0.88433700  0.59857000  1
  H  888  1  0.71492300  0.92325600  0.51585400  1
  H  890  1  0.66644200  0.80803300  0.54769200  1
  H  892  1  0.74511500  0.98206500  0.56503100  1
  H  899  1  0.26647700  0.60055500  0.09176300  1
  H  906  1  0.33955000  0.62767400  0.01883000  1
  H  907  1  0.36401200  0.66237900  0.01364700  1
  H  908  1  0.31578300  0.70356200  0.05578600  1
  H  909  1  0.28909500  0.56552100  0.02799100  1
  H  912  1  0.26812800  0.67007700  0.05605200  1
  H  913  1  0.28507600  0.68379400  0.07944200  1
  H  914  1  0.26509200  0.64519100  0.09215600  1
  H  915  1  0.29692000  0.64428400  0.09584500  1
  H  916  1  0.30727600  0.60200800  0.01440400  1
  H  918  1  0.35535700  0.71821600  0.04414600  1
  H  920  1  0.28089800  0.54446200  0.06699600  1
  H  927  1  0.10366800  0.25703900  0.91714700  1
  H  934  1  0.03232000  0.18245100  0.88769600  1
  H  935  1  0.02724400  0.15878400  0.85238500  1
  H  936  1  0.07114200  0.20690900  0.81306300  1
  H  937  1  0.03863500  0.23433400  0.94972400  1
  H  940  1  0.07169600  0.25375300  0.84675700  1
  H  941  1  0.09545700  0.23638300  0.83412700  1
  H  942  1  0.10699200  0.25634100  0.87302600  1
  H  943  1  0.10997600  0.22445400  0.87427800  1
  H  944  1  0.02715300  0.21472900  0.91325100  1
  H  946  1  0.05833800  0.16820500  0.79705000  1
  H  948  1  0.07668400  0.24450800  0.97229900  1
  H  955  1  0.60127100  0.76609100  0.58823200  1
  H  962  1  0.52982500  0.84131100  0.61508900  1
  H  963  1  0.52500300  0.86643800  0.64941600  1
  H  964  1  0.56839300  0.81948600  0.69054600  1
  H  965  1  0.53645400  0.78782300  0.55472700  1
  H  968  1  0.56850700  0.77128800  0.65854500  1
  H  969  1  0.59231900  0.78887800  0.67069500  1
  H  970  1  0.60388000  0.76751700  0.63249700  1
  H  971  1  0.60723500  0.79931400  0.63023400  1
  H  972  1  0.52456500  0.80816300  0.59067800  1
  H  974  1  0.55606800  0.85887400  0.70503200  1
  H  976  1  0.57479400  0.77795000  0.53271000  1
  H  983  1  0.92430500  0.26892100  0.41759400  1
  H  990  1  0.99478200  0.34445100  0.38876200  1
  H  991  1  0.99955500  0.36846600  0.35369200  1
  H  992  1  0.95639600  0.32002800  0.31392700  1
  H  993  1  0.98898900  0.29222700  0.45034300  1
  H  996  1  0.95649300  0.27291200  0.34717100  1
  H  997  1  0.93250900  0.29001400  0.33471400  1
  H  998  1  0.92121500  0.26961600  0.37344300  1
  H  999  1  0.91771300  0.30144400  0.37497700  1
  H  1000  1  0.00036300  0.31206300  0.41399000  1
  H  1002  1  0.96870000  0.35912000  0.29830600  1
  H  1004  1  0.95102200  0.28170300  0.47288900  1
  H  1011  1  0.42208200  0.75671400  0.08774200  1
  H  1018  1  0.49395200  0.68252000  0.11676600  1
  H  1019  1  0.49931500  0.65889700  0.15199500  1
  H  1020  1  0.45528700  0.70677000  0.19160800  1
  H  1021  1  0.48716400  0.73441600  0.05492500  1
  H  1024  1  0.45426300  0.75358900  0.15803300  1
  H  1025  1  0.43066900  0.73604400  0.17068500  1
  H  1026  1  0.41885900  0.75591600  0.13187800  1
  H  1027  1  0.41611900  0.72400700  0.13054400  1
  H  1028  1  0.49885900  0.71484100  0.09129300  1
  H  1030  1  0.46836700  0.66816200  0.20747700  1
  H  1032  1  0.44889200  0.74423500  0.03259400  1
  C  1  1  0.12681400  0.26839100  0.02677600  1
  C  2  1  0.10656800  0.27205400  0.00730700  1
  C  3  1  0.14761500  0.28723800  0.02242600  1
  C  4  1  0.15907800  0.28451500  0.99652400  1
  C  7  1  0.13804600  0.28791300  0.97773200  1
  C  8  1  0.11703200  0.26905300  0.98119600  1
  C  13  1  0.12852500  0.24313600  0.97849900  1
  C  14  1  0.14933800  0.23885300  0.99728200  1
  C  17  1  0.16955800  0.25838400  0.99354000  1
  C  20  1  0.13808400  0.24252300  0.02313400  1
  C  23  1  0.11610700  0.27108900  0.05164400  1
  C  24  1  0.16007100  0.21396900  0.99461200  1
  C  25  1  0.17868400  0.30302200  0.99290200  1
  C  26  1  0.09741300  0.27263100  0.96274200  1
  C  31  1  0.39974700  0.76868300  0.97777200  1
  C  32  1  0.41976000  0.77211200  0.99752200  1
  C  33  1  0.37914100  0.78780800  0.98186400  1
  C  34  1  0.36729200  0.78528800  0.00760000  1
  C  37  1  0.38810100  0.78842500  0.02669600  1
  C  38  1  0.40889600  0.76926500  0.02348900  1
  C  43  1  0.39701900  0.74350900  0.02599300  1
  C  44  1  0.37642100  0.73949000  0.00691300  1
  C  47  1  0.35642400  0.75930300  0.01041000  1
  C  50  1  0.38808200  0.74297300  0.98122600  1
  C  53  1  0.41079800  0.77119200  0.95303900  1
  C  54  1  0.36530800  0.71476300  0.00939200  1
  C  55  1  0.34789400  0.80407900  0.01091000  1
  C  56  1  0.42829800  0.77253700  0.04223000  1
  C  61  1  0.89925600  0.25865400  0.52646800  1
  C  62  1  0.91993700  0.25463300  0.50746400  1
  C  63  1  0.87827100  0.24013800  0.52161200  1
  C  64  1  0.86751000  0.24299900  0.49545900  1
  C  67  1  0.88896800  0.23922400  0.47716200  1
  C  68  1  0.91019700  0.25773300  0.48112800  1
  C  73  1  0.89918400  0.28382500  0.47818900  1
  C  74  1  0.87796800  0.28849200  0.49649600  1
  C  77  1  0.85752700  0.26928100  0.49229000  1
  C  80  1  0.88850100  0.28469600  0.52259400  1
  C  83  1  0.90929200  0.25582300  0.55157100  1
  C  84  1  0.86769900  0.31353600  0.49357900  1
  C  85  1  0.84771300  0.22481700  0.49127800  1
  C  86  1  0.93023500  0.25372100  0.46314500  1
  C  91  1  0.62698100  0.75589000  0.47941000  1
  C  92  1  0.60637500  0.75152600  0.49839800  1
  C  93  1  0.64818700  0.73761900  0.48413700  1
  C  94  1  0.65893900  0.74052900  0.51030100  1
  C  97  1  0.63755000  0.73641900  0.52860600  1
  C  98  1  0.61608900  0.75468200  0.52475800  1
  C  103  1  0.62676700  0.78090500  0.52785400  1
  C  104  1  0.64790300  0.78589200  0.50955800  1
  C  107  1  0.66858700  0.76692900  0.51363300  1
  C  110  1  0.63740300  0.78204800  0.48345000  1
  C  113  1  0.61699400  0.75307600  0.45428700  1
  C  114  1  0.65785000  0.81105500  0.51256300  1
  C  115  1  0.67899700  0.72260100  0.51432100  1
  C  116  1  0.59610700  0.75044200  0.54272800  1
  C  121  1  0.26805500  0.98953300  0.88639100  1
  C  122  1  0.27248600  0.00867900  0.90683700  1
  C  123  1  0.28619600  0.99419500  0.86505600  1
  C  124  1  0.28318700  0.02032100  0.85419200  1
  C  127  1  0.28738400  0.03877400  0.87542100  1
  C  128  1  0.26925500  0.03499600  0.89700200  1
  C  133  1  0.24297000  0.03796500  0.88651900  1
  C  134  1  0.23788400  0.01950600  0.86554700  1
  C  137  1  0.25673300  0.02350700  0.84472900  1
  C  140  1  0.24182200  0.99342800  0.87615300  1
  C  143  1  0.27104700  0.96446300  0.89651600  1
  C  144  1  0.21267500  0.02244000  0.85573300  1
  C  145  1  0.30098100  0.02433300  0.83400900  1
  C  146  1  0.27364500  0.05310200  0.91681700  1
  C  151  1  0.76853500  0.03743500  0.61403100  1
  C  152  1  0.77233700  0.01749600  0.59422400  1
  C  153  1  0.78741000  0.03365200  0.63485500  1
  C  154  1  0.78485000  0.00798000  0.64684700  1
  C  157  1  0.78835200  0.98868100  0.62623400  1
  C  158  1  0.76946300  0.99157800  0.60521700  1
  C  163  1  0.74356600  0.98902800  0.61679600  1
  C  164  1  0.73918100  0.00830000  0.63719200  1
  C  167  1  0.75874300  0.00512000  0.65742400  1
  C  170  1  0.74269500  0.03392300  0.62540400  1
  C  173  1  0.77103700  0.06212200  0.60287100  1
  C  174  1  0.71431100  0.00579200  0.64799700  1
  C  175  1  0.80339500  0.00492700  0.66646100  1
  C  176  1  0.77306800  0.97264400  0.58600500  1
  C  181  1  0.25874600  0.48934100  0.11694900  1
  C  182  1  0.25445400  0.50902600  0.09705000  1
  C  183  1  0.24028700  0.49329000  0.13817000  1
  C  184  1  0.24297200  0.51911700  0.14987200  1
  C  187  1  0.23894700  0.53813900  0.12916800  1
  C  188  1  0.25739400  0.53508300  0.10773500  1
  C  193  1  0.28351200  0.53791300  0.11866500  1
  C  194  1  0.28842700  0.51890100  0.13913400  1
  C  197  1  0.26927100  0.52220600  0.15980200  1
  C  200  1  0.28480700  0.49311300  0.12767200  1
  C  203  1  0.25608300  0.46452400  0.10605200  1
  C  204  1  0.31347600  0.52168600  0.14938600  1
  C  205  1  0.22485100  0.52243000  0.16989500  1
  C  206  1  0.25319700  0.55374900  0.08845000  1
  C  211  1  0.75641500  0.53714800  0.38777100  1
  C  212  1  0.75241000  0.51784800  0.40811900  1
  C  213  1  0.73787900  0.53258200  0.36679800  1
  C  214  1  0.74074200  0.50653600  0.35562700  1
  C  217  1  0.73700200  0.48791400  0.37676200  1
  C  218  1  0.75554900  0.49159600  0.39797200  1
  C  223  1  0.78163300  0.48879100  0.38688300  1
  C  224  1  0.78625500  0.50739800  0.36597900  1
  C  227  1  0.76702800  0.50345300  0.34555300  1
  C  230  1  0.78244700  0.53338900  0.37691000  1
  C  233  1  0.75361100  0.56215500  0.39818500  1
  C  234  1  0.81130100  0.50463600  0.35565100  1
  C  235  1  0.72252800  0.50272700  0.33581900  1
  C  236  1  0.75171700  0.47330800  0.41770500  1
  C  241  1  0.99017600  0.12901000  0.74462900  1
  C  242  1  0.00922900  0.10846300  0.74018600  1
  C  243  1  0.99496500  0.15031200  0.72652300  1
  C  244  1  0.02114100  0.16111200  0.72953500  1
  C  247  1  0.03950600  0.13978000  0.72532800  1
  C  248  1  0.03559700  0.11822100  0.74343000  1
  C  253  1  0.03856600  0.12877900  0.76968500  1
  C  254  1  0.02020700  0.14985200  0.77476800  1
  C  257  1  0.02435900  0.17063600  0.75596700  1
  C  260  1  0.99408500  0.13931400  0.77082300  1
  C  263  1  0.96504300  0.11898600  0.74166900  1
  C  264  1  0.02312500  0.15965200  0.79997700  1
  C  265  1  0.02519300  0.18127600  0.71176200  1
  C  266  1  0.05363200  0.09829300  0.73912000  1
  C  271  1  0.03671300  0.39921700  0.24626900  1
  C  272  1  0.01765800  0.41982500  0.24224000  1
  C  273  1  0.03190200  0.37815700  0.22783400  1
  C  274  1  0.00573400  0.36731600  0.23076900  1
  C  277  1  0.98737200  0.38870200  0.22698700  1
  C  278  1  0.99129700  0.41001000  0.24542100  1
  C  283  1  0.98835000  0.39908100  0.27150900  1
  C  284  1  0.00672200  0.37794900  0.27617600  1
  C  287  1  0.00255100  0.35742200  0.25705300  1
  C  290  1  0.03283200  0.38854600  0.27229900  1
  C  293  1  0.06185800  0.40926100  0.24340900  1
  C  294  1  0.00386600  0.36781000  0.30123600  1
  C  295  1  0.00164800  0.34743100  0.21265400  1
  C  296  1  0.97325400  0.42997200  0.24144000  1
  C  301  1  0.48840900  0.90038600  0.75646900  1
  C  302  1  0.50776100  0.92073900  0.76043500  1
  C  303  1  0.49282300  0.87942900  0.77507300  1
  C  304  1  0.51883400  0.86817300  0.77232500  1
  C  307  1  0.53750300  0.88931000  0.77603000  1
  C  308  1  0.53398300  0.91048900  0.75743000  1
  C  313  1  0.53686800  0.89926400  0.73143100  1
  C  314  1  0.51819400  0.87836000  0.72684200  1
  C  317  1  0.52196600  0.85796700  0.74613500  1
  C  320  1  0.49223200  0.88940200  0.73052700  1
  C  323  1  0.46341500  0.91085100  0.75916700  1
  C  324  1  0.52100400  0.86785700  0.70189800  1
  C  325  1  0.52257900  0.84842500  0.79060000  1
  C  326  1  0.55233300  0.93019200  0.76135800  1
  C  331  1  0.53673900  0.62886300  0.25944500  1
  C  332  1  0.51775000  0.60824000  0.26376000  1
  C  333  1  0.53191600  0.65005900  0.27772800  1
  C  334  1  0.50570100  0.66080100  0.27484700  1
  C  337  1  0.48741100  0.63939500  0.27892100  1
  C  338  1  0.49135200  0.61794200  0.26064700  1
  C  343  1  0.48829600  0.62862400  0.23448400  1
  C  344  1  0.50658600  0.64977800  0.22953000  1
  C  347  1  0.50241400  0.67045700  0.24850100  1
  C  350  1  0.53274700  0.63929900  0.23334200  1
  C  353  1  0.56189600  0.61885600  0.26227200  1
  C  354  1  0.50359000  0.65971100  0.20441300  1
  C  355  1  0.50156500  0.68085100  0.29278400  1
  C  356  1  0.47339300  0.59794400  0.26486600  1
  C  361  1  0.02528500  0.32095100  0.18703100  1
  C  362  1  0.03771800  0.29869500  0.18553800  1
  C  363  1  0.04957800  0.29168800  0.16417200  1
  C  364  1  0.04961900  0.30684000  0.14353300  1
  C  365  1  0.03559800  0.32842300  0.14430100  1
  C  366  1  0.02442500  0.33557100  0.16605500  1
  C  368  1  0.06365500  0.30172800  0.12225600  1
  C  369  1  0.08514300  0.28777900  0.12307200  1
  C  370  1  0.09970200  0.28481300  0.10247800  1
  C  371  1  0.09314700  0.29536200  0.08020300  1
  C  372  1  0.07238000  0.31019900  0.07951800  1
  C  373  1  0.05779500  0.31358300  0.10018400  1
  C  378  1  0.03646900  0.32996300  0.09915300  1
  C  379  1  0.03436200  0.34467500  0.12288100  1
  C  389  1  0.49899900  0.82216200  0.81627500  1
  C  390  1  0.48699000  0.79969400  0.81794100  1
  C  391  1  0.47555500  0.79256800  0.83948100  1
  C  392  1  0.47554900  0.80778600  0.86011300  1
  C  393  1  0.48907900  0.82966800  0.85909700  1
  C  394  1  0.49982000  0.83692900  0.83718600  1
  C  396  1  0.46209600  0.80239700  0.88167800  1
  C  397  1  0.44093700  0.78794000  0.88129000  1
  C  398  1  0.42685800  0.78471900  0.90216600  1
  C  399  1  0.43361400  0.79545600  0.92432500  1
  C  400  1  0.45408600  0.81071600  0.92460700  1
  C  401  1  0.46815900  0.81439500  0.90364800  1
  C  406  1  0.48908700  0.83131300  0.90423900  1
  C  407  1  0.49030200  0.84602400  0.88048500  1
  C  417  1  0.00074200  0.20714500  0.68651700  1
  C  418  1  0.98807100  0.22926200  0.68499100  1
  C  419  1  0.97570400  0.23579300  0.66380900  1
  C  420  1  0.97537100  0.22029200  0.64339000  1
  C  421  1  0.98950300  0.19878800  0.64418900  1
  C  422  1  0.00122300  0.19213400  0.66576100  1
  C  424  1  0.96113500  0.22510500  0.62222600  1
  C  425  1  0.93972700  0.23918200  0.62307800  1
  C  426  1  0.92514600  0.24208100  0.60253200  1
  C  427  1  0.93160200  0.23132500  0.58028200  1
  C  428  1  0.95225100  0.21632100  0.57958600  1
  C  429  1  0.96685200  0.21300400  0.60020200  1
  C  434  1  0.98811600  0.19653900  0.59910600  1
  C  435  1  0.99041500  0.18217600  0.62298300  1
  C  445  1  0.52605800  0.70622500  0.31844400  1
  C  446  1  0.53885300  0.72824300  0.32037800  1
  C  447  1  0.55130000  0.73433600  0.34166000  1
  C  448  1  0.55154000  0.71850900  0.36178700  1
  C  449  1  0.53724900  0.69713000  0.36061100  1
  C  450  1  0.52547500  0.69089600  0.33892700  1
  C  452  1  0.56577800  0.72291400  0.38304500  1
  C  453  1  0.58723900  0.73691800  0.38246400  1
  C  454  1  0.60174400  0.73953500  0.40310200  1
  C  455  1  0.59513500  0.72859800  0.42519100  1
  C  456  1  0.57445600  0.71363000  0.42560100  1
  C  457  1  0.55995100  0.71056100  0.40487000  1
  C  462  1  0.53861600  0.69417000  0.40565200  1
  C  463  1  0.53624600  0.68019800  0.38151300  1
  C  473  1  0.32162600  0.82960700  0.98699700  1
  C  474  1  0.29934900  0.83092600  0.97463900  1
  C  475  1  0.29228700  0.85221300  0.96272300  1
  C  476  1  0.30741600  0.87291400  0.96252800  1
  C  477  1  0.32901100  0.87232500  0.97649300  1
  C  478  1  0.33621500  0.85064700  0.98774200  1
  C  480  1  0.30227400  0.89406900  0.94836800  1
  C  481  1  0.28825000  0.89302800  0.92698000  1
  C  482  1  0.28520000  0.91351500  0.91233500  1
  C  483  1  0.29577600  0.93588200  0.91869400  1
  C  484  1  0.31069900  0.93679400  0.93934200  1
  C  485  1  0.31413800  0.91624200  0.95402400  1
  C  490  1  0.33052800  0.91752900  0.97528200  1
  C  491  1  0.34524600  0.89381700  0.97756000  1
  C  501  1  0.82144700  0.19899400  0.51465800  1
  C  502  1  0.79892000  0.19713400  0.52654500  1
  C  503  1  0.79197100  0.17557800  0.53806600  1
  C  504  1  0.80743100  0.15511800  0.53828000  1
  C  505  1  0.82938500  0.15629900  0.52487400  1
  C  506  1  0.83645500  0.17823500  0.51404300  1
  C  508  1  0.80219000  0.13356500  0.55179600  1
  C  509  1  0.78756300  0.13393400  0.57283000  1
  C  510  1  0.78441300  0.11308200  0.58693400  1
  C  511  1  0.79538900  0.09095900  0.58032400  1
  C  512  1  0.81084500  0.09071700  0.56000900  1
  C  513  1  0.81446000  0.11166200  0.54591600  1
  C  518  1  0.83155300  0.11112100  0.52513500  1
  C  519  1  0.84599500  0.13508700  0.52387700  1
  C  529  1  0.20500600  0.32862800  0.01660900  1
  C  530  1  0.22749600  0.33019900  0.02854700  1
  C  531  1  0.23462800  0.35163200  0.04021800  1
  C  532  1  0.21936200  0.37223600  0.04059100  1
  C  533  1  0.19746200  0.37134900  0.02712100  1
  C  534  1  0.19021700  0.34953800  0.01610800  1
  C  536  1  0.22469400  0.39360400  0.05441400  1
  C  537  1  0.23919500  0.39291400  0.07549000  1
  C  538  1  0.24240600  0.41359100  0.08988700  1
  C  539  1  0.23154900  0.43582600  0.08357400  1
  C  540  1  0.21619500  0.43638800  0.06323100  1
  C  541  1  0.21257400  0.41563900  0.04881100  1
  C  546  1  0.19566800  0.41654600  0.02794100  1
  C  547  1  0.18104900  0.39271300  0.02627400  1
  C  557  1  0.70503200  0.69721000  0.49012700  1
  C  558  1  0.72719100  0.69564800  0.47750900  1
  C  559  1  0.73378100  0.67440000  0.46517700  1
  C  560  1  0.71833600  0.65393300  0.46488900  1
  C  561  1  0.69685100  0.65473500  0.47906400  1
  C  562  1  0.69010500  0.67638900  0.49070000  1
  C  564  1  0.72313600  0.63274200  0.45059400  1
  C  565  1  0.73712300  0.63363300  0.42914300  1
  C  566  1  0.73993100  0.61310500  0.41444300  1
  C  567  1  0.72920300  0.59082100  0.42083100  1
  C  568  1  0.71432300  0.59007500  0.44155500  1
  C  569  1  0.71107800  0.61068500  0.45626800  1
  C  574  1  0.69470000  0.60957600  0.47758700  1
  C  575  1  0.68030100  0.63347900  0.48003100  1
  C  585  1  0.82894700  0.02949500  0.69209100  1
  C  586  1  0.83042300  0.04225600  0.71414400  1
  C  587  1  0.85180100  0.05422700  0.72090600  1
  C  588  1  0.87245000  0.05408600  0.70568900  1
  C  589  1  0.87165000  0.03984300  0.68426200  1
  C  590  1  0.84989300  0.02852100  0.67736900  1
  C  592  1  0.89381100  0.06804900  0.71064700  1
  C  593  1  0.89312800  0.08957400  0.72456400  1
  C  594  1  0.91386400  0.10393000  0.72753900  1
  C  595  1  0.93613100  0.09713200  0.71699900  1
  C  596  1  0.93669600  0.07635800  0.70216700  1
  C  597  1  0.91589300  0.06196400  0.69880000  1
  C  602  1  0.91684400  0.04053700  0.68253400  1
  C  603  1  0.89306400  0.03844600  0.66794000  1
  C  613  1  0.19921300  0.49759900  0.19494100  1
  C  614  1  0.19731700  0.48485700  0.21694200  1
  C  615  1  0.17583400  0.47282700  0.22329300  1
  C  616  1  0.15548900  0.47292100  0.20772600  1
  C  617  1  0.15673000  0.48705000  0.18628700  1
  C  618  1  0.17858700  0.49843300  0.17981100  1
  C  620  1  0.13391600  0.45921000  0.21246900  1
  C  621  1  0.13415300  0.43784500  0.22657800  1
  C  622  1  0.11318200  0.42382300  0.22950600  1
  C  623  1  0.09109800  0.43084600  0.21879800  1
  C  624  1  0.09099700  0.45143900  0.20375900  1
  C  625  1  0.11205400  0.46546000  0.20037900  1
  C  630  1  0.11158700  0.48668300  0.18387900  1
  C  631  1  0.13563400  0.48837000  0.16961000  1
  C  641  1  0.32659200  0.00001700  0.80831700  1
  C  642  1  0.32843500  0.98755700  0.78611800  1
  C  643  1  0.34989100  0.97558800  0.77953100  1
  C  644  1  0.37025800  0.97543300  0.79506900  1
  C  645  1  0.36908400  0.98929800  0.81672100  1
  C  646  1  0.34725500  0.00062900  0.82341000  1
  C  648  1  0.39175200  0.96165100  0.79013300  1
  C  649  1  0.39137300  0.94039000  0.77581700  1
  C  650  1  0.41223300  0.92621500  0.77279200  1
  C  651  1  0.43435000  0.93295900  0.78363400  1
  C  652  1  0.43458100  0.95345100  0.79886900  1
  C  653  1  0.41363900  0.96763500  0.80232900  1
  C  658  1  0.41422900  0.98870300  0.81907500  1
  C  659  1  0.39020500  0.99036800  0.83338700  1
  C  669  1  0.69703100  0.52708800  0.31013700  1
  C  670  1  0.69540500  0.53972800  0.28805500  1
  C  671  1  0.67417100  0.55212800  0.28164300  1
  C  672  1  0.65378600  0.55247500  0.29720400  1
  C  673  1  0.65464500  0.53827700  0.31861600  1
  C  674  1  0.67628700  0.52656200  0.32518000  1
  C  676  1  0.63262000  0.56682900  0.29256600  1
  C  677  1  0.63349100  0.58826800  0.27858400  1
  C  678  1  0.61297200  0.60298000  0.27586400  1
  C  679  1  0.59072100  0.59661900  0.28669500  1
  C  680  1  0.59000400  0.57592600  0.30158500  1
  C  681  1  0.61060200  0.56120300  0.30473700  1
  C  686  1  0.60950300  0.53988400  0.32107700  1
  C  687  1  0.63347600  0.53738100  0.33528500  1
  C  697  1  0.57824700  0.95671400  0.73811100  1
  C  698  1  0.57973300  0.97888200  0.72556800  1
  C  699  1  0.60128000  0.98600100  0.71409900  1
  C  700  1  0.62211000  0.97105700  0.71458800  1
  C  701  1  0.62134800  0.94965300  0.72882900  1
  C  702  1  0.59941800  0.94236000  0.73957500  1
  C  704  1  0.64352200  0.97609900  0.70072500  1
  C  705  1  0.64276800  0.98958900  0.67899200  1
  C  706  1  0.66345500  0.99230900  0.66451300  1
  C  707  1  0.68577300  0.98198000  0.67139000  1
  C  708  1  0.68641500  0.96761300  0.69244000  1
  C  709  1  0.66565000  0.96447200  0.70695300  1
  C  714  1  0.66666667  0.94852400  0.72855600  1
  C  715  1  0.64296200  0.93364900  0.73066300  1
  C  725  1  0.94755900  0.45585800  0.26554300  1
  C  726  1  0.94584400  0.47801700  0.27813800  1
  C  727  1  0.92443800  0.48461100  0.29019600  1
  C  728  1  0.90397100  0.46916200  0.29023600  1
  C  729  1  0.90496400  0.44765700  0.27610600  1
  C  730  1  0.92676000  0.44091300  0.26473500  1
  C  732  1  0.88257900  0.47400100  0.30421400  1
  C  733  1  0.88316500  0.48804200  0.32564100  1
  C  734  1  0.86242200  0.49091400  0.34002100  1
  C  735  1  0.84021800  0.48020800  0.33333333  1
  C  736  1  0.83976800  0.46527000  0.31263100  1
  C  737  1  0.86059500  0.46195100  0.29824300  1
  C  742  1  0.85978900  0.44550700  0.27695900  1
  C  743  1  0.88372400  0.43109900  0.27489600  1
  C  753  1  0.07896400  0.07158200  0.76276700  1
  C  754  1  0.08016500  0.04942600  0.77536700  1
  C  755  1  0.10129800  0.04250600  0.78764000  1
  C  756  1  0.12200000  0.05763200  0.78791500  1
  C  757  1  0.12159800  0.07902900  0.77364500  1
  C  758  1  0.10005700  0.08611200  0.76206900  1
  C  760  1  0.14294600  0.05271900  0.80246300  1
  C  761  1  0.14160400  0.03902900  0.82405300  1
  C  762  1  0.16186500  0.03626600  0.83907100  1
  C  763  1  0.18430100  0.04681700  0.83291100  1
  C  764  1  0.18550500  0.06139200  0.81203100  1
  C  765  1  0.16518600  0.06453500  0.79696700  1
  C  770  1  0.16678300  0.08057300  0.77546600  1
  C  771  1  0.14310800  0.09524700  0.77262100  1
  C  781  1  0.44801800  0.57121200  0.24139500  1
  C  782  1  0.44672100  0.54897500  0.22888300  1
  C  783  1  0.42545800  0.54194500  0.21687700  1
  C  784  1  0.40470100  0.55699700  0.21685200  1
  C  785  1  0.40522100  0.57847000  0.23105900  1
  C  786  1  0.42689300  0.58568900  0.24232300  1
  C  788  1  0.38356100  0.55192300  0.20263600  1
  C  789  1  0.38466900  0.53817200  0.18103800  1
  C  790  1  0.36423400  0.53533800  0.16626200  1
  C  791  1  0.34182800  0.54580900  0.17270600  1
  C  792  1  0.34083900  0.56038500  0.19364000  1
  C  793  1  0.36134300  0.56364800  0.20843600  1
  C  798  1  0.36000800  0.57980400  0.22991300  1
  C  799  1  0.38365800  0.59460500  0.23234400  1
  C  809  1  0.77571100  0.44795400  0.44394100  1
  C  810  1  0.78806800  0.44655300  0.46619500  1
  C  811  1  0.80029500  0.42535200  0.47302800  1
  C  812  1  0.80080100  0.40479800  0.45769700  1
  C  813  1  0.78687100  0.40544000  0.43610000  1
  C  814  1  0.77531100  0.42704200  0.42913600  1
  C  816  1  0.81516800  0.38371800  0.46268500  1
  C  817  1  0.83650000  0.38480200  0.47681100  1
  C  818  1  0.85130800  0.36438800  0.47977800  1
  C  819  1  0.84516800  0.34203700  0.46902800  1
  C  820  1  0.82458600  0.34110300  0.45399600  1
  C  821  1  0.80975200  0.36158800  0.45062500  1
  C  826  1  0.78856900  0.36026900  0.43412400  1
  C  827  1  0.78613100  0.38409100  0.41965500  1
  C  837  1  0.25063200  0.07867100  0.94377600  1
  C  838  1  0.23860000  0.08013700  0.96624300  1
  C  839  1  0.22692800  0.10153800  0.97349900  1
  C  840  1  0.22672500  0.12224500  0.95842600  1
  C  841  1  0.24043900  0.12152400  0.93665700  1
  C  842  1  0.25138500  0.09972900  0.92924500  1
  C  844  1  0.21276100  0.14352500  0.96375800  1
  C  845  1  0.19142600  0.14263100  0.97795000  1
  C  846  1  0.17680400  0.16317500  0.98100800  1
  C  847  1  0.18315000  0.18548500  0.97033300  1
  C  848  1  0.20381100  0.18626700  0.95534500  1
  C  849  1  0.21844800  0.16564700  0.95185700  1
  C  854  1  0.23959600  0.16674100  0.93524400  1
  C  855  1  0.24152000  0.14301600  0.92046800  1
  C  865  1  0.74901400  0.94655900  0.56032400  1
  C  866  1  0.73632200  0.94480300  0.53827600  1
  C  867  1  0.72417200  0.92342600  0.53182300  1
  C  868  1  0.72409600  0.90304800  0.54733500  1
  C  869  1  0.73843800  0.90401100  0.56864800  1
  C  870  1  0.74990500  0.92579700  0.57525800  1
  C  872  1  0.70976500  0.88183800  0.54279900  1
  C  873  1  0.68814800  0.88266800  0.52909800  1
  C  874  1  0.67348100  0.86210600  0.52645500  1
  C  875  1  0.68005900  0.83985600  0.53709700  1
  C  876  1  0.70088400  0.83920000  0.55180600  1
  C  877  1  0.71556800  0.85985100  0.55487900  1
  C  882  1  0.73706500  0.85883200  0.57098900  1
  C  883  1  0.73966600  0.88282600  0.58522000  1
  C  893  1  0.27529700  0.57958100  0.06086600  1
  C  894  1  0.28724700  0.58077400  0.03834400  1
  C  895  1  0.29833300  0.60228100  0.03057100  1
  C  896  1  0.29796200  0.62337800  0.04514600  1
  C  897  1  0.28410000  0.62292900  0.06682900  1
  C  898  1  0.27381000  0.60102900  0.07480900  1
  C  900  1  0.31177500  0.64468600  0.03958500  1
  C  901  1  0.33339300  0.64364200  0.02583100  1
  C  902  1  0.34807000  0.66415200  0.02288200  1
  C  903  1  0.34151600  0.68658000  0.03323500  1
  C  904  1  0.32050300  0.68755800  0.04771600  1
  C  905  1  0.30578800  0.66697500  0.05107600  1
  C  910  1  0.28431700  0.66821800  0.06725600  1
  C  911  1  0.28236100  0.64482000  0.08248200  1
  C  921  1  0.07188400  0.24835100  0.93681300  1
  C  922  1  0.04976500  0.23572900  0.93499300  1
  C  923  1  0.04324300  0.22382000  0.91351900  1
  C  924  1  0.05877400  0.22388700  0.89311900  1
  C  925  1  0.08028800  0.23798400  0.89425800  1
  C  926  1  0.08693000  0.24924700  0.91610700  1
  C  928  1  0.05399600  0.21004900  0.87165100  1
  C  929  1  0.03991100  0.18863800  0.87204100  1
  C  930  1  0.03701000  0.17445400  0.85118900  1
  C  931  1  0.04776800  0.18133100  0.82908400  1
  C  932  1  0.06281300  0.20195700  0.82883800  1
  C  933  1  0.06613700  0.21615700  0.84976900  1
  C  938  1  0.08262100  0.23742300  0.84915000  1
  C  939  1  0.09693300  0.23929300  0.87310300  1
  C  949  1  0.56967400  0.77425400  0.56811500  1
  C  950  1  0.54741300  0.78669500  0.56957900  1
  C  951  1  0.54065800  0.79907000  0.59073400  1
  C  952  1  0.55603000  0.79956700  0.61120300  1
  C  953  1  0.57754600  0.78544000  0.61055500  1
  C  954  1  0.58447100  0.77378000  0.58898300  1
  C  956  1  0.55119900  0.81414500  0.63217700  1
  C  957  1  0.53728300  0.83563800  0.63097900  1
  C  958  1  0.53455200  0.85070000  0.65124300  1
  C  959  1  0.54528500  0.84464700  0.67357100  1
  C  960  1  0.56007900  0.82386500  0.67461700  1
  C  961  1  0.56325200  0.80879400  0.65426700  1
  C  966  1  0.57957500  0.78744500  0.65565900  1
  C  967  1  0.59401700  0.78466500  0.63183100  1
  C  977  1  0.95591600  0.27790600  0.43736600  1
  C  978  1  0.97792400  0.29073600  0.43560000  1
  C  979  1  0.98438000  0.30277900  0.41419600  1
  C  980  1  0.96890500  0.30262000  0.39379800  1
  C  981  1  0.94756300  0.28825900  0.39483400  1
  C  982  1  0.94096600  0.27688400  0.41662400  1
  C  984  1  0.97353400  0.31666400  0.37245600  1
  C  985  1  0.98730100  0.33827800  0.37305300  1
  C  986  1  0.99001200  0.35266800  0.35235000  1
  C  987  1  0.97938200  0.34580600  0.33019000  1
  C  988  1  0.96463400  0.32497400  0.32974400  1
  C  989  1  0.96150100  0.31055900  0.35052900  1
  C  994  1  0.94532600  0.28906200  0.34972100  1
  C  995  1  0.93099500  0.28682200  0.37366500  1
  C  1005  1  0.45386800  0.74822700  0.06798400  1
  C  1006  1  0.47608000  0.73575500  0.06969800  1
  C  1007  1  0.48271400  0.72383700  0.09110100  1
  C  1008  1  0.46723800  0.72379100  0.11154100  1
  C  1009  1  0.44564000  0.73776700  0.11051400  1
  C  1010  1  0.43886900  0.74901900  0.08872800  1
  C  1012  1  0.47217800  0.70999300  0.13295900  1
  C  1013  1  0.48642800  0.68869000  0.13247500  1
  C  1014  1  0.48949000  0.67452600  0.15328000  1
  C  1015  1  0.47876900  0.68133600  0.17544300  1
  C  1016  1  0.46360200  0.70187300  0.17579400  1
  C  1017  1  0.46009100  0.71603500  0.15490500  1
  C  1022  1  0.44345000  0.73718100  0.15562700  1
  C  1023  1  0.42905100  0.73894700  0.13172300  1
  N  385  1  0.10657600  0.29243200  0.05957600  1
  N  387  1  0.01807100  0.32936600  0.20927900  1
  N  413  1  0.42054400  0.79243600  0.94517300  1
  N  415  1  0.50601300  0.83050300  0.79395500  1
  N  441  1  0.91827300  0.23432500  0.55964300  1
  N  443  1  0.00866000  0.19927300  0.70870500  1
  N  469  1  0.60827700  0.73154900  0.44596100  1
  N  471  1  0.51809000  0.69882400  0.29608100  1
  N  497  1  0.29265700  0.95643500  0.90526200  1
  N  499  1  0.33015100  0.80742500  0.99418800  1
  N  525  1  0.79236000  0.07011700  0.59338300  1
  N  527  1  0.82956400  0.22140600  0.50758500  1
  N  553  1  0.23463700  0.45651000  0.09689200  1
  N  555  1  0.19658700  0.30636000  0.00945100  1
  N  581  1  0.73216500  0.57019700  0.40738000  1
  N  583  1  0.69709700  0.71949700  0.49789200  1
  N  609  1  0.95691800  0.11025800  0.72009600  1
  N  611  1  0.80672300  0.02201600  0.68389800  1
  N  637  1  0.07007100  0.41808800  0.22191800  1
  N  639  1  0.22158300  0.50537300  0.18732700  1
  N  665  1  0.45524600  0.91995200  0.78058700  1
  N  667  1  0.30425000  0.00768700  0.81615100  1
  N  693  1  0.57008200  0.61002100  0.28375300  1
  N  695  1  0.71932900  0.51930000  0.31791800  1
  N  721  1  0.70646600  0.98466000  0.65799300  1
  N  723  1  0.55592000  0.94808200  0.74484200  1
  N  749  1  0.81940800  0.48320500  0.34647600  1
  N  751  1  0.96990700  0.44791200  0.25799300  1
  N  777  1  0.20468200  0.04392300  0.84666100  1
  N  779  1  0.05681400  0.08005300  0.75532400  1
  N  805  1  0.32131800  0.54296800  0.15910300  1
  N  807  1  0.47026800  0.57967700  0.24863100  1
  N  833  1  0.85874500  0.32152700  0.47207200  1
  N  835  1  0.76816000  0.47016500  0.43574000  1
  N  861  1  0.16962500  0.20605900  0.97329200  1
  N  863  1  0.25758000  0.05636000  0.93520900  1
  N  889  1  0.66677100  0.81915300  0.53406300  1
  N  891  1  0.75639900  0.96892400  0.56829700  1
  N  917  1  0.35523300  0.70705200  0.03052300  1
  N  919  1  0.26924900  0.55731800  0.07010700  1
  N  945  1  0.04466800  0.16842800  0.80816200  1
  N  947  1  0.07980500  0.25578400  0.95913600  1
  N  973  1  0.54240000  0.85845400  0.69396000  1
  N  975  1  0.57783600  0.76667600  0.54586700  1
  N  1001  1  0.98234900  0.35891200  0.30940500  1
  N  1003  1  0.94802500  0.27041100  0.45969400  1
  N  1029  1  0.48199800  0.66844100  0.19631800  1
  N  1031  1  0.44589400  0.75565100  0.04568600  1
  O  27  1  0.16399700  0.20080400  0.01489800  1
  O  28  1  0.11234200  0.25081600  0.06491400  1
  O  29  1  0.09892600  0.29127400  0.94689400  1
  O  30  1  0.17712100  0.31891600  0.97431200  1
  O  57  1  0.36181500  0.70144600  0.98908800  1
  O  58  1  0.41464700  0.75082200  0.93988900  1
  O  59  1  0.42681300  0.79114300  0.05817300  1
  O  60  1  0.34944300  0.82007600  0.02945300  1
  O  87  1  0.86340800  0.32676700  0.51379800  1
  O  88  1  0.91325400  0.27609100  0.56483800  1
  O  89  1  0.92891200  0.23491900  0.44742100  1
  O  90  1  0.84933300  0.20914100  0.47246200  1
  O  117  1  0.66183100  0.82442400  0.49240600  1
  O  118  1  0.61285800  0.77336600  0.44115600  1
  O  119  1  0.59771600  0.73177400  0.55853100  1
  O  120  1  0.67757400  0.70673600  0.53295000  1
  O  147  1  0.19934000  0.00221000  0.85181400  1
  O  148  1  0.25088800  0.95107200  0.90060500  1
  O  149  1  0.29255600  0.06866000  0.91515700  1
  O  150  1  0.31684600  0.04301900  0.83529800  1
  O  177  1  0.70094300  0.02611300  0.65131200  1
  O  178  1  0.75063200  0.07508500  0.59868500  1
  O  179  1  0.79168300  0.95676300  0.58785900  1
  O  180  1  0.81938300  0.98633800  0.66528400  1
  O  207  1  0.32686800  0.50143100  0.15291200  1
  O  208  1  0.27641100  0.45145500  0.10173400  1
  O  209  1  0.23401400  0.56896100  0.09022200  1
  O  210  1  0.20893700  0.54109500  0.16902200  1
  O  237  1  0.82461000  0.52490000  0.35184400  1
  O  238  1  0.77387800  0.57539600  0.40220400  1
  O  239  1  0.73319400  0.45729000  0.41606200  1
  O  240  1  0.70656200  0.48414800  0.33730600  1
  O  267  1  0.00288700  0.16362700  0.81329500  1
  O  268  1  0.95158400  0.11508200  0.76180500  1
  O  269  1  0.06952100  0.10002600  0.72050300  1
  O  270  1  0.04374200  0.17983300  0.69574900  1
  O  297  1  0.02409100  0.36397100  0.31455400  1
  O  298  1  0.07516600  0.41318200  0.26361500  1
  O  299  1  0.95749000  0.42855800  0.22272700  1
  O  300  1  0.98289000  0.34897700  0.19695000  1
  O  327  1  0.50072300  0.86378700  0.68872300  1
  O  328  1  0.45028800  0.91488700  0.73887600  1
  O  329  1  0.56774100  0.92885100  0.78036600  1
  O  330  1  0.54141400  0.84976800  0.80623700  1
  O  357  1  0.52375500  0.66366200  0.19098600  1
  O  358  1  0.57514000  0.61475100  0.24202300  1
  O  359  1  0.45774300  0.59940000  0.28371700  1
  O  360  1  0.48290600  0.67937800  0.30866300  1
