# generated using pymatgen
data_H24C49N12
_symmetry_space_group_name_H-M   'P 1'
_cell_length_a   38.40320000
_cell_length_b   56.99430000
_cell_length_c   56.99430000
_cell_angle_alpha   90.00000000
_cell_angle_beta   89.99670000
_cell_angle_gamma   90.00000000
_symmetry_Int_Tables_number   1
_chemical_formula_structural   H24C49N12
_chemical_formula_sum   'H576 C1176 N288'
_cell_volume   124747.04344145
_cell_formula_units_Z   24
loop_
 _symmetry_equiv_pos_site_id
 _symmetry_equiv_pos_as_xyz
  1  'x, y, z'
loop_
 _atom_site_type_symbol
 _atom_site_label
 _atom_site_symmetry_multiplicity
 _atom_site_fract_x
 _atom_site_fract_y
 _atom_site_fract_z
 _atom_site_occupancy
  H  25  1  0.01302900  0.19932700  0.04513500  1
  H  26  1  0.00893900  0.16271900  0.06525400  1
  H  27  1  0.00647600  0.12917800  0.09179900  1
  H  28  1  0.00773100  0.10088100  0.12239300  1
  H  29  1  0.00790700  0.15532800  0.17316000  1
  H  30  1  0.00952800  0.23514300  0.11024500  1
  H  31  1  0.08327300  0.18969600  0.13583800  1
  H  32  1  0.09905300  0.23600200  0.19322200  1
  H  33  1  0.03803800  0.24064300  0.19739700  1
  H  34  1  0.93082000  0.19247400  0.13388200  1
  H  35  1  0.97660800  0.24267200  0.19583600  1
  H  36  1  0.91574400  0.24093100  0.18955000  1
  H  42  1  0.01779800  0.25665500  0.07412400  1
  H  43  1  0.02205300  0.11105600  0.18332800  1
  H  44  1  0.87182000  0.21866200  0.14181800  1
  H  45  1  0.14370700  0.19447500  0.16367500  1
  H  70  1  0.01290100  0.81476500  0.86366600  1
  H  71  1  0.00887100  0.85137200  0.84354300  1
  H  72  1  0.00651500  0.88491300  0.81699900  1
  H  73  1  0.00772800  0.91321200  0.78641000  1
  H  74  1  0.00789900  0.85877100  0.73563600  1
  H  75  1  0.00947200  0.77894800  0.79855500  1
  H  76  1  0.08328600  0.82437800  0.77293900  1
  H  77  1  0.09903000  0.77799000  0.71561500  1
  H  78  1  0.03800900  0.77337300  0.71144700  1
  H  79  1  0.93083600  0.82162000  0.77494600  1
  H  80  1  0.97657400  0.77132900  0.71305400  1
  H  81  1  0.91570700  0.77308400  0.71935900  1
  H  87  1  0.01772000  0.75743500  0.83468800  1
  H  88  1  0.02184000  0.90301600  0.72541500  1
  H  89  1  0.87176600  0.79530000  0.76702000  1
  H  90  1  0.14372600  0.81955900  0.74523700  1
  H  115  1  0.01291600  0.91634000  0.14667900  1
  H  116  1  0.00882600  0.89621500  0.11007500  1
  H  117  1  0.00637700  0.86966500  0.07653700  1
  H  118  1  0.00763500  0.83907300  0.04824300  1
  H  119  1  0.00785100  0.78830600  0.10269100  1
  H  120  1  0.00946800  0.85123000  0.18250200  1
  H  121  1  0.08322500  0.82558400  0.13707100  1
  H  122  1  0.09888600  0.76828200  0.18350700  1
  H  123  1  0.03787900  0.76414300  0.18811700  1
  H  124  1  0.93076100  0.82761400  0.13980600  1
  H  125  1  0.97647000  0.76570600  0.19009200  1
  H  126  1  0.91561100  0.77201400  0.18832900  1
  H  132  1  0.01777300  0.88735700  0.20400700  1
  H  133  1  0.02171100  0.77804400  0.05848800  1
  H  134  1  0.87172400  0.81970600  0.16599900  1
  H  135  1  0.14380400  0.79848100  0.14194500  1
  H  160  1  0.01289400  0.09776900  0.76213300  1
  H  161  1  0.00882300  0.11788800  0.79873900  1
  H  162  1  0.00647600  0.14443200  0.83228100  1
  H  163  1  0.00773700  0.17502200  0.86058000  1
  H  164  1  0.00786700  0.22579400  0.80614000  1
  H  165  1  0.00946500  0.16288400  0.72631800  1
  H  166  1  0.08322300  0.18848000  0.77176800  1
  H  167  1  0.09901000  0.24586300  0.72546100  1
  H  168  1  0.03799400  0.25003900  0.72082300  1
  H  169  1  0.93077600  0.18651000  0.76898800  1
  H  170  1  0.97655900  0.24846200  0.71878100  1
  H  171  1  0.91569200  0.24216100  0.72051300  1
  H  177  1  0.01767200  0.12676000  0.70479800  1
  H  178  1  0.02173500  0.23605200  0.85034500  1
  H  179  1  0.87175200  0.19443700  0.74286300  1
  H  180  1  0.14367400  0.21624300  0.76698300  1
  H  205  1  0.51248800  0.69935400  0.54528500  1
  H  206  1  0.50879100  0.66276800  0.56544500  1
  H  207  1  0.50656200  0.62927100  0.59196700  1
  H  208  1  0.50831400  0.60097700  0.62254600  1
  H  209  1  0.50834300  0.65541400  0.67332500  1
  H  210  1  0.50818400  0.73525000  0.61032700  1
  H  211  1  0.58274000  0.69245500  0.63390000  1
  H  212  1  0.59810100  0.74121400  0.68927200  1
  H  213  1  0.53732700  0.74295500  0.69573100  1
  H  214  1  0.43011500  0.69011300  0.63618900  1
  H  215  1  0.47613500  0.74073000  0.69774800  1
  H  216  1  0.41510300  0.73625000  0.69381100  1
  H  222  1  0.51692000  0.75670300  0.57419300  1
  H  223  1  0.52270900  0.61108900  0.68343900  1
  H  224  1  0.36993000  0.69504500  0.66477800  1
  H  225  1  0.64176900  0.71950000  0.64172900  1
  H  250  1  0.51254300  0.31479100  0.36356700  1
  H  251  1  0.50877500  0.35137500  0.34340200  1
  H  252  1  0.50643400  0.38486600  0.31687900  1
  H  253  1  0.50826000  0.41315700  0.28629800  1
  H  254  1  0.50842900  0.35871100  0.23552700  1
  H  255  1  0.50826000  0.27888700  0.29853300  1
  H  256  1  0.58278500  0.32172100  0.27496600  1
  H  257  1  0.59820800  0.27292700  0.21962900  1
  H  258  1  0.53745500  0.27118000  0.21314400  1
  H  259  1  0.43012800  0.32398800  0.27261800  1
  H  260  1  0.47630100  0.27334600  0.21113100  1
  H  261  1  0.41528300  0.27776800  0.21503700  1
  H  267  1  0.51708200  0.25745000  0.33466400  1
  H  268  1  0.52258900  0.40300500  0.22535300  1
  H  269  1  0.36983100  0.31896900  0.24498400  1
  H  270  1  0.64182100  0.29488900  0.26717000  1
  H  295  1  0.51247800  0.41621000  0.64668700  1
  H  296  1  0.50871500  0.39603600  0.61011100  1
  H  297  1  0.50641600  0.36950500  0.57663100  1
  H  298  1  0.50823600  0.33892700  0.54834500  1
  H  299  1  0.50843100  0.28815800  0.60279600  1
  H  300  1  0.50825200  0.35118200  0.68261000  1
  H  301  1  0.58276400  0.32758700  0.63974100  1
  H  302  1  0.59821800  0.27226200  0.68854700  1
  H  303  1  0.53745800  0.26580000  0.69034300  1
  H  304  1  0.43012300  0.32522400  0.63747700  1
  H  305  1  0.47628000  0.26382300  0.68822900  1
  H  306  1  0.41525700  0.26769700  0.68376300  1
  H  312  1  0.51706900  0.38732300  0.70403600  1
  H  313  1  0.52236800  0.27789800  0.55854400  1
  H  314  1  0.36978700  0.29739300  0.64249900  1
  H  315  1  0.64185000  0.31977900  0.66677300  1
  H  340  1  0.51240800  0.59788400  0.26214300  1
  H  341  1  0.50872800  0.61803900  0.29873600  1
  H  342  1  0.50650400  0.64455900  0.33224000  1
  H  343  1  0.50826700  0.67513200  0.36054100  1
  H  344  1  0.50842900  0.72592000  0.30610900  1
  H  345  1  0.50824600  0.66294100  0.22626400  1
  H  346  1  0.58283100  0.68647200  0.26910800  1
  H  347  1  0.59828100  0.74173200  0.22023200  1
  H  348  1  0.53752500  0.74822700  0.21847600  1
  H  349  1  0.43018800  0.68885100  0.27138100  1
  H  350  1  0.47637700  0.75030400  0.22070400  1
  H  351  1  0.41535800  0.74641300  0.22513600  1
  H  357  1  0.51688400  0.62681000  0.20479700  1
  H  358  1  0.52258400  0.73608000  0.35040200  1
  H  359  1  0.36989300  0.71647700  0.26634900  1
  H  360  1  0.64191800  0.69427600  0.24201000  1
  H  367  1  0.96795300  0.94127400  0.16779800  1
  H  371  1  0.05456600  0.95187000  0.21185900  1
  H  376  1  0.95674000  0.05498100  0.15051900  1
  H  378  1  0.04276000  0.06630500  0.19493900  1
  H  387  1  0.96788500  0.07283800  0.74099900  1
  H  391  1  0.05458200  0.06226500  0.69700100  1
  H  396  1  0.95668300  0.95912000  0.75823800  1
  H  398  1  0.04278200  0.94782100  0.71390100  1
  H  407  1  0.96796800  0.79370000  0.88861800  1
  H  411  1  0.05445500  0.74952200  0.89919600  1
  H  416  1  0.95683700  0.81100200  0.00232100  1
  H  418  1  0.04270900  0.76645200  0.01364100  1
  H  427  1  0.96799200  0.22044100  0.02021600  1
  H  431  1  0.05462400  0.26448900  0.00961500  1
  H  436  1  0.95675800  0.20318000  0.90650400  1
  H  438  1  0.04278900  0.24756800  0.89517700  1
  H  447  1  0.46776800  0.44139700  0.66770100  1
  H  451  1  0.55430800  0.45172700  0.71188600  1
  H  456  1  0.45713100  0.55514100  0.65054700  1
  H  458  1  0.54306900  0.56624800  0.69509000  1
  H  467  1  0.46763000  0.57272000  0.24108500  1
  H  471  1  0.55431300  0.56243700  0.19701000  1
  H  476  1  0.45707100  0.45896500  0.25820800  1
  H  478  1  0.54315000  0.44790600  0.21379700  1
  H  487  1  0.46783300  0.29382700  0.38876100  1
  H  491  1  0.55420100  0.24948100  0.39906600  1
  H  496  1  0.45732600  0.31098700  0.50251000  1
  H  498  1  0.54307400  0.26627000  0.51359200  1
  H  507  1  0.46767200  0.72039300  0.52012300  1
  H  511  1  0.55434400  0.76446700  0.50980800  1
  H  516  1  0.45708700  0.70322600  0.40637500  1
  H  518  1  0.54315500  0.74763600  0.39528500  1
  H  527  1  0.69155900  0.26344600  0.25656700  1
  H  531  1  0.68552100  0.30471300  0.19537700  1
  H  536  1  0.82810200  0.20909100  0.21326800  1
  H  538  1  0.82144400  0.25020600  0.15199900  1
  H  547  1  0.69153300  0.75069900  0.65223100  1
  H  551  1  0.68533300  0.70950000  0.71346600  1
  H  556  1  0.82813400  0.80497300  0.69556000  1
  H  558  1  0.82136300  0.76393000  0.75683800  1
  H  567  1  0.69154900  0.70489800  0.21080300  1
  H  571  1  0.68552900  0.76605700  0.25212300  1
  H  576  1  0.82802200  0.74825300  0.15641300  1
  H  578  1  0.82135000  0.80950900  0.19754900  1
  H  587  1  0.69158300  0.30927300  0.69798000  1
  H  591  1  0.68535400  0.24801600  0.65681600  1
  H  596  1  0.82809500  0.26591200  0.75232000  1
  H  598  1  0.82128500  0.20460600  0.71132300  1
  H  607  1  0.32212700  0.75029000  0.25614500  1
  H  611  1  0.32927400  0.71052900  0.19404200  1
  H  616  1  0.18490700  0.80464000  0.21382300  1
  H  618  1  0.19260200  0.76502300  0.15164600  1
  H  627  1  0.32206900  0.26378600  0.65262300  1
  H  631  1  0.32920200  0.30353200  0.71474100  1
  H  636  1  0.18492600  0.20935100  0.69495900  1
  H  638  1  0.19247200  0.24899300  0.75709600  1
  H  647  1  0.32215800  0.30875400  0.21110300  1
  H  651  1  0.32904300  0.24672800  0.25100500  1
  H  656  1  0.18501700  0.26647400  0.15664000  1
  H  658  1  0.19237700  0.20438300  0.19643000  1
  H  667  1  0.32229600  0.70535600  0.69762500  1
  H  671  1  0.32916300  0.76741700  0.65775500  1
  H  676  1  0.18510800  0.74759400  0.75209600  1
  H  678  1  0.19246000  0.80970000  0.71238800  1
  H  705  1  0.14322600  0.32214600  0.20304600  1
  H  706  1  0.13913600  0.28553800  0.22316500  1
  H  707  1  0.13667300  0.25199700  0.24971000  1
  H  708  1  0.13792800  0.22370000  0.28030400  1
  H  709  1  0.13810400  0.27814700  0.33107100  1
  H  710  1  0.13972500  0.35796200  0.26815600  1
  H  711  1  0.21347000  0.31251500  0.29374900  1
  H  712  1  0.22925000  0.35882100  0.35113300  1
  H  713  1  0.16823500  0.36346200  0.35530800  1
  H  714  1  0.06101750  0.31529300  0.29179300  1
  H  715  1  0.10680500  0.36549100  0.35374700  1
  H  716  1  0.04594150  0.36375000  0.34746100  1
  H  722  1  0.14799500  0.37947400  0.23203500  1
  H  723  1  0.15225000  0.23387500  0.34123900  1
  H  724  1  0.00201748  0.34148100  0.29972900  1
  H  725  1  0.27390400  0.31729400  0.32158600  1
  H  750  1  0.14309800  0.93758400  0.02157650  1
  H  751  1  0.13906800  0.97419100  0.00145353  1
  H  752  1  0.13671200  0.00773230  0.97491000  1
  H  753  1  0.13792500  0.03603130  0.94432100  1
  H  754  1  0.13809600  0.98159000  0.89354700  1
  H  755  1  0.13966900  0.90176700  0.95646600  1
  H  756  1  0.21348300  0.94719700  0.93085000  1
  H  757  1  0.22922700  0.90080900  0.87352600  1
  H  758  1  0.16820600  0.89619200  0.86935800  1
  H  759  1  0.06103350  0.94443900  0.93285700  1
  H  760  1  0.10677100  0.89414800  0.87096500  1
  H  761  1  0.04590450  0.89590300  0.87727000  1
  H  767  1  0.14791700  0.88025400  0.99259900  1
  H  768  1  0.15203700  0.02583530  0.88332600  1
  H  769  1  0.00196348  0.91811900  0.92493100  1
  H  770  1  0.27392300  0.94237800  0.90314800  1
  H  795  1  0.14311300  0.03915930  0.30459000  1
  H  796  1  0.13902300  0.01903430  0.26798600  1
  H  797  1  0.13657400  0.99248400  0.23444800  1
  H  798  1  0.13783200  0.96189200  0.20615400  1
  H  799  1  0.13804800  0.91112500  0.26060200  1
  H  800  1  0.13966500  0.97404900  0.34041300  1
  H  801  1  0.21342200  0.94840300  0.29498200  1
  H  802  1  0.22908300  0.89110100  0.34141800  1
  H  803  1  0.16807600  0.88696200  0.34602800  1
  H  804  1  0.06095850  0.95043300  0.29771700  1
  H  805  1  0.10666700  0.88852500  0.34800300  1
  H  806  1  0.04580850  0.89483300  0.34624000  1
  H  812  1  0.14797000  0.01017630  0.36191800  1
  H  813  1  0.15190800  0.90086300  0.21639900  1
  H  814  1  0.00192148  0.94252500  0.32391000  1
  H  815  1  0.27400100  0.92130000  0.29985600  1
  H  840  1  0.14309100  0.22058800  0.92004400  1
  H  841  1  0.13902000  0.24070700  0.95665000  1
  H  842  1  0.13667300  0.26725100  0.99019200  1
  H  843  1  0.13793400  0.29784100  0.01849050  1
  H  844  1  0.13806400  0.34861300  0.96405100  1
  H  845  1  0.13966200  0.28570300  0.88422900  1
  H  846  1  0.21342000  0.31129900  0.92967900  1
  H  847  1  0.22920700  0.36868200  0.88337200  1
  H  848  1  0.16819100  0.37285800  0.87873400  1
  H  849  1  0.06097350  0.30932900  0.92689900  1
  H  850  1  0.10675600  0.37128100  0.87669200  1
  H  851  1  0.04588950  0.36498000  0.87842400  1
  H  857  1  0.14786900  0.24957900  0.86270900  1
  H  858  1  0.15193200  0.35887100  0.00825553  1
  H  859  1  0.00194948  0.31725600  0.90077400  1
  H  860  1  0.27387100  0.33906200  0.92489400  1
  H  885  1  0.64268500  0.82217300  0.70319600  1
  H  886  1  0.63898800  0.78558700  0.72335600  1
  H  887  1  0.63675900  0.75209000  0.74987800  1
  H  888  1  0.63851100  0.72379600  0.78045700  1
  H  889  1  0.63854000  0.77823300  0.83123600  1
  H  890  1  0.63838100  0.85806900  0.76823800  1
  H  891  1  0.71293700  0.81527400  0.79181100  1
  H  892  1  0.72829800  0.86403300  0.84718300  1
  H  893  1  0.66752400  0.86577400  0.85364200  1
  H  894  1  0.56031200  0.81293200  0.79410000  1
  H  895  1  0.60633200  0.86354900  0.85565900  1
  H  896  1  0.54530000  0.85906900  0.85172200  1
  H  902  1  0.64711700  0.87952200  0.73210400  1
  H  903  1  0.65290600  0.73390800  0.84135000  1
  H  904  1  0.50012700  0.81786400  0.82268900  1
  H  905  1  0.77196600  0.84231900  0.79964000  1
  H  930  1  0.64274000  0.43761000  0.52147800  1
  H  931  1  0.63897200  0.47419400  0.50131300  1
  H  932  1  0.63663100  0.50768500  0.47479000  1
  H  933  1  0.63845700  0.53597600  0.44420900  1
  H  934  1  0.63862600  0.48153000  0.39343800  1
  H  935  1  0.63845700  0.40170600  0.45644400  1
  H  936  1  0.71298200  0.44454000  0.43287700  1
  H  937  1  0.72840500  0.39574600  0.37754000  1
  H  938  1  0.66765200  0.39399900  0.37105500  1
  H  939  1  0.56032500  0.44680700  0.43052900  1
  H  940  1  0.60649800  0.39616500  0.36904200  1
  H  941  1  0.54548000  0.40058700  0.37294800  1
  H  947  1  0.64727900  0.38026900  0.49257500  1
  H  948  1  0.65278600  0.52582400  0.38326400  1
  H  949  1  0.50002800  0.44178800  0.40289500  1
  H  950  1  0.77201800  0.41770800  0.42508100  1
  H  975  1  0.64267500  0.53902900  0.80459800  1
  H  976  1  0.63891200  0.51885500  0.76802200  1
  H  977  1  0.63661300  0.49232400  0.73454200  1
  H  978  1  0.63843300  0.46174600  0.70625600  1
  H  979  1  0.63862800  0.41097700  0.76070700  1
  H  980  1  0.63844900  0.47400100  0.84052100  1
  H  981  1  0.71296100  0.45040600  0.79765200  1
  H  982  1  0.72841500  0.39508100  0.84645800  1
  H  983  1  0.66765500  0.38861900  0.84825400  1
  H  984  1  0.56032000  0.44804300  0.79538800  1
  H  985  1  0.60647700  0.38664200  0.84614000  1
  H  986  1  0.54545400  0.39051600  0.84167400  1
  H  992  1  0.64726600  0.51014200  0.86194700  1
  H  993  1  0.65256500  0.40071700  0.71645500  1
  H  994  1  0.49998400  0.42021200  0.80041000  1
  H  995  1  0.77204700  0.44259800  0.82468400  1
  H  1020  1  0.64260500  0.72070300  0.42005400  1
  H  1021  1  0.63892500  0.74085800  0.45664700  1
  H  1022  1  0.63670100  0.76737800  0.49015100  1
  H  1023  1  0.63846400  0.79795100  0.51845200  1
  H  1024  1  0.63862600  0.84873900  0.46402000  1
  H  1025  1  0.63844300  0.78576000  0.38417500  1
  H  1026  1  0.71302800  0.80929100  0.42701900  1
  H  1027  1  0.72847800  0.86455100  0.37814300  1
  H  1028  1  0.66772200  0.87104600  0.37638700  1
  H  1029  1  0.56038500  0.81167000  0.42929200  1
  H  1030  1  0.60657400  0.87312300  0.37861500  1
  H  1031  1  0.54555500  0.86923200  0.38304700  1
  H  1037  1  0.64708100  0.74962900  0.36270800  1
  H  1038  1  0.65278100  0.85889900  0.50831300  1
  H  1039  1  0.50009000  0.83929600  0.42426000  1
  H  1040  1  0.77211500  0.81709500  0.39992100  1
  H  1047  1  0.09815050  0.06409330  0.32570900  1
  H  1051  1  0.18476300  0.07468930  0.36977000  1
  H  1056  1  0.08693750  0.17780000  0.30843000  1
  H  1058  1  0.17295700  0.18912400  0.35285000  1
  H  1067  1  0.09808250  0.19565700  0.89891000  1
  H  1071  1  0.18477900  0.18508400  0.85491200  1
  H  1076  1  0.08688050  0.08193930  0.91614900  1
  H  1078  1  0.17297900  0.07064030  0.87181200  1
  H  1087  1  0.09816550  0.91651900  0.04652850  1
  H  1091  1  0.18465200  0.87234100  0.05710650  1
  H  1096  1  0.08703450  0.93382100  0.16023200  1
  H  1098  1  0.17290600  0.88927100  0.17155200  1
  H  1107  1  0.09818950  0.34326000  0.17812700  1
  H  1111  1  0.18482100  0.38730800  0.16752600  1
  H  1116  1  0.08695550  0.32599900  0.06441450  1
  H  1118  1  0.17298600  0.37038700  0.05308750  1
  H  1127  1  0.59796500  0.56421600  0.82561200  1
  H  1131  1  0.68450500  0.57454600  0.86979700  1
  H  1136  1  0.58732800  0.67796000  0.80845800  1
  H  1138  1  0.67326600  0.68906700  0.85300100  1
  H  1147  1  0.59782700  0.69553900  0.39899600  1
  H  1151  1  0.68451000  0.68525600  0.35492100  1
  H  1156  1  0.58726800  0.58178400  0.41611900  1
  H  1158  1  0.67334700  0.57072500  0.37170800  1
  H  1167  1  0.59803000  0.41664600  0.54667200  1
  H  1171  1  0.68439800  0.37230000  0.55697700  1
  H  1176  1  0.58752300  0.43380600  0.66042100  1
  H  1178  1  0.67327100  0.38908900  0.67150300  1
  H  1187  1  0.59786900  0.84321200  0.67803400  1
  H  1191  1  0.68454100  0.88728600  0.66771900  1
  H  1196  1  0.58728400  0.82604500  0.56428600  1
  H  1198  1  0.67335200  0.87045500  0.55319600  1
  H  1207  1  0.82175600  0.38626500  0.41447800  1
  H  1211  1  0.81571800  0.42753200  0.35328800  1
  H  1216  1  0.95829900  0.33191000  0.37117900  1
  H  1218  1  0.95164100  0.37302500  0.30991000  1
  H  1227  1  0.82173000  0.87351800  0.81014200  1
  H  1231  1  0.81553000  0.83231900  0.87137700  1
  H  1236  1  0.95833100  0.92779200  0.85347100  1
  H  1238  1  0.95156000  0.88674900  0.91474900  1
  H  1247  1  0.82174600  0.82771700  0.36871400  1
  H  1251  1  0.81572600  0.88887600  0.41003400  1
  H  1256  1  0.95821900  0.87107200  0.31432400  1
  H  1258  1  0.95154700  0.93232800  0.35546000  1
  H  1267  1  0.82178000  0.43209200  0.85589100  1
  H  1271  1  0.81555100  0.37083500  0.81472700  1
  H  1276  1  0.95829200  0.38873100  0.91023100  1
  H  1278  1  0.95148200  0.32742500  0.86923400  1
  H  1287  1  0.45232400  0.87310900  0.41405600  1
  H  1291  1  0.45947100  0.83334800  0.35195300  1
  H  1296  1  0.31510400  0.92745900  0.37173400  1
  H  1298  1  0.32279900  0.88784200  0.30955700  1
  H  1307  1  0.45226600  0.38660500  0.81053400  1
  H  1311  1  0.45939900  0.42635100  0.87265200  1
  H  1316  1  0.31512300  0.33217000  0.85287000  1
  H  1318  1  0.32266900  0.37181200  0.91500700  1
  H  1327  1  0.45235500  0.43157300  0.36901400  1
  H  1331  1  0.45924000  0.36954700  0.40891600  1
  H  1336  1  0.31521400  0.38929300  0.31455100  1
  H  1338  1  0.32257400  0.32720200  0.35434100  1
  H  1347  1  0.45249300  0.82817500  0.85553600  1
  H  1351  1  0.45936000  0.89023600  0.81566600  1
  H  1356  1  0.31530500  0.87041300  0.91000700  1
  H  1358  1  0.32265700  0.93251900  0.87029900  1
  H  1385  1  0.27342400  0.44496600  0.36095600  1
  H  1386  1  0.26933400  0.40835800  0.38107500  1
  H  1387  1  0.26687100  0.37481700  0.40762000  1
  H  1388  1  0.26812600  0.34652000  0.43821400  1
  H  1389  1  0.26830200  0.40096700  0.48898100  1
  H  1390  1  0.26992300  0.48078200  0.42606600  1
  H  1391  1  0.34366800  0.43533500  0.45165900  1
  H  1392  1  0.35944800  0.48164100  0.50904300  1
  H  1393  1  0.29843300  0.48628200  0.51321800  1
  H  1394  1  0.19121500  0.43811300  0.44970300  1
  H  1395  1  0.23700300  0.48831100  0.51165700  1
  H  1396  1  0.17613900  0.48657000  0.50537100  1
  H  1402  1  0.27819300  0.50229400  0.38994500  1
  H  1403  1  0.28244800  0.35669500  0.49914900  1
  H  1404  1  0.13221500  0.46430100  0.45763900  1
  H  1405  1  0.40410200  0.44011400  0.47949600  1
  H  1430  1  0.27329600  0.06040360  0.17948700  1
  H  1431  1  0.26926600  0.09701060  0.15936400  1
  H  1432  1  0.26691000  0.13055200  0.13282000  1
  H  1433  1  0.26812300  0.15885100  0.10223100  1
  H  1434  1  0.26829400  0.10441000  0.05145710  1
  H  1435  1  0.26986700  0.02458660  0.11437600  1
  H  1436  1  0.34368100  0.07001660  0.08876010  1
  H  1437  1  0.35942500  0.02362860  0.03143610  1
  H  1438  1  0.29840400  0.01901160  0.02726810  1
  H  1439  1  0.19123100  0.06725860  0.09076710  1
  H  1440  1  0.23696900  0.01696760  0.02887510  1
  H  1441  1  0.17610200  0.01872260  0.03518010  1
  H  1447  1  0.27811500  0.00307360  0.15050900  1
  H  1448  1  0.28223500  0.14865500  0.04123610  1
  H  1449  1  0.13216100  0.04093860  0.08284110  1
  H  1450  1  0.40412100  0.06519760  0.06105810  1
  H  1475  1  0.27331100  0.16197900  0.46250000  1
  H  1476  1  0.26922100  0.14185400  0.42589600  1
  H  1477  1  0.26677200  0.11530400  0.39235800  1
  H  1478  1  0.26803000  0.08471160  0.36406400  1
  H  1479  1  0.26824600  0.03394460  0.41851200  1
  H  1480  1  0.26986300  0.09686860  0.49832300  1
  H  1481  1  0.34362000  0.07122260  0.45289200  1
  H  1482  1  0.35928100  0.01392060  0.49932800  1
  H  1483  1  0.29827400  0.00978160  0.50393800  1
  H  1484  1  0.19115600  0.07325260  0.45562700  1
  H  1485  1  0.23686500  0.01134460  0.50591300  1
  H  1486  1  0.17600600  0.01765260  0.50415000  1
  H  1492  1  0.27816800  0.13299600  0.51982800  1
  H  1493  1  0.28210600  0.02368260  0.37430900  1
  H  1494  1  0.13211900  0.06534460  0.48182000  1
  H  1495  1  0.40419900  0.04411960  0.45776600  1
  H  1520  1  0.27328900  0.34340800  0.07795410  1
  H  1521  1  0.26921800  0.36352700  0.11456000  1
  H  1522  1  0.26687100  0.39007100  0.14810200  1
  H  1523  1  0.26813200  0.42066100  0.17640100  1
  H  1524  1  0.26826200  0.47143300  0.12196100  1
  H  1525  1  0.26986000  0.40852300  0.04213910  1
  H  1526  1  0.34361800  0.43411900  0.08758910  1
  H  1527  1  0.35940500  0.49150200  0.04128210  1
  H  1528  1  0.29838900  0.49567800  0.03664410  1
  H  1529  1  0.19117100  0.43214900  0.08480910  1
  H  1530  1  0.23695400  0.49410100  0.03460210  1
  H  1531  1  0.17608700  0.48780000  0.03633410  1
  H  1537  1  0.27806700  0.37239900  0.02061910  1
  H  1538  1  0.28213000  0.48169100  0.16616600  1
  H  1539  1  0.13214700  0.44007600  0.05868410  1
  H  1540  1  0.40406900  0.46188200  0.08280410  1
  H  1565  1  0.77288300  0.94499300  0.86110600  1
  H  1566  1  0.76918600  0.90840700  0.88126600  1
  H  1567  1  0.76695700  0.87491000  0.90778800  1
  H  1568  1  0.76870900  0.84661600  0.93836700  1
  H  1569  1  0.76873800  0.90105300  0.98914600  1
  H  1570  1  0.76857900  0.98088900  0.92614800  1
  H  1571  1  0.84313500  0.93809400  0.94972100  1
  H  1572  1  0.85849600  0.98685300  0.00509306  1
  H  1573  1  0.79772200  0.98859400  0.01155210  1
  H  1574  1  0.69051000  0.93575200  0.95201000  1
  H  1575  1  0.73653000  0.98636900  0.01356910  1
  H  1576  1  0.67549800  0.98188900  0.00963206  1
  H  1582  1  0.77731500  0.00234160  0.89001400  1
  H  1583  1  0.78310400  0.85672800  0.99926000  1
  H  1584  1  0.63032500  0.94068400  0.98059900  1
  H  1585  1  0.90216400  0.96513900  0.95755000  1
  H  1610  1  0.77293800  0.56043000  0.67938800  1
  H  1611  1  0.76917000  0.59701400  0.65922300  1
  H  1612  1  0.76682900  0.63050500  0.63270000  1
  H  1613  1  0.76865500  0.65879600  0.60211900  1
  H  1614  1  0.76882400  0.60435000  0.55134800  1
  H  1615  1  0.76865500  0.52452600  0.61435400  1
  H  1616  1  0.84318000  0.56736000  0.59078700  1
  H  1617  1  0.85860300  0.51856600  0.53545000  1
  H  1618  1  0.79785000  0.51681900  0.52896500  1
  H  1619  1  0.69052300  0.56962700  0.58843900  1
  H  1620  1  0.73669600  0.51898500  0.52695200  1
  H  1621  1  0.67567800  0.52340700  0.53085800  1
  H  1627  1  0.77747700  0.50308900  0.65048500  1
  H  1628  1  0.78298400  0.64864400  0.54117400  1
  H  1629  1  0.63022600  0.56460800  0.56080500  1
  H  1630  1  0.90221600  0.54052800  0.58299100  1
  H  1655  1  0.77287300  0.66184900  0.96250800  1
  H  1656  1  0.76911000  0.64167500  0.92593200  1
  H  1657  1  0.76681100  0.61514400  0.89245200  1
  H  1658  1  0.76863100  0.58456600  0.86416600  1
  H  1659  1  0.76882600  0.53379700  0.91861700  1
  H  1660  1  0.76864700  0.59682100  0.99843100  1
  H  1661  1  0.84315900  0.57322600  0.95556200  1
  H  1662  1  0.85861300  0.51790100  0.00436806  1
  H  1663  1  0.79785300  0.51143900  0.00616406  1
  H  1664  1  0.69051800  0.57086300  0.95329800  1
  H  1665  1  0.73667500  0.50946200  0.00405006  1
  H  1666  1  0.67565200  0.51333600  0.99958400  1
  H  1672  1  0.77746400  0.63296200  0.01985710  1
  H  1673  1  0.78276300  0.52353700  0.87436500  1
  H  1674  1  0.63018200  0.54303200  0.95832000  1
  H  1675  1  0.90224500  0.56541800  0.98259400  1
  H  1700  1  0.77280300  0.84352300  0.57796400  1
  H  1701  1  0.76912300  0.86367800  0.61455700  1
  H  1702  1  0.76689900  0.89019800  0.64806100  1
  H  1703  1  0.76866200  0.92077100  0.67636200  1
  H  1704  1  0.76882400  0.97155900  0.62193000  1
  H  1705  1  0.76864100  0.90858000  0.54208500  1
  H  1706  1  0.84322600  0.93211100  0.58492900  1
  H  1707  1  0.85867600  0.98737100  0.53605300  1
  H  1708  1  0.79792000  0.99386600  0.53429700  1
  H  1709  1  0.69058300  0.93449000  0.58720200  1
  H  1710  1  0.73677200  0.99594300  0.53652500  1
  H  1711  1  0.67575300  0.99205200  0.54095700  1
  H  1717  1  0.77727900  0.87244900  0.52061800  1
  H  1718  1  0.78297900  0.98171900  0.66622300  1
  H  1719  1  0.63028800  0.96211600  0.58217000  1
  H  1720  1  0.90231300  0.93991500  0.55783100  1
  H  1727  1  0.22834800  0.18691300  0.48361900  1
  H  1731  1  0.31496100  0.19750900  0.52768000  1
  H  1736  1  0.21713500  0.30062000  0.46634000  1
  H  1738  1  0.30315500  0.31194400  0.51076000  1
  H  1747  1  0.22828000  0.31847700  0.05682010  1
  H  1751  1  0.31497700  0.30790400  0.01282210  1
  H  1756  1  0.21707800  0.20475900  0.07405910  1
  H  1758  1  0.30317700  0.19346000  0.02972210  1
  H  1767  1  0.22836300  0.03933860  0.20443900  1
  H  1771  1  0.31485000  0.99516100  0.21501700  1
  H  1776  1  0.21723200  0.05664060  0.31814200  1
  H  1778  1  0.30310400  0.01209060  0.32946200  1
  H  1787  1  0.22838700  0.46608000  0.33603700  1
  H  1791  1  0.31501900  0.51012800  0.32543600  1
  H  1796  1  0.21715300  0.44881900  0.22232500  1
  H  1798  1  0.30318400  0.49320700  0.21099800  1
  H  1807  1  0.72816300  0.68703600  0.98352200  1
  H  1811  1  0.81470300  0.69736600  0.02770710  1
  H  1816  1  0.71752600  0.80078000  0.96636800  1
  H  1818  1  0.80346400  0.81188700  0.01091110  1
  H  1827  1  0.72802500  0.81835900  0.55690600  1
  H  1831  1  0.81470800  0.80807600  0.51283100  1
  H  1836  1  0.71746600  0.70460400  0.57402900  1
  H  1838  1  0.80354500  0.69354500  0.52961800  1
  H  1847  1  0.72822800  0.53946600  0.70458200  1
  H  1851  1  0.81459600  0.49512000  0.71488700  1
  H  1856  1  0.71772100  0.55662600  0.81833100  1
  H  1858  1  0.80346900  0.51190900  0.82941300  1
  H  1867  1  0.72806700  0.96603200  0.83594400  1
  H  1871  1  0.81473900  0.01010560  0.82562900  1
  H  1876  1  0.71748200  0.94886500  0.72219600  1
  H  1878  1  0.80355000  0.99327500  0.71110600  1
  H  1887  1  0.95195400  0.50908500  0.57238800  1
  H  1891  1  0.94591600  0.55035200  0.51119800  1
  H  1896  1  0.08849700  0.45473000  0.52908900  1
  H  1898  1  0.08183900  0.49584500  0.46782000  1
  H  1907  1  0.95192800  0.99633800  0.96805200  1
  H  1911  1  0.94572800  0.95513900  0.02928710  1
  H  1916  1  0.08852900  0.05061160  0.01138110  1
  H  1918  1  0.08175800  0.00956860  0.07265910  1
  H  1927  1  0.95194400  0.95053700  0.52662400  1
  H  1931  1  0.94592400  0.01169560  0.56794400  1
  H  1936  1  0.08841700  0.99389200  0.47223400  1
  H  1938  1  0.08174500  0.05514760  0.51337000  1
  H  1947  1  0.95197800  0.55491200  0.01380110  1
  H  1951  1  0.94574900  0.49365500  0.97263700  1
  H  1956  1  0.08849000  0.51155100  0.06814110  1
  H  1958  1  0.08168000  0.45024500  0.02714410  1
  H  1967  1  0.58252200  0.99592900  0.57196600  1
  H  1971  1  0.58966900  0.95616800  0.50986300  1
  H  1976  1  0.44530200  0.05027860  0.52964400  1
  H  1978  1  0.45299700  0.01066160  0.46746700  1
  H  1987  1  0.58246400  0.50942500  0.96844400  1
  H  1991  1  0.58959700  0.54917100  0.03056210  1
  H  1996  1  0.44532100  0.45499000  0.01078010  1
  H  1998  1  0.45286700  0.49463200  0.07291710  1
  H  2007  1  0.58255300  0.55439300  0.52692400  1
  H  2011  1  0.58943800  0.49236700  0.56682600  1
  H  2016  1  0.44541200  0.51211300  0.47246100  1
  H  2018  1  0.45277200  0.45002200  0.51225100  1
  H  2027  1  0.58269100  0.95099500  0.01344610  1
  H  2031  1  0.58955800  0.01305560  0.97357600  1
  H  2036  1  0.44550300  0.99323300  0.06791710  1
  H  2038  1  0.45285500  0.05533860  0.02820910  1
  C  1  1  0.97681100  0.20383300  0.15094500  1
  C  2  1  0.98921700  0.21838100  0.16886500  1
  C  3  1  0.02507400  0.21795000  0.16913600  1
  C  4  1  0.03729700  0.20314100  0.15136500  1
  C  5  1  0.07391100  0.20053600  0.14866100  1
  C  6  1  0.09738800  0.21300700  0.16355000  1
  C  7  1  0.08328400  0.22737500  0.18157100  1
  C  8  1  0.04738400  0.23013000  0.18432400  1
  C  9  1  0.96710400  0.23170700  0.18319100  1
  C  10  1  0.93124000  0.23043500  0.17936100  1
  C  11  1  0.91689700  0.21574300  0.16167800  1
  C  12  1  0.94023400  0.20262700  0.14723900  1
  C  13  1  0.00737900  0.19833000  0.11250900  1
  C  14  1  0.00686400  0.17766700  0.09932300  1
  C  15  1  0.00617100  0.15866100  0.11449200  1
  C  16  1  0.00643400  0.16654700  0.13778000  1
  C  17  1  0.00624100  0.13471100  0.10885000  1
  C  18  1  0.00682500  0.11821100  0.12707100  1
  C  19  1  0.00711000  0.12510100  0.15105300  1
  C  20  1  0.00712100  0.14965000  0.15614800  1
  C  21  1  0.00884000  0.22007600  0.10049600  1
  C  22  1  0.01037300  0.22110300  0.07544300  1
  C  23  1  0.01051600  0.19961600  0.06293400  1
  C  24  1  0.00839500  0.17796700  0.07466600  1
  C  37  1  0.00697800  0.19286700  0.13823500  1
  C  38  1  0.00950700  0.10773400  0.16845900  1
  C  39  1  0.01396500  0.24272400  0.06398800  1
  C  40  1  0.88097600  0.21669700  0.15799700  1
  C  41  1  0.13349400  0.21045800  0.16277700  1
  C  46  1  0.97680900  0.81028600  0.75784300  1
  C  47  1  0.98919800  0.79570900  0.73993700  1
  C  48  1  0.02506100  0.79611300  0.73967500  1
  C  49  1  0.03729800  0.81093500  0.75742800  1
  C  50  1  0.07391500  0.81353000  0.76012700  1
  C  51  1  0.09738400  0.80103900  0.74524400  1
  C  52  1  0.08326900  0.78664300  0.72725200  1
  C  53  1  0.04736400  0.78391100  0.72449700  1
  C  54  1  0.96707500  0.78233700  0.72566100  1
  C  55  1  0.93121100  0.78361700  0.72950300  1
  C  56  1  0.91688400  0.79834300  0.74716500  1
  C  57  1  0.94023600  0.81146000  0.76158900  1
  C  58  1  0.00738800  0.81576000  0.79628400  1
  C  59  1  0.00692300  0.83642700  0.80947000  1
  C  60  1  0.00618900  0.85543100  0.79430300  1
  C  61  1  0.00644700  0.84754700  0.77101500  1
  C  62  1  0.00623600  0.87938000  0.79994800  1
  C  63  1  0.00679600  0.89588400  0.78172800  1
  C  64  1  0.00707000  0.88899700  0.75774500  1
  C  65  1  0.00710700  0.86444700  0.75265000  1
  C  66  1  0.00880700  0.79401600  0.80830100  1
  C  67  1  0.01030900  0.79298900  0.83335500  1
  C  68  1  0.01044900  0.81447600  0.84586500  1
  C  69  1  0.00839700  0.83612500  0.83412800  1
  C  82  1  0.00698600  0.82122700  0.77055900  1
  C  83  1  0.00948500  0.90637400  0.74035100  1
  C  84  1  0.01385300  0.77136800  0.84481700  1
  C  85  1  0.88097300  0.79739200  0.75087000  1
  C  86  1  0.13349700  0.80357300  0.74602500  1
  C  91  1  0.97673300  0.81054400  0.15119000  1
  C  92  1  0.98910700  0.79262300  0.16574700  1
  C  93  1  0.02496600  0.79235300  0.16534800  1
  C  94  1  0.03722100  0.81009600  0.15052000  1
  C  95  1  0.07384100  0.81277700  0.14792200  1
  C  96  1  0.09729300  0.79788300  0.16041300  1
  C  97  1  0.08315100  0.77992300  0.17483900  1
  C  98  1  0.04724700  0.77718300  0.17757000  1
  C  99  1  0.96698100  0.77835100  0.17912100  1
  C  100  1  0.93112300  0.78218300  0.17782500  1
  C  101  1  0.91680100  0.79984400  0.16309800  1
  C  102  1  0.94015800  0.81426300  0.14997500  1
  C  103  1  0.00734700  0.84896200  0.14569000  1
  C  104  1  0.00681100  0.86214500  0.12502400  1
  C  105  1  0.00611100  0.84697500  0.10602200  1
  C  106  1  0.00640300  0.82368700  0.11390800  1
  C  107  1  0.00616600  0.85261500  0.08207100  1
  C  108  1  0.00674100  0.83439200  0.06557300  1
  C  109  1  0.00703300  0.81040900  0.07246100  1
  C  110  1  0.00705900  0.80531900  0.09701100  1
  C  111  1  0.00879100  0.86097900  0.16743400  1
  C  112  1  0.01030300  0.88603200  0.16845800  1
  C  113  1  0.01043900  0.89853900  0.14697100  1
  C  114  1  0.00834900  0.88680200  0.12532200  1
  C  127  1  0.00692100  0.82323500  0.14022800  1
  C  128  1  0.00946700  0.79301000  0.05508600  1
  C  129  1  0.01389000  0.89748900  0.19007800  1
  C  130  1  0.88087900  0.80352700  0.16403200  1
  C  131  1  0.13340200  0.79864800  0.15790200  1
  C  136  1  0.97676500  0.20357800  0.75763100  1
  C  137  1  0.98916700  0.22150600  0.74308700  1
  C  138  1  0.02502700  0.22177500  0.74351300  1
  C  139  1  0.03725000  0.20400800  0.75832300  1
  C  140  1  0.07386300  0.20130400  0.76092900  1
  C  141  1  0.09734300  0.21619300  0.74845700  1
  C  142  1  0.08324000  0.23420900  0.73408600  1
  C  143  1  0.04733900  0.23696600  0.73133600  1
  C  144  1  0.96705400  0.23581600  0.72974600  1
  C  145  1  0.93119000  0.23197900  0.73101000  1
  C  146  1  0.91685300  0.21429000  0.74569800  1
  C  147  1  0.94018900  0.19986500  0.75883000  1
  C  148  1  0.00734100  0.16514800  0.76313000  1
  C  149  1  0.00685300  0.15196100  0.78379500  1
  C  150  1  0.00609800  0.16712700  0.80280100  1
  C  151  1  0.00637700  0.19041500  0.79491700  1
  C  152  1  0.00621500  0.16148400  0.82675000  1
  C  153  1  0.00680600  0.17970400  0.84325200  1
  C  154  1  0.00708000  0.20368500  0.83636600  1
  C  155  1  0.00706900  0.20878200  0.81181600  1
  C  156  1  0.00880600  0.15313500  0.74138600  1
  C  157  1  0.01030900  0.12808200  0.74035800  1
  C  158  1  0.01040000  0.11556900  0.76184200  1
  C  159  1  0.00831200  0.12730300  0.78349400  1
  C  172  1  0.00693100  0.19087300  0.76859900  1
  C  173  1  0.00948900  0.22108300  0.85374100  1
  C  174  1  0.01386600  0.11662400  0.71873400  1
  C  175  1  0.88092600  0.21061900  0.74477000  1
  C  176  1  0.13345000  0.21540900  0.75100000  1
  C  181  1  0.47631400  0.70340200  0.65155700  1
  C  182  1  0.48873500  0.71813300  0.66932500  1
  C  183  1  0.52457600  0.71845200  0.66897800  1
  C  184  1  0.53683500  0.70380300  0.65109100  1
  C  185  1  0.57340000  0.70262400  0.64726900  1
  C  186  1  0.59681700  0.71580500  0.66159400  1
  C  187  1  0.58257400  0.73060400  0.67922600  1
  C  188  1  0.54675100  0.73188500  0.68315400  1
  C  189  1  0.46663300  0.73030100  0.68465900  1
  C  190  1  0.43070900  0.72764400  0.68204300  1
  C  191  1  0.41637100  0.71340400  0.66400800  1
  C  192  1  0.43965300  0.70091200  0.64898600  1
  C  193  1  0.50627300  0.69843400  0.61265400  1
  C  194  1  0.50630400  0.67775200  0.59948900  1
  C  195  1  0.50620800  0.65875300  0.61466600  1
  C  196  1  0.50670000  0.66666667  0.63794900  1
  C  197  1  0.50652000  0.63480500  0.60901800  1
  C  198  1  0.50734800  0.61830400  0.62723100  1
  C  199  1  0.50767600  0.62518900  0.65121400  1
  C  200  1  0.50762700  0.64974200  0.65630900  1
  C  201  1  0.50758500  0.72016800  0.60060200  1
  C  202  1  0.50937700  0.72116300  0.57555000  1
  C  203  1  0.50978500  0.69966300  0.56307100  1
  C  204  1  0.50789200  0.67802200  0.57483400  1
  C  217  1  0.50650400  0.69297900  0.63839500  1
  C  218  1  0.51007200  0.60779600  0.66859900  1
  C  219  1  0.51312400  0.74276000  0.56406600  1
  C  220  1  0.38023900  0.71096200  0.66340000  1
  C  221  1  0.63271800  0.71678900  0.65782000  1
  C  226  1  0.47636600  0.31072400  0.25728300  1
  C  227  1  0.48882900  0.29598900  0.23952900  1
  C  228  1  0.52466700  0.29569400  0.23988100  1
  C  229  1  0.53689000  0.31030300  0.25780800  1
  C  230  1  0.57346000  0.31154200  0.26160200  1
  C  231  1  0.59689500  0.29834400  0.24730100  1
  C  232  1  0.58266700  0.28352300  0.22968100  1
  C  233  1  0.54685500  0.28224700  0.22573100  1
  C  234  1  0.46677100  0.28377900  0.22420600  1
  C  235  1  0.43084400  0.28641400  0.22680100  1
  C  236  1  0.41645200  0.30068600  0.24479400  1
  C  237  1  0.43970000  0.31319600  0.25982600  1
  C  238  1  0.50624100  0.31570200  0.29620500  1
  C  239  1  0.50620000  0.33638600  0.30936600  1
  C  240  1  0.50617600  0.35538100  0.29418300  1
  C  241  1  0.50674100  0.34748200  0.27090200  1
  C  242  1  0.50646500  0.37933100  0.29982800  1
  C  243  1  0.50734600  0.39582900  0.28161400  1
  C  244  1  0.50773400  0.38894000  0.25763400  1
  C  245  1  0.50769200  0.36438700  0.25254100  1
  C  246  1  0.50757200  0.29397000  0.30825800  1
  C  247  1  0.50937400  0.29297700  0.33333333  1
  C  248  1  0.50977800  0.31448000  0.34578300  1
  C  249  1  0.50783500  0.33611800  0.33402100  1
  C  262  1  0.50653600  0.32115100  0.27046300  1
  C  263  1  0.51010800  0.40633300  0.24024600  1
  C  264  1  0.51321700  0.27138700  0.34479000  1
  C  265  1  0.38030400  0.30303900  0.24538900  1
  C  266  1  0.63281200  0.29740200  0.25103400  1
  C  271  1  0.47635600  0.30992400  0.65078800  1
  C  272  1  0.48881300  0.29219000  0.66554700  1
  C  273  1  0.52465100  0.29255900  0.66585700  1
  C  274  1  0.53687700  0.31044700  0.65119800  1
  C  275  1  0.57344200  0.31423800  0.64994400  1
  C  276  1  0.59688500  0.29992300  0.66311700  1
  C  277  1  0.58267000  0.28231400  0.67795500  1
  C  278  1  0.54685300  0.27838900  0.67927500  1
  C  279  1  0.46675000  0.27687300  0.67776500  1
  C  280  1  0.43082300  0.27945800  0.67511500  1
  C  281  1  0.41643900  0.29741900  0.66080400  1
  C  282  1  0.43969000  0.31245200  0.64829300  1
  C  283  1  0.50623600  0.34884200  0.64579700  1
  C  284  1  0.50622600  0.36199900  0.62510900  1
  C  285  1  0.50615300  0.34681300  0.60611800  1
  C  286  1  0.50671000  0.32353400  0.61401900  1
  C  287  1  0.50642400  0.35245600  0.58216800  1
  C  288  1  0.50729900  0.33424000  0.56567200  1
  C  289  1  0.50771800  0.31025900  0.57256200  1
  C  290  1  0.50767100  0.30516900  0.59711700  1
  C  291  1  0.50756700  0.36090300  0.66752600  1
  C  292  1  0.50937700  0.38595200  0.66851000  1
  C  293  1  0.50974100  0.39842400  0.64700400  1
  C  294  1  0.50776500  0.38665800  0.62537100  1
  C  307  1  0.50652300  0.32310100  0.64035100  1
  C  308  1  0.51013400  0.29287500  0.55516700  1
  C  309  1  0.51321700  0.39744500  0.69009400  1
  C  310  1  0.38030700  0.29800700  0.65840400  1
  C  311  1  0.63278800  0.30369200  0.66406100  1
  C  316  1  0.47642900  0.70417400  0.25810500  1
  C  317  1  0.48889700  0.72191400  0.24335800  1
  C  318  1  0.52473200  0.72155900  0.24306500  1
  C  319  1  0.53695200  0.70367000  0.25772400  1
  C  320  1  0.57351400  0.69983300  0.25892100  1
  C  321  1  0.59695500  0.71412400  0.24571900  1
  C  322  1  0.58273800  0.73171700  0.23086200  1
  C  323  1  0.54692600  0.73567000  0.22957900  1
  C  324  1  0.46684400  0.73723500  0.23114200  1
  C  325  1  0.43091400  0.73465000  0.23378600  1
  C  326  1  0.41651700  0.71666800  0.24806800  1
  C  327  1  0.43976300  0.70163500  0.26058100  1
  C  328  1  0.50632500  0.66525700  0.26308000  1
  C  329  1  0.50631700  0.65208800  0.28376100  1
  C  330  1  0.50623100  0.66726300  0.30276300  1
  C  331  1  0.50677300  0.69054600  0.29487100  1
  C  332  1  0.50650400  0.66161100  0.32670900  1
  C  333  1  0.50735300  0.67982200  0.34321300  1
  C  334  1  0.50771500  0.70380500  0.33633300  1
  C  335  1  0.50769200  0.70890400  0.31178200  1
  C  336  1  0.50762700  0.65321100  0.24134500  1
  C  337  1  0.50936900  0.62815900  0.24034100  1
  C  338  1  0.50974400  0.61567500  0.26183800  1
  C  339  1  0.50786100  0.62743100  0.28348200  1
  C  352  1  0.50659300  0.69099700  0.26854000  1
  C  353  1  0.51010000  0.72118800  0.35373000  1
  C  354  1  0.51309800  0.61668100  0.21874000  1
  C  355  1  0.38037400  0.71607500  0.25042100  1
  C  356  1  0.63285600  0.71035500  0.24476700  1
  C  361  1  0.01264200  0.94224300  0.18955700  1
  C  362  1  0.03545500  0.95799900  0.20098000  1
  C  364  1  0.00725700  0.99158300  0.18443900  1
  C  365  1  0.98332400  0.97658000  0.17275300  1
  C  366  1  0.98594300  0.95200000  0.17555500  1
  C  368  1  0.00418400  0.01619300  0.18146000  1
  C  369  1  0.99845500  0.06497500  0.17269500  1
  C  370  1  0.97490800  0.04904700  0.16226200  1
  C  373  1  0.97743100  0.02476400  0.16660800  1
  C  377  1  0.02417000  0.05565900  0.18780000  1
  C  381  1  0.01262900  0.07188000  0.71929200  1
  C  382  1  0.03546200  0.05613100  0.70787300  1
  C  384  1  0.00725500  0.02254000  0.72439500  1
  C  385  1  0.98329300  0.03753600  0.73606500  1
  C  386  1  0.98590700  0.06211800  0.73327000  1
  C  388  1  0.00418700  0.99792900  0.72736700  1
  C  389  1  0.99840300  0.94911900  0.73607300  1
  C  390  1  0.97489700  0.96506400  0.74653100  1
  C  393  1  0.97740800  0.98934900  0.74219200  1
  C  397  1  0.02420200  0.95847100  0.72104800  1
  C  401  1  0.01259000  0.77188000  0.88957600  1
  C  402  1  0.03536300  0.76041600  0.90532900  1
  C  404  1  0.00722100  0.77699100  0.93892000  1
  C  405  1  0.98332100  0.78871400  0.92391900  1
  C  406  1  0.98593300  0.78591300  0.89933900  1
  C  408  1  0.00416100  0.77997600  0.96353300  1
  C  409  1  0.99847600  0.78876100  0.01231300  1
  C  410  1  0.97496000  0.79922700  0.99638600  1
  C  413  1  0.97746000  0.79487000  0.97210500  1
  C  417  1  0.02413700  0.77361200  0.00299700  1
  C  421  1  0.01270400  0.24217500  0.01924400  1
  C  422  1  0.03551200  0.25360800  0.00348800  1
  C  424  1  0.00730600  0.23707100  0.96990500  1
  C  425  1  0.98336600  0.22538700  0.98491100  1
  C  426  1  0.98599300  0.22818400  0.00949000  1
  C  428  1  0.00422800  0.23409300  0.94529600  1
  C  429  1  0.99844200  0.22537200  0.89648900  1
  C  430  1  0.97495700  0.21490200  0.91244300  1
  C  433  1  0.97746800  0.21925000  0.93672600  1
  C  437  1  0.02422100  0.24041500  0.90583100  1
  C  441  1  0.51238900  0.44222300  0.68952600  1
  C  442  1  0.53525700  0.45791600  0.70098900  1
  C  444  1  0.50730100  0.49159300  0.68443800  1
  C  445  1  0.48332400  0.47665400  0.67270400  1
  C  446  1  0.48580000  0.45206400  0.67548900  1
  C  448  1  0.50434600  0.51621600  0.68148300  1
  C  449  1  0.49883100  0.56503300  0.67278300  1
  C  450  1  0.47525200  0.54915600  0.66229800  1
  C  453  1  0.47766800  0.52486100  0.66666667  1
  C  457  1  0.52446600  0.55564500  0.68790400  1
  C  461  1  0.51233700  0.57191700  0.21934100  1
  C  462  1  0.53526000  0.55624000  0.20790000  1
  C  464  1  0.50729300  0.52254700  0.22441700  1
  C  465  1  0.48326200  0.53747100  0.23611900  1
  C  466  1  0.48571700  0.56206100  0.23334100  1
  C  468  1  0.50435600  0.49792100  0.22736400  1
  C  469  1  0.49880700  0.44907600  0.23600800  1
  C  470  1  0.47524700  0.46496200  0.24650100  1
  C  473  1  0.47764000  0.48926100  0.24219500  1
  C  477  1  0.52453700  0.45850700  0.22097700  1
  C  481  1  0.51236600  0.27192000  0.38957500  1
  C  482  1  0.53519000  0.26040300  0.40526000  1
  C  484  1  0.50729300  0.27698400  0.43894900  1
  C  485  1  0.48336300  0.28876900  0.42401600  1
  C  486  1  0.48583200  0.28599700  0.39942600  1
  C  488  1  0.50436100  0.27993800  0.46357400  1
  C  489  1  0.49893000  0.28866400  0.51239000  1
  C  490  1  0.47538200  0.29919100  0.49652200  1
  C  493  1  0.47775400  0.29486600  0.47222700  1
  C  497  1  0.52448500  0.27348300  0.50299500  1
  C  501  1  0.51237600  0.74213900  0.51930400  1
  C  502  1  0.53529400  0.75357300  0.50361900  1
  C  504  1  0.50732700  0.73703800  0.46993600  1
  C  505  1  0.48330100  0.72534200  0.48486800  1
  C  506  1  0.48575600  0.72813200  0.50945800  1
  C  508  1  0.50438200  0.73408200  0.44531300  1
  C  509  1  0.49881800  0.72542500  0.39647100  1
  C  510  1  0.47526500  0.71493400  0.41236700  1
  C  513  1  0.47766600  0.71924700  0.43666200  1
  C  517  1  0.52455000  0.74045800  0.40589200  1
  C  521  1  0.68488000  0.28714300  0.22823300  1
  C  522  1  0.69801400  0.29276800  0.20578600  1
  C  524  1  0.74236000  0.26351000  0.20843600  1
  C  525  1  0.73053300  0.25728700  0.23119600  1
  C  526  1  0.70168100  0.26910000  0.24095300  1
  C  528  1  0.77037300  0.25087800  0.19848800  1
  C  529  1  0.82852400  0.22660000  0.18046300  1
  C  530  1  0.81525500  0.22091100  0.20286400  1
  C  533  1  0.78599100  0.23276500  0.21190500  1
  C  537  1  0.81145300  0.24437700  0.16755700  1
  C  541  1  0.68479900  0.72704200  0.68058000  1
  C  542  1  0.69785800  0.72142800  0.70305400  1
  C  544  1  0.74230000  0.75062200  0.70038300  1
  C  545  1  0.73051400  0.75683700  0.67761100  1
  C  546  1  0.70166000  0.74504100  0.66784100  1
  C  548  1  0.77035200  0.76322300  0.71032500  1
  C  549  1  0.82853500  0.78752000  0.72838600  1
  C  550  1  0.81530700  0.79312800  0.70594800  1
  C  553  1  0.78602300  0.78130600  0.69690000  1
  C  557  1  0.81144500  0.76970300  0.74123900  1
  C  561  1  0.68485700  0.73322700  0.23450700  1
  C  562  1  0.69795200  0.75568900  0.24010900  1
  C  564  1  0.74229500  0.75305600  0.21085000  1
  C  565  1  0.73047500  0.73029500  0.20462000  1
  C  566  1  0.70164700  0.72052300  0.21644700  1
  C  568  1  0.77029700  0.76301100  0.19821400  1
  C  569  1  0.82843100  0.78105500  0.17393000  1
  C  570  1  0.81517100  0.75865300  0.16823900  1
  C  573  1  0.78591600  0.74960300  0.18009400  1
  C  577  1  0.81136200  0.79395100  0.19171700  1
  C  581  1  0.68484900  0.28091600  0.67433200  1
  C  582  1  0.69788200  0.25842700  0.66874100  1
  C  584  1  0.74227900  0.26108400  0.69796500  1
  C  585  1  0.73052000  0.28387000  0.70415600  1
  C  586  1  0.70169600  0.29365200  0.69233500  1
  C  588  1  0.77030300  0.25113600  0.71058700  1
  C  589  1  0.82846400  0.23306900  0.73489700  1
  C  590  1  0.81524900  0.25551500  0.74049100  1
  C  593  1  0.78597300  0.26456500  0.72866300  1
  C  597  1  0.81136700  0.22020800  0.71709300  1
  C  601  1  0.32933400  0.72725100  0.22732600  1
  C  602  1  0.31647600  0.72210000  0.20469800  1
  C  604  1  0.27159400  0.75096200  0.20791500  1
  C  605  1  0.28320000  0.75674400  0.23083700  1
  C  606  1  0.31216100  0.74489500  0.24038900  1
  C  608  1  0.24344700  0.76365000  0.19820500  1
  C  609  1  0.18501400  0.78796300  0.18059700  1
  C  610  1  0.19803900  0.79318900  0.20317200  1
  C  613  1  0.22747600  0.78134800  0.21199100  1
  C  617  1  0.20244400  0.77059400  0.16734300  1
  C  621  1  0.32924100  0.28681100  0.68144100  1
  C  622  1  0.31640600  0.29196200  0.70408100  1
  C  624  1  0.27148500  0.26312600  0.70083800  1
  C  625  1  0.28310100  0.25734500  0.67791800  1
  C  626  1  0.31205700  0.26919500  0.66835800  1
  C  628  1  0.24331000  0.25044800  0.71053500  1
  C  629  1  0.18490800  0.22602400  0.72817800  1
  C  630  1  0.19795700  0.22087800  0.70558200  1
  C  633  1  0.22737200  0.23273700  0.69675400  1
  C  637  1  0.20226700  0.24348700  0.74136300  1
  C  641  1  0.32925400  0.27996800  0.23420000  1
  C  642  1  0.31634300  0.25735400  0.23935900  1
  C  644  1  0.27147200  0.26059400  0.21049600  1
  C  645  1  0.28316600  0.28348400  0.20467300  1
  C  646  1  0.31214100  0.29302000  0.21652200  1
  C  648  1  0.24331100  0.25090000  0.19780700  1
  C  649  1  0.18493300  0.23329700  0.17341600  1
  C  650  1  0.19804000  0.25584700  0.16816700  1
  C  653  1  0.22744000  0.26466500  0.18005100  1
  C  657  1  0.20225200  0.22007100  0.19085900  1
  C  661  1  0.32937100  0.73415700  0.67455800  1
  C  662  1  0.31646300  0.75677500  0.66939100  1
  C  664  1  0.27164100  0.75353800  0.69830300  1
  C  665  1  0.28333000  0.73063900  0.70410500  1
  C  666  1  0.31227300  0.72109300  0.69222900  1
  C  668  1  0.24344900  0.76321300  0.71098200  1
  C  669  1  0.18498400  0.78079500  0.73538900  1
  C  670  1  0.19810700  0.75822500  0.74055700  1
  C  673  1  0.22755600  0.74942900  0.72870900  1
  C  677  1  0.20230500  0.79398600  0.71790900  1
  C  681  1  0.10700800  0.32665200  0.30885600  1
  C  682  1  0.11941400  0.34120000  0.32677600  1
  C  683  1  0.15527100  0.34076900  0.32704700  1
  C  684  1  0.16749400  0.32596000  0.30927600  1
  C  685  1  0.20410800  0.32335500  0.30657200  1
  C  686  1  0.22758500  0.33582600  0.32146100  1
  C  687  1  0.21348100  0.35019400  0.33948200  1
  C  688  1  0.17758100  0.35294900  0.34223500  1
  C  689  1  0.09730150  0.35452600  0.34110200  1
  C  690  1  0.06143750  0.35325400  0.33727200  1
  C  691  1  0.04709450  0.33856200  0.31958900  1
  C  692  1  0.07043150  0.32544600  0.30515000  1
  C  693  1  0.13757600  0.32114900  0.27042000  1
  C  694  1  0.13706100  0.30048600  0.25723400  1
  C  695  1  0.13636800  0.28148000  0.27240300  1
  C  696  1  0.13663100  0.28936600  0.29569100  1
  C  697  1  0.13643800  0.25753000  0.26676100  1
  C  698  1  0.13702200  0.24103000  0.28498200  1
  C  699  1  0.13730700  0.24792000  0.30896400  1
  C  700  1  0.13731800  0.27246900  0.31405900  1
  C  701  1  0.13903700  0.34289500  0.25840700  1
  C  702  1  0.14057000  0.34392200  0.23335400  1
  C  703  1  0.14071300  0.32243500  0.22084500  1
  C  704  1  0.13859200  0.30078600  0.23257700  1
  C  717  1  0.13717500  0.31568600  0.29614600  1
  C  718  1  0.13970400  0.23055300  0.32637000  1
  C  719  1  0.14416200  0.36554300  0.22189900  1
  C  720  1  0.01117350  0.33951600  0.31590800  1
  C  721  1  0.26369100  0.33327700  0.32068800  1
  C  726  1  0.10700600  0.93310500  0.91575400  1
  C  727  1  0.11939500  0.91852800  0.89784800  1
  C  728  1  0.15525800  0.91893200  0.89758600  1
  C  729  1  0.16749500  0.93375400  0.91533900  1
  C  730  1  0.20411200  0.93634900  0.91803800  1
  C  731  1  0.22758100  0.92385800  0.90315500  1
  C  732  1  0.21346600  0.90946200  0.88516300  1
  C  733  1  0.17756100  0.90673000  0.88240800  1
  C  734  1  0.09727250  0.90515600  0.88357200  1
  C  735  1  0.06140850  0.90643600  0.88741400  1
  C  736  1  0.04708150  0.92116200  0.90507600  1
  C  737  1  0.07043350  0.93427900  0.91950000  1
  C  738  1  0.13758500  0.93857900  0.95419500  1
  C  739  1  0.13712000  0.95924600  0.96738100  1
  C  740  1  0.13638600  0.97825000  0.95221400  1
  C  741  1  0.13664400  0.97036600  0.92892600  1
  C  742  1  0.13643300  0.00219930  0.95785900  1
  C  743  1  0.13699300  0.01870330  0.93963900  1
  C  744  1  0.13726700  0.01181630  0.91565600  1
  C  745  1  0.13730400  0.98726600  0.91056100  1
  C  746  1  0.13900400  0.91683500  0.96621200  1
  C  747  1  0.14050600  0.91580800  0.99126600  1
  C  748  1  0.14064600  0.93729500  0.00377553  1
  C  749  1  0.13859400  0.95894400  0.99203900  1
  C  762  1  0.13718300  0.94404600  0.92847000  1
  C  763  1  0.13968200  0.02919330  0.89826200  1
  C  764  1  0.14405000  0.89418700  0.00272753  1
  C  765  1  0.01117050  0.92021100  0.90878100  1
  C  766  1  0.26369400  0.92639200  0.90393600  1
  C  771  1  0.10693000  0.93336300  0.30910100  1
  C  772  1  0.11930400  0.91544200  0.32365800  1
  C  773  1  0.15516300  0.91517200  0.32325900  1
  C  774  1  0.16741800  0.93291500  0.30843100  1
  C  775  1  0.20403800  0.93559600  0.30583300  1
  C  776  1  0.22749000  0.92070200  0.31832400  1
  C  777  1  0.21334800  0.90274200  0.33275000  1
  C  778  1  0.17744400  0.90000200  0.33548100  1
  C  779  1  0.09717850  0.90117000  0.33703200  1
  C  780  1  0.06132050  0.90500200  0.33573600  1
  C  781  1  0.04699850  0.92266300  0.32100900  1
  C  782  1  0.07035550  0.93708200  0.30788600  1
  C  783  1  0.13754400  0.97178100  0.30360100  1
  C  784  1  0.13700800  0.98496400  0.28293500  1
  C  785  1  0.13630800  0.96979400  0.26393300  1
  C  786  1  0.13660000  0.94650600  0.27181900  1
  C  787  1  0.13636300  0.97543400  0.23998200  1
  C  788  1  0.13693800  0.95721100  0.22348400  1
  C  789  1  0.13723000  0.93322800  0.23037200  1
  C  790  1  0.13725600  0.92813800  0.25492200  1
  C  791  1  0.13898800  0.98379800  0.32534500  1
  C  792  1  0.14050000  0.00885130  0.32636900  1
  C  793  1  0.14063600  0.02135830  0.30488200  1
  C  794  1  0.13854600  0.00962130  0.28323300  1
  C  807  1  0.13711800  0.94605400  0.29813900  1
  C  808  1  0.13966400  0.91582900  0.21299700  1
  C  809  1  0.14408700  0.02030830  0.34798900  1
  C  810  1  0.01107650  0.92634600  0.32194300  1
  C  811  1  0.26359900  0.92146700  0.31581300  1
  C  816  1  0.10696200  0.32639700  0.91554200  1
  C  817  1  0.11936400  0.34432500  0.90099800  1
  C  818  1  0.15522400  0.34459400  0.90142400  1
  C  819  1  0.16744700  0.32682700  0.91623400  1
  C  820  1  0.20406000  0.32412300  0.91884000  1
  C  821  1  0.22754000  0.33901200  0.90636800  1
  C  822  1  0.21343700  0.35702800  0.89199700  1
  C  823  1  0.17753600  0.35978500  0.88924700  1
  C  824  1  0.09725150  0.35863500  0.88765700  1
  C  825  1  0.06138750  0.35479800  0.88892100  1
  C  826  1  0.04705050  0.33710900  0.90360900  1
  C  827  1  0.07038650  0.32268400  0.91674100  1
  C  828  1  0.13753800  0.28796700  0.92104100  1
  C  829  1  0.13705000  0.27478000  0.94170600  1
  C  830  1  0.13629500  0.28994600  0.96071200  1
  C  831  1  0.13657400  0.31323400  0.95282800  1
  C  832  1  0.13641200  0.28430300  0.98466100  1
  C  833  1  0.13700300  0.30252300  0.00116253  1
  C  834  1  0.13727700  0.32650400  0.99427700  1
  C  835  1  0.13726600  0.33160100  0.96972700  1
  C  836  1  0.13900300  0.27595400  0.89929700  1
  C  837  1  0.14050600  0.25090100  0.89826900  1
  C  838  1  0.14059700  0.23838800  0.91975300  1
  C  839  1  0.13850900  0.25012200  0.94140500  1
  C  852  1  0.13712800  0.31369200  0.92651000  1
  C  853  1  0.13968600  0.34390200  0.01165150  1
  C  854  1  0.14406300  0.23944300  0.87664500  1
  C  855  1  0.01112350  0.33343800  0.90268100  1
  C  856  1  0.26364700  0.33822800  0.90891100  1
  C  861  1  0.60651100  0.82622100  0.80946800  1
  C  862  1  0.61893200  0.84095200  0.82723600  1
  C  863  1  0.65477300  0.84127100  0.82688900  1
  C  864  1  0.66703200  0.82662200  0.80900200  1
  C  865  1  0.70359700  0.82544300  0.80518000  1
  C  866  1  0.72701400  0.83862400  0.81950500  1
  C  867  1  0.71277100  0.85342300  0.83713700  1
  C  868  1  0.67694800  0.85470400  0.84106500  1
  C  869  1  0.59683000  0.85312000  0.84257000  1
  C  870  1  0.56090600  0.85046300  0.83995400  1
  C  871  1  0.54656800  0.83622300  0.82191900  1
  C  872  1  0.56985000  0.82373100  0.80689700  1
  C  873  1  0.63647000  0.82125300  0.77056500  1
  C  874  1  0.63650100  0.80057100  0.75740000  1
  C  875  1  0.63640500  0.78157200  0.77257700  1
  C  876  1  0.63689700  0.78946800  0.79586000  1
  C  877  1  0.63671700  0.75762400  0.76692900  1
  C  878  1  0.63754500  0.74112300  0.78514200  1
  C  879  1  0.63787300  0.74800800  0.80912500  1
  C  880  1  0.63782400  0.77256100  0.81422000  1
  C  881  1  0.63778200  0.84298700  0.75851300  1
  C  882  1  0.63957400  0.84398200  0.73346100  1
  C  883  1  0.63998200  0.82248200  0.72098200  1
  C  884  1  0.63808900  0.80084100  0.73274500  1
  C  897  1  0.63670100  0.81579800  0.79630600  1
  C  898  1  0.64026900  0.73061500  0.82651000  1
  C  899  1  0.64332100  0.86557900  0.72197700  1
  C  900  1  0.51043600  0.83378100  0.82131100  1
  C  901  1  0.76291500  0.83960800  0.81573100  1
  C  906  1  0.60656300  0.43354300  0.41519400  1
  C  907  1  0.61902600  0.41880800  0.39744000  1
  C  908  1  0.65486400  0.41851300  0.39779200  1
  C  909  1  0.66708700  0.43312200  0.41571900  1
  C  910  1  0.70365700  0.43436100  0.41951300  1
  C  911  1  0.72709200  0.42116300  0.40521200  1
  C  912  1  0.71286400  0.40634200  0.38759200  1
  C  913  1  0.67705200  0.40506600  0.38364200  1
  C  914  1  0.59696800  0.40659800  0.38211700  1
  C  915  1  0.56104100  0.40923300  0.38471200  1
  C  916  1  0.54664900  0.42350500  0.40270500  1
  C  917  1  0.56989700  0.43601500  0.41773700  1
  C  918  1  0.63643800  0.43852100  0.45411600  1
  C  919  1  0.63639700  0.45920500  0.46727700  1
  C  920  1  0.63637300  0.47820000  0.45209400  1
  C  921  1  0.63693800  0.47030100  0.42881300  1
  C  922  1  0.63666200  0.50215000  0.45773900  1
  C  923  1  0.63754300  0.51864800  0.43952500  1
  C  924  1  0.63793100  0.51175900  0.41554500  1
  C  925  1  0.63788900  0.48720600  0.41045200  1
  C  926  1  0.63776900  0.41678900  0.46616900  1
  C  927  1  0.63957100  0.41579600  0.49121900  1
  C  928  1  0.63997500  0.43729900  0.50369400  1
  C  929  1  0.63803200  0.45893700  0.49193200  1
  C  942  1  0.63673300  0.44397000  0.42837400  1
  C  943  1  0.64030500  0.52915200  0.39815700  1
  C  944  1  0.64341400  0.39420600  0.50270100  1
  C  945  1  0.51050100  0.42585800  0.40330000  1
  C  946  1  0.76300900  0.42022100  0.40894500  1
  C  951  1  0.60655300  0.43274300  0.80869900  1
  C  952  1  0.61901000  0.41500900  0.82345800  1
  C  953  1  0.65484800  0.41537800  0.82376800  1
  C  954  1  0.66707400  0.43326600  0.80910900  1
  C  955  1  0.70363900  0.43705700  0.80785500  1
  C  956  1  0.72708200  0.42274200  0.82102800  1
  C  957  1  0.71286700  0.40513300  0.83586600  1
  C  958  1  0.67705000  0.40120800  0.83718600  1
  C  959  1  0.59694700  0.39969200  0.83567600  1
  C  960  1  0.56102000  0.40227700  0.83302600  1
  C  961  1  0.54663600  0.42023800  0.81871500  1
  C  962  1  0.56988700  0.43527100  0.80620400  1
  C  963  1  0.63643300  0.47166100  0.80370800  1
  C  964  1  0.63642300  0.48481800  0.78302000  1
  C  965  1  0.63635000  0.46963200  0.76402900  1
  C  966  1  0.63690700  0.44635300  0.77193000  1
  C  967  1  0.63662100  0.47527500  0.74007900  1
  C  968  1  0.63749600  0.45705900  0.72358300  1
  C  969  1  0.63791500  0.43307800  0.73047300  1
  C  970  1  0.63786800  0.42798800  0.75502800  1
  C  971  1  0.63776400  0.48372200  0.82543700  1
  C  972  1  0.63957400  0.50877100  0.82642100  1
  C  973  1  0.63993800  0.52124300  0.80491500  1
  C  974  1  0.63796200  0.50947700  0.78328200  1
  C  987  1  0.63672000  0.44592000  0.79826200  1
  C  988  1  0.64033100  0.41569400  0.71307800  1
  C  989  1  0.64341400  0.52026400  0.84800500  1
  C  990  1  0.51050400  0.42082600  0.81631500  1
  C  991  1  0.76298500  0.42651100  0.82197200  1
  C  996  1  0.60662600  0.82699300  0.41601600  1
  C  997  1  0.61909400  0.84473300  0.40126900  1
  C  998  1  0.65492900  0.84437800  0.40097600  1
  C  999  1  0.66714900  0.82648900  0.41563500  1
  C  1000  1  0.70371100  0.82265200  0.41683200  1
  C  1001  1  0.72715200  0.83694300  0.40363000  1
  C  1002  1  0.71293500  0.85453600  0.38877300  1
  C  1003  1  0.67712300  0.85848900  0.38749000  1
  C  1004  1  0.59704100  0.86005400  0.38905300  1
  C  1005  1  0.56111100  0.85746900  0.39169700  1
  C  1006  1  0.54671400  0.83948700  0.40597900  1
  C  1007  1  0.56996000  0.82445400  0.41849200  1
  C  1008  1  0.63652200  0.78807600  0.42099100  1
  C  1009  1  0.63651400  0.77490700  0.44167200  1
  C  1010  1  0.63642800  0.79008200  0.46067400  1
  C  1011  1  0.63697000  0.81336500  0.45278200  1
  C  1012  1  0.63670100  0.78443000  0.48462000  1
  C  1013  1  0.63755000  0.80264100  0.50112400  1
  C  1014  1  0.63791200  0.82662400  0.49424400  1
  C  1015  1  0.63788900  0.83172300  0.46969300  1
  C  1016  1  0.63782400  0.77603000  0.39925600  1
  C  1017  1  0.63956600  0.75097800  0.39825200  1
  C  1018  1  0.63994100  0.73849400  0.41974900  1
  C  1019  1  0.63805800  0.75025000  0.44139300  1
  C  1032  1  0.63679000  0.81381600  0.42645100  1
  C  1033  1  0.64029700  0.84400700  0.51164100  1
  C  1034  1  0.64329500  0.73950000  0.37665100  1
  C  1035  1  0.51057100  0.83889400  0.40833200  1
  C  1036  1  0.76305300  0.83317400  0.40267800  1
  C  1041  1  0.14283900  0.06506230  0.34746800  1
  C  1042  1  0.16565200  0.08081830  0.35889100  1
  C  1044  1  0.13745400  0.11440200  0.34235000  1
  C  1045  1  0.11352100  0.09939930  0.33066400  1
  C  1046  1  0.11614000  0.07481930  0.33346600  1
  C  1048  1  0.13438100  0.13901200  0.33937100  1
  C  1049  1  0.12865200  0.18779400  0.33060600  1
  C  1050  1  0.10510500  0.17186600  0.32017300  1
  C  1053  1  0.10762800  0.14758300  0.32451900  1
  C  1057  1  0.15436700  0.17847800  0.34571100  1
  C  1061  1  0.14282600  0.19469900  0.87720300  1
  C  1062  1  0.16565900  0.17895000  0.86578400  1
  C  1064  1  0.13745200  0.14535900  0.88230600  1
  C  1065  1  0.11349000  0.16035500  0.89397600  1
  C  1066  1  0.11610400  0.18493700  0.89118100  1
  C  1068  1  0.13438400  0.12074800  0.88527800  1
  C  1069  1  0.12860000  0.07193830  0.89398400  1
  C  1070  1  0.10509400  0.08788330  0.90444200  1
  C  1073  1  0.10760500  0.11216800  0.90010300  1
  C  1077  1  0.15439900  0.08129030  0.87895900  1
  C  1081  1  0.14278700  0.89469900  0.04748650  1
  C  1082  1  0.16556000  0.88323500  0.06323950  1
  C  1084  1  0.13741800  0.89981000  0.09683050  1
  C  1085  1  0.11351800  0.91153300  0.08182950  1
  C  1086  1  0.11613000  0.90873200  0.05724950  1
  C  1088  1  0.13435800  0.90279500  0.12144400  1
  C  1089  1  0.12867300  0.91158000  0.17022400  1
  C  1090  1  0.10515700  0.92204600  0.15429700  1
  C  1093  1  0.10765700  0.91768900  0.13001600  1
  C  1097  1  0.15433400  0.89643100  0.16090800  1
  C  1101  1  0.14290100  0.36499400  0.17715500  1
  C  1102  1  0.16570900  0.37642700  0.16139900  1
  C  1104  1  0.13750300  0.35989000  0.12781600  1
  C  1105  1  0.11356300  0.34820600  0.14282200  1
  C  1106  1  0.11619000  0.35100300  0.16740100  1
  C  1108  1  0.13442500  0.35691200  0.10320700  1
  C  1109  1  0.12863900  0.34819100  0.05439950  1
  C  1110  1  0.10515400  0.33772100  0.07035350  1
  C  1113  1  0.10766500  0.34206900  0.09463650  1
  C  1117  1  0.15441800  0.36323400  0.06374150  1
  C  1121  1  0.64258600  0.56504200  0.84743700  1
  C  1122  1  0.66545400  0.58073500  0.85890000  1
  C  1124  1  0.63749800  0.61441200  0.84234900  1
  C  1125  1  0.61352100  0.59947300  0.83061500  1
  C  1126  1  0.61599700  0.57488300  0.83340000  1
  C  1128  1  0.63454300  0.63903500  0.83939400  1
  C  1129  1  0.62902800  0.68785200  0.83069400  1
  C  1130  1  0.60544900  0.67197500  0.82020900  1
  C  1133  1  0.60786500  0.64768000  0.82452200  1
  C  1137  1  0.65466300  0.67846400  0.84581500  1
  C  1141  1  0.64253400  0.69473600  0.37725200  1
  C  1142  1  0.66545700  0.67905900  0.36581100  1
  C  1144  1  0.63749000  0.64536600  0.38232800  1
  C  1145  1  0.61345900  0.66029000  0.39403000  1
  C  1146  1  0.61591400  0.68488000  0.39125200  1
  C  1148  1  0.63455300  0.62074000  0.38527500  1
  C  1149  1  0.62900400  0.57189500  0.39391900  1
  C  1150  1  0.60544400  0.58778100  0.40441200  1
  C  1153  1  0.60783700  0.61208000  0.40010600  1
  C  1157  1  0.65473400  0.58132600  0.37888800  1
  C  1161  1  0.64256300  0.39473900  0.54748600  1
  C  1162  1  0.66538700  0.38322200  0.56317100  1
  C  1164  1  0.63749000  0.39980300  0.59686000  1
  C  1165  1  0.61356000  0.41158800  0.58192700  1
  C  1166  1  0.61602900  0.40881600  0.55733700  1
  C  1168  1  0.63455800  0.40275700  0.62148500  1
  C  1169  1  0.62912700  0.41148300  0.67030100  1
  C  1170  1  0.60557900  0.42201000  0.65443300  1
  C  1173  1  0.60795100  0.41768500  0.63013800  1
  C  1177  1  0.65468200  0.39630200  0.66090600  1
  C  1181  1  0.64257300  0.86495800  0.67721500  1
  C  1182  1  0.66549100  0.87639200  0.66153000  1
  C  1184  1  0.63752400  0.85985700  0.62784700  1
  C  1185  1  0.61349800  0.84816100  0.64277900  1
  C  1186  1  0.61595300  0.85095100  0.66736900  1
  C  1188  1  0.63457900  0.85690100  0.60322400  1
  C  1189  1  0.62901500  0.84824400  0.55438200  1
  C  1190  1  0.60546200  0.83775300  0.57027800  1
  C  1193  1  0.60786300  0.84206600  0.59457300  1
  C  1197  1  0.65474700  0.86327700  0.56380300  1
  C  1201  1  0.81507700  0.40996200  0.38614400  1
  C  1202  1  0.82821100  0.41558700  0.36369700  1
  C  1204  1  0.87255700  0.38632900  0.36634700  1
  C  1205  1  0.86073000  0.38010600  0.38910700  1
  C  1206  1  0.83187800  0.39191900  0.39886400  1
  C  1208  1  0.90057000  0.37369700  0.35639900  1
  C  1209  1  0.95872100  0.34941900  0.33837400  1
  C  1210  1  0.94545200  0.34373000  0.36077500  1
  C  1213  1  0.91618800  0.35558400  0.36981600  1
  C  1217  1  0.94165000  0.36719600  0.32546800  1
  C  1221  1  0.81499600  0.84986100  0.83849100  1
  C  1222  1  0.82805500  0.84424700  0.86096500  1
  C  1224  1  0.87249700  0.87344100  0.85829400  1
  C  1225  1  0.86071100  0.87965600  0.83552200  1
  C  1226  1  0.83185700  0.86786000  0.82575200  1
  C  1228  1  0.90054900  0.88604200  0.86823600  1
  C  1229  1  0.95873200  0.91033900  0.88629700  1
  C  1230  1  0.94550400  0.91594700  0.86385900  1
  C  1233  1  0.91622000  0.90412500  0.85481100  1
  C  1237  1  0.94164200  0.89252200  0.89915000  1
  C  1241  1  0.81505400  0.85604600  0.39241800  1
  C  1242  1  0.82814900  0.87850800  0.39802000  1
  C  1244  1  0.87249200  0.87587500  0.36876100  1
  C  1245  1  0.86067200  0.85311400  0.36253100  1
  C  1246  1  0.83184400  0.84334200  0.37435800  1
  C  1248  1  0.90049400  0.88583000  0.35612500  1
  C  1249  1  0.95862800  0.90387400  0.33184100  1
  C  1250  1  0.94536800  0.88147200  0.32615000  1
  C  1253  1  0.91611300  0.87242200  0.33800500  1
  C  1257  1  0.94155900  0.91677000  0.34962800  1
  C  1261  1  0.81504600  0.40373500  0.83224300  1
  C  1262  1  0.82807900  0.38124600  0.82665200  1
  C  1264  1  0.87247600  0.38390300  0.85587600  1
  C  1265  1  0.86071700  0.40668900  0.86206700  1
  C  1266  1  0.83189300  0.41647100  0.85024600  1
  C  1268  1  0.90050000  0.37395500  0.86849800  1
  C  1269  1  0.95866100  0.35588800  0.89280800  1
  C  1270  1  0.94544600  0.37833400  0.89840200  1
  C  1273  1  0.91617000  0.38738400  0.88657400  1
  C  1277  1  0.94156400  0.34302700  0.87500400  1
  C  1281  1  0.45953100  0.85007000  0.38523700  1
  C  1282  1  0.44667300  0.84491900  0.36260900  1
  C  1284  1  0.40179100  0.87378100  0.36582600  1
  C  1285  1  0.41339700  0.87956300  0.38874800  1
  C  1286  1  0.44235800  0.86771400  0.39830000  1
  C  1288  1  0.37364400  0.88646900  0.35611600  1
  C  1289  1  0.31521100  0.91078200  0.33850800  1
  C  1290  1  0.32823600  0.91600800  0.36108300  1
  C  1293  1  0.35767300  0.90416700  0.36990200  1
  C  1297  1  0.33264100  0.89341300  0.32525400  1
  C  1301  1  0.45943800  0.40963000  0.83935200  1
  C  1302  1  0.44660300  0.41478100  0.86199200  1
  C  1304  1  0.40168200  0.38594500  0.85874900  1
  C  1305  1  0.41329800  0.38016400  0.83582900  1
  C  1306  1  0.44225400  0.39201400  0.82626900  1
  C  1308  1  0.37350700  0.37326700  0.86844600  1
  C  1309  1  0.31510500  0.34884300  0.88608900  1
  C  1310  1  0.32815400  0.34369700  0.86349300  1
  C  1313  1  0.35756900  0.35555600  0.85466500  1
  C  1317  1  0.33246400  0.36630600  0.89927400  1
  C  1321  1  0.45945100  0.40278700  0.39211100  1
  C  1322  1  0.44654000  0.38017300  0.39727000  1
  C  1324  1  0.40166900  0.38341300  0.36840700  1
  C  1325  1  0.41336300  0.40630300  0.36258400  1
  C  1326  1  0.44233800  0.41583900  0.37443300  1
  C  1328  1  0.37350800  0.37371900  0.35571800  1
  C  1329  1  0.31513000  0.35611600  0.33132700  1
  C  1330  1  0.32823700  0.37866600  0.32607800  1
  C  1333  1  0.35763700  0.38748400  0.33796200  1
  C  1337  1  0.33244900  0.34289000  0.34877000  1
  C  1341  1  0.45956800  0.85697600  0.83246900  1
  C  1342  1  0.44666000  0.87959400  0.82730200  1
  C  1344  1  0.40183800  0.87635700  0.85621400  1
  C  1345  1  0.41352700  0.85345800  0.86201600  1
  C  1346  1  0.44247000  0.84391200  0.85014000  1
  C  1348  1  0.37364600  0.88603200  0.86889300  1
  C  1349  1  0.31518100  0.90361400  0.89330000  1
  C  1350  1  0.32830400  0.88104400  0.89846800  1
  C  1353  1  0.35775300  0.87224800  0.88662000  1
  C  1357  1  0.33250200  0.91680500  0.87582000  1
  C  1361  1  0.23720600  0.44947200  0.46676600  1
  C  1362  1  0.24961200  0.46402000  0.48468600  1
  C  1363  1  0.28546900  0.46358900  0.48495700  1
  C  1364  1  0.29769200  0.44878000  0.46718600  1
  C  1365  1  0.33430600  0.44617500  0.46448200  1
  C  1366  1  0.35778300  0.45864600  0.47937100  1
  C  1367  1  0.34367900  0.47301400  0.49739200  1
  C  1368  1  0.30777900  0.47576900  0.50014500  1
  C  1369  1  0.22749900  0.47734600  0.49901200  1
  C  1370  1  0.19163500  0.47607400  0.49518200  1
  C  1371  1  0.17729200  0.46138200  0.47749900  1
  C  1372  1  0.20062900  0.44826600  0.46306000  1
  C  1373  1  0.26777400  0.44396900  0.42833000  1
  C  1374  1  0.26725900  0.42330600  0.41514400  1
  C  1375  1  0.26656600  0.40430000  0.43031300  1
  C  1376  1  0.26682900  0.41218600  0.45360100  1
  C  1377  1  0.26663600  0.38035000  0.42467100  1
  C  1378  1  0.26722000  0.36385000  0.44289200  1
  C  1379  1  0.26750500  0.37074000  0.46687400  1
  C  1380  1  0.26751600  0.39528900  0.47196900  1
  C  1381  1  0.26923500  0.46571500  0.41631700  1
  C  1382  1  0.27076800  0.46674200  0.39126400  1
  C  1383  1  0.27091100  0.44525500  0.37875500  1
  C  1384  1  0.26879000  0.42360600  0.39048700  1
  C  1397  1  0.26737300  0.43850600  0.45405600  1
  C  1398  1  0.26990200  0.35337300  0.48428000  1
  C  1399  1  0.27436000  0.48836300  0.37980900  1
  C  1400  1  0.14137100  0.46233600  0.47381800  1
  C  1401  1  0.39388900  0.45609700  0.47859800  1
  C  1406  1  0.23720400  0.05592460  0.07366410  1
  C  1407  1  0.24959300  0.04134760  0.05575810  1
  C  1408  1  0.28545600  0.04175160  0.05549610  1
  C  1409  1  0.29769300  0.05657360  0.07324910  1
  C  1410  1  0.33431000  0.05916860  0.07594810  1
  C  1411  1  0.35777900  0.04667760  0.06106510  1
  C  1412  1  0.34366400  0.03228160  0.04307310  1
  C  1413  1  0.30775900  0.02954960  0.04031810  1
  C  1414  1  0.22747000  0.02797560  0.04148210  1
  C  1415  1  0.19160600  0.02925560  0.04532410  1
  C  1416  1  0.17727900  0.04398160  0.06298610  1
  C  1417  1  0.20063100  0.05709860  0.07741010  1
  C  1418  1  0.26778300  0.06139860  0.11210500  1
  C  1419  1  0.26731800  0.08206560  0.12529100  1
  C  1420  1  0.26658400  0.10107000  0.11012400  1
  C  1421  1  0.26684200  0.09318560  0.08683610  1
  C  1422  1  0.26663100  0.12501900  0.11576900  1
  C  1423  1  0.26719100  0.14152300  0.09754910  1
  C  1424  1  0.26746500  0.13463600  0.07356610  1
  C  1425  1  0.26750200  0.11008600  0.06847110  1
  C  1426  1  0.26920200  0.03965460  0.12412200  1
  C  1427  1  0.27070400  0.03862760  0.14917600  1
  C  1428  1  0.27084400  0.06011460  0.16168600  1
  C  1429  1  0.26879200  0.08176360  0.14994900  1
  C  1442  1  0.26738100  0.06686560  0.08638010  1
  C  1443  1  0.26988000  0.15201300  0.05617210  1
  C  1444  1  0.27424800  0.01700660  0.16063800  1
  C  1445  1  0.14136800  0.04303060  0.06669110  1
  C  1446  1  0.39389200  0.04921160  0.06184610  1
  C  1451  1  0.23712800  0.05618260  0.46701100  1
  C  1452  1  0.24950200  0.03826160  0.48156800  1
  C  1453  1  0.28536100  0.03799160  0.48116900  1
  C  1454  1  0.29761600  0.05573460  0.46634100  1
  C  1455  1  0.33423600  0.05841560  0.46374300  1
  C  1456  1  0.35768800  0.04352160  0.47623400  1
  C  1457  1  0.34354600  0.02556160  0.49066000  1
  C  1458  1  0.30764200  0.02282160  0.49339100  1
  C  1459  1  0.22737600  0.02398960  0.49494200  1
  C  1460  1  0.19151800  0.02782160  0.49364600  1
  C  1461  1  0.17719600  0.04548260  0.47891900  1
  C  1462  1  0.20055300  0.05990160  0.46579600  1
  C  1463  1  0.26774200  0.09460060  0.46151100  1
  C  1464  1  0.26720600  0.10778400  0.44084500  1
  C  1465  1  0.26650600  0.09261360  0.42184300  1
  C  1466  1  0.26679800  0.06932560  0.42972900  1
  C  1467  1  0.26656100  0.09825360  0.39789200  1
  C  1468  1  0.26713600  0.08003060  0.38139400  1
  C  1469  1  0.26742800  0.05604760  0.38828200  1
  C  1470  1  0.26745400  0.05095760  0.41283200  1
  C  1471  1  0.26918600  0.10661800  0.48325500  1
  C  1472  1  0.27069800  0.13167100  0.48427900  1
  C  1473  1  0.27083400  0.14417800  0.46279200  1
  C  1474  1  0.26874400  0.13244100  0.44114300  1
  C  1487  1  0.26731600  0.06887360  0.45604900  1
  C  1488  1  0.26986200  0.03864860  0.37090700  1
  C  1489  1  0.27428500  0.14312800  0.50589900  1
  C  1490  1  0.14127400  0.04916560  0.47985300  1
  C  1491  1  0.39379700  0.04428660  0.47372300  1
  C  1496  1  0.23716000  0.44921700  0.07345210  1
  C  1497  1  0.24956200  0.46714500  0.05890810  1
  C  1498  1  0.28542200  0.46741400  0.05933410  1
  C  1499  1  0.29764500  0.44964700  0.07414410  1
  C  1500  1  0.33425800  0.44694300  0.07675010  1
  C  1501  1  0.35773800  0.46183200  0.06427810  1
  C  1502  1  0.34363500  0.47984800  0.04990710  1
  C  1503  1  0.30773400  0.48260500  0.04715710  1
  C  1504  1  0.22744900  0.48145500  0.04556710  1
  C  1505  1  0.19158500  0.47761800  0.04683110  1
  C  1506  1  0.17724800  0.45992900  0.06151910  1
  C  1507  1  0.20058400  0.44550400  0.07465110  1
  C  1508  1  0.26773600  0.41078700  0.07895110  1
  C  1509  1  0.26724800  0.39760000  0.09961610  1
  C  1510  1  0.26649300  0.41276600  0.11862200  1
  C  1511  1  0.26677200  0.43605400  0.11073800  1
  C  1512  1  0.26661000  0.40712300  0.14257100  1
  C  1513  1  0.26720100  0.42534300  0.15907300  1
  C  1514  1  0.26747500  0.44932400  0.15218700  1
  C  1515  1  0.26746400  0.45442100  0.12763700  1
  C  1516  1  0.26920100  0.39877400  0.05720710  1
  C  1517  1  0.27070400  0.37372100  0.05617910  1
  C  1518  1  0.27079500  0.36120800  0.07766310  1
  C  1519  1  0.26870700  0.37294200  0.09931510  1
  C  1532  1  0.26732600  0.43651200  0.08442010  1
  C  1533  1  0.26988400  0.46672200  0.16956200  1
  C  1534  1  0.27426100  0.36226300  0.03455510  1
  C  1535  1  0.14132100  0.45625800  0.06059110  1
  C  1536  1  0.39384500  0.46104800  0.06682110  1
  C  1541  1  0.73670900  0.94904100  0.96737800  1
  C  1542  1  0.74913000  0.96377200  0.98514600  1
  C  1543  1  0.78497100  0.96409100  0.98479900  1
  C  1544  1  0.79723000  0.94944200  0.96691200  1
  C  1545  1  0.83379500  0.94826300  0.96309000  1
  C  1546  1  0.85721200  0.96144400  0.97741500  1
  C  1547  1  0.84296900  0.97624300  0.99504700  1
  C  1548  1  0.80714600  0.97752400  0.99897500  1
  C  1549  1  0.72702800  0.97594000  0.00048006  1
  C  1550  1  0.69110400  0.97328300  0.99786400  1
  C  1551  1  0.67676600  0.95904300  0.97982900  1
  C  1552  1  0.70004800  0.94655100  0.96480700  1
  C  1553  1  0.76666800  0.94407300  0.92847500  1
  C  1554  1  0.76669900  0.92339100  0.91531000  1
  C  1555  1  0.76660300  0.90439200  0.93048700  1
  C  1556  1  0.76709500  0.91228800  0.95377000  1
  C  1557  1  0.76691500  0.88044400  0.92483900  1
  C  1558  1  0.76774300  0.86394300  0.94305200  1
  C  1559  1  0.76807100  0.87082800  0.96703500  1
  C  1560  1  0.76802200  0.89538100  0.97213000  1
  C  1561  1  0.76798000  0.96580700  0.91642300  1
  C  1562  1  0.76977200  0.96680200  0.89137100  1
  C  1563  1  0.77018000  0.94530200  0.87889200  1
  C  1564  1  0.76828700  0.92366100  0.89065500  1
  C  1577  1  0.76689900  0.93861800  0.95421600  1
  C  1578  1  0.77046700  0.85343500  0.98442000  1
  C  1579  1  0.77351900  0.98839900  0.87988700  1
  C  1580  1  0.64063400  0.95660100  0.97922100  1
  C  1581  1  0.89311300  0.96242800  0.97364100  1
  C  1586  1  0.73676100  0.55636300  0.57310400  1
  C  1587  1  0.74922400  0.54162800  0.55535000  1
  C  1588  1  0.78506200  0.54133300  0.55570200  1
  C  1589  1  0.79728500  0.55594200  0.57362900  1
  C  1590  1  0.83385500  0.55718100  0.57742300  1
  C  1591  1  0.85729000  0.54398300  0.56312200  1
  C  1592  1  0.84306200  0.52916200  0.54550200  1
  C  1593  1  0.80725000  0.52788600  0.54155200  1
  C  1594  1  0.72716600  0.52941800  0.54002700  1
  C  1595  1  0.69123900  0.53205300  0.54262200  1
  C  1596  1  0.67684700  0.54632500  0.56061500  1
  C  1597  1  0.70009500  0.55883500  0.57564700  1
  C  1598  1  0.76663600  0.56134100  0.61202600  1
  C  1599  1  0.76659500  0.58202500  0.62518700  1
  C  1600  1  0.76657100  0.60102000  0.61000400  1
  C  1601  1  0.76713600  0.59312100  0.58672300  1
  C  1602  1  0.76686000  0.62497000  0.61564900  1
  C  1603  1  0.76774100  0.64146800  0.59743500  1
  C  1604  1  0.76812900  0.63457900  0.57345500  1
  C  1605  1  0.76808700  0.61002600  0.56836200  1
  C  1606  1  0.76796700  0.53960900  0.62407900  1
  C  1607  1  0.76976900  0.53861600  0.64912900  1
  C  1608  1  0.77017300  0.56011900  0.66160400  1
  C  1609  1  0.76823000  0.58175700  0.64984200  1
  C  1622  1  0.76693100  0.56679000  0.58628400  1
  C  1623  1  0.77050300  0.65197200  0.55606700  1
  C  1624  1  0.77361200  0.51702600  0.66061100  1
  C  1625  1  0.64069900  0.54867800  0.56121000  1
  C  1626  1  0.89320700  0.54304100  0.56685500  1
  C  1631  1  0.73675100  0.55556300  0.96660900  1
  C  1632  1  0.74920800  0.53782900  0.98136800  1
  C  1633  1  0.78504600  0.53819800  0.98167800  1
  C  1634  1  0.79727200  0.55608600  0.96701900  1
  C  1635  1  0.83383700  0.55987700  0.96576500  1
  C  1636  1  0.85728000  0.54556200  0.97893800  1
  C  1637  1  0.84306500  0.52795300  0.99377600  1
  C  1638  1  0.80724800  0.52402800  0.99509600  1
  C  1639  1  0.72714500  0.52251200  0.99358600  1
  C  1640  1  0.69121800  0.52509700  0.99093600  1
  C  1641  1  0.67683400  0.54305800  0.97662500  1
  C  1642  1  0.70008500  0.55809100  0.96411400  1
  C  1643  1  0.76663100  0.59448100  0.96161800  1
  C  1644  1  0.76662100  0.60763800  0.94093000  1
  C  1645  1  0.76654800  0.59245200  0.92193900  1
  C  1646  1  0.76710500  0.56917300  0.92984000  1
  C  1647  1  0.76681900  0.59809500  0.89798900  1
  C  1648  1  0.76769400  0.57987900  0.88149300  1
  C  1649  1  0.76811300  0.55589800  0.88838300  1
  C  1650  1  0.76806600  0.55080800  0.91293800  1
  C  1651  1  0.76796200  0.60654200  0.98334700  1
  C  1652  1  0.76977200  0.63159100  0.98433100  1
  C  1653  1  0.77013600  0.64406300  0.96282500  1
  C  1654  1  0.76816000  0.63229700  0.94119200  1
  C  1667  1  0.76691800  0.56874000  0.95617200  1
  C  1668  1  0.77052900  0.53851400  0.87098800  1
  C  1669  1  0.77361200  0.64308400  0.00591506  1
  C  1670  1  0.64070200  0.54364600  0.97422500  1
  C  1671  1  0.89318300  0.54933100  0.97988200  1
  C  1676  1  0.73682400  0.94981300  0.57392600  1
  C  1677  1  0.74929200  0.96755300  0.55917900  1
  C  1678  1  0.78512700  0.96719800  0.55888600  1
  C  1679  1  0.79734700  0.94930900  0.57354500  1
  C  1680  1  0.83390900  0.94547200  0.57474200  1
  C  1681  1  0.85735000  0.95976300  0.56154000  1
  C  1682  1  0.84313300  0.97735600  0.54668300  1
  C  1683  1  0.80732100  0.98130900  0.54540000  1
  C  1684  1  0.72723900  0.98287400  0.54696300  1
  C  1685  1  0.69130900  0.98028900  0.54960700  1
  C  1686  1  0.67691200  0.96230700  0.56388900  1
  C  1687  1  0.70015800  0.94727400  0.57640200  1
  C  1688  1  0.76672000  0.91089600  0.57890100  1
  C  1689  1  0.76671200  0.89772700  0.59958200  1
  C  1690  1  0.76662600  0.91290200  0.61858400  1
  C  1691  1  0.76716800  0.93618500  0.61069200  1
  C  1692  1  0.76689900  0.90725000  0.64253000  1
  C  1693  1  0.76774800  0.92546100  0.65903400  1
  C  1694  1  0.76811000  0.94944400  0.65215400  1
  C  1695  1  0.76808700  0.95454300  0.62760300  1
  C  1696  1  0.76802200  0.89885000  0.55716600  1
  C  1697  1  0.76976400  0.87379800  0.55616200  1
  C  1698  1  0.77013900  0.86131400  0.57765900  1
  C  1699  1  0.76825600  0.87307000  0.59930300  1
  C  1712  1  0.76698800  0.93663600  0.58436100  1
  C  1713  1  0.77049500  0.96682700  0.66955100  1
  C  1714  1  0.77349300  0.86232000  0.53456100  1
  C  1715  1  0.64076900  0.96171400  0.56624200  1
  C  1716  1  0.89325100  0.95599400  0.56058800  1
  C  1721  1  0.27303700  0.18788200  0.50537800  1
  C  1722  1  0.29585000  0.20363800  0.51680100  1
  C  1724  1  0.26765200  0.23722200  0.50026000  1
  C  1725  1  0.24371900  0.22221900  0.48857400  1
  C  1726  1  0.24633800  0.19763900  0.49137600  1
  C  1728  1  0.26457900  0.26183200  0.49728100  1
  C  1729  1  0.25885000  0.31061400  0.48851600  1
  C  1730  1  0.23530300  0.29468600  0.47808300  1
  C  1733  1  0.23782600  0.27040300  0.48242900  1
  C  1737  1  0.28456500  0.30129800  0.50362100  1
  C  1741  1  0.27302400  0.31751900  0.03511310  1
  C  1742  1  0.29585700  0.30177000  0.02369410  1
  C  1744  1  0.26765000  0.26817900  0.04021610  1
  C  1745  1  0.24368800  0.28317500  0.05188610  1
  C  1746  1  0.24630200  0.30775700  0.04909110  1
  C  1748  1  0.26458200  0.24356800  0.04318810  1
  C  1749  1  0.25879800  0.19475800  0.05189410  1
  C  1750  1  0.23529200  0.21070300  0.06235210  1
  C  1753  1  0.23780300  0.23498800  0.05801310  1
  C  1757  1  0.28459700  0.20411000  0.03686910  1
  C  1761  1  0.27298500  0.01751860  0.20539700  1
  C  1762  1  0.29575800  0.00605460  0.22115000  1
  C  1764  1  0.26761600  0.02262960  0.25474100  1
  C  1765  1  0.24371600  0.03435260  0.23974000  1
  C  1766  1  0.24632800  0.03155160  0.21516000  1
  C  1768  1  0.26455600  0.02561460  0.27935400  1
  C  1769  1  0.25887100  0.03439960  0.32813400  1
  C  1770  1  0.23535500  0.04486560  0.31220700  1
  C  1773  1  0.23785500  0.04050860  0.28792600  1
  C  1777  1  0.28453200  0.01925060  0.31881800  1
  C  1781  1  0.27309900  0.48781400  0.33506500  1
  C  1782  1  0.29590700  0.49924700  0.31930900  1
  C  1784  1  0.26770100  0.48271000  0.28572600  1
  C  1785  1  0.24376100  0.47102600  0.30073200  1
  C  1786  1  0.24638800  0.47382300  0.32531100  1
  C  1788  1  0.26462300  0.47973200  0.26111700  1
  C  1789  1  0.25883700  0.47101100  0.21231000  1
  C  1790  1  0.23535200  0.46054100  0.22826400  1
  C  1793  1  0.23786300  0.46488900  0.25254700  1
  C  1797  1  0.28461600  0.48605400  0.22165200  1
  C  1801  1  0.77278400  0.68786200  0.00534706  1
  C  1802  1  0.79565200  0.70355500  0.01681010  1
  C  1804  1  0.76769600  0.73723200  0.00025906  1
  C  1805  1  0.74371900  0.72229300  0.98852500  1
  C  1806  1  0.74619500  0.69770300  0.99131000  1
  C  1808  1  0.76474100  0.76185500  0.99730400  1
  C  1809  1  0.75922600  0.81067200  0.98860400  1
  C  1810  1  0.73564700  0.79479500  0.97811900  1
  C  1813  1  0.73806300  0.77050000  0.98243200  1
  C  1817  1  0.78486100  0.80128400  0.00372506  1
  C  1821  1  0.77273200  0.81755600  0.53516200  1
  C  1822  1  0.79565500  0.80187900  0.52372100  1
  C  1824  1  0.76768800  0.76818600  0.54023800  1
  C  1825  1  0.74365700  0.78311000  0.55194000  1
  C  1826  1  0.74611200  0.80770000  0.54916200  1
  C  1828  1  0.76475100  0.74356000  0.54318500  1
  C  1829  1  0.75920200  0.69471500  0.55182900  1
  C  1830  1  0.73564200  0.71060100  0.56232200  1
  C  1833  1  0.73803500  0.73490000  0.55801600  1
  C  1837  1  0.78493200  0.70414600  0.53679800  1
  C  1841  1  0.77276100  0.51755900  0.70539600  1
  C  1842  1  0.79558500  0.50604200  0.72108100  1
  C  1844  1  0.76768800  0.52262300  0.75477000  1
  C  1845  1  0.74375800  0.53440800  0.73983700  1
  C  1846  1  0.74622700  0.53163600  0.71524700  1
  C  1848  1  0.76475600  0.52557700  0.77939500  1
  C  1849  1  0.75932500  0.53430300  0.82821100  1
  C  1850  1  0.73577700  0.54483000  0.81234300  1
  C  1853  1  0.73814900  0.54050500  0.78804800  1
  C  1857  1  0.78488000  0.51912200  0.81881600  1
  C  1861  1  0.77277100  0.98777800  0.83512500  1
  C  1862  1  0.79568900  0.99921200  0.81944000  1
  C  1864  1  0.76772200  0.98267700  0.78575700  1
  C  1865  1  0.74369600  0.97098100  0.80068900  1
  C  1866  1  0.74615100  0.97377100  0.82527900  1
  C  1868  1  0.76477700  0.97972100  0.76113400  1
  C  1869  1  0.75921300  0.97106400  0.71229200  1
  C  1870  1  0.73566000  0.96057300  0.72818800  1
  C  1873  1  0.73806100  0.96488600  0.75248300  1
  C  1877  1  0.78494500  0.98609700  0.72171300  1
  C  1881  1  0.94527500  0.53278200  0.54405400  1
  C  1882  1  0.95840900  0.53840700  0.52160700  1
  C  1884  1  0.00275497  0.50914900  0.52425700  1
  C  1885  1  0.99092800  0.50292600  0.54701700  1
  C  1886  1  0.96207600  0.51473900  0.55677400  1
  C  1888  1  0.03076800  0.49651700  0.51430900  1
  C  1889  1  0.08891900  0.47223900  0.49628400  1
  C  1890  1  0.07565000  0.46655000  0.51868500  1
  C  1893  1  0.04638600  0.47840400  0.52772600  1
  C  1897  1  0.07184800  0.49001600  0.48337800  1
  C  1901  1  0.94519400  0.97268100  0.99640100  1
  C  1902  1  0.95825300  0.96706700  0.01887510  1
  C  1904  1  0.00269497  0.99626100  0.01620410  1
  C  1905  1  0.99090900  0.00247560  0.99343200  1
  C  1906  1  0.96205500  0.99068000  0.98366200  1
  C  1908  1  0.03074700  0.00886160  0.02614610  1
  C  1909  1  0.08893000  0.03315860  0.04420710  1
  C  1910  1  0.07570200  0.03876660  0.02176910  1
  C  1913  1  0.04641800  0.02694460  0.01272110  1
  C  1917  1  0.07184000  0.01534160  0.05706010  1
  C  1921  1  0.94525200  0.97886600  0.55032800  1
  C  1922  1  0.95834700  0.00132760  0.55593000  1
  C  1924  1  0.00268997  0.99869500  0.52667100  1
  C  1925  1  0.99087000  0.97593400  0.52044100  1
  C  1926  1  0.96204200  0.96616200  0.53226800  1
  C  1928  1  0.03069200  0.00864960  0.51403500  1
  C  1929  1  0.08882600  0.02669360  0.48975100  1
  C  1930  1  0.07556600  0.00429160  0.48406000  1
  C  1933  1  0.04631100  0.99524200  0.49591500  1
  C  1937  1  0.07175700  0.03958960  0.50753800  1
  C  1941  1  0.94524400  0.52655500  0.99015300  1
  C  1942  1  0.95827700  0.50406600  0.98456200  1
  C  1944  1  0.00267397  0.50672300  0.01378610  1
  C  1945  1  0.99091500  0.52950900  0.01997710  1
  C  1946  1  0.96209100  0.53929100  0.00815606  1
  C  1948  1  0.03069800  0.49677500  0.02640810  1
  C  1949  1  0.08885900  0.47870800  0.05071810  1
  C  1950  1  0.07564400  0.50115400  0.05631210  1
  C  1953  1  0.04636800  0.51020400  0.04448410  1
  C  1957  1  0.07176200  0.46584700  0.03291410  1
  C  1961  1  0.58972900  0.97289000  0.54314700  1
  C  1962  1  0.57687100  0.96773900  0.52051900  1
  C  1964  1  0.53198900  0.99660100  0.52373600  1
  C  1965  1  0.54359500  0.00238260  0.54665800  1
  C  1966  1  0.57255600  0.99053400  0.55621000  1
  C  1968  1  0.50384200  0.00928860  0.51402600  1
  C  1969  1  0.44540900  0.03360160  0.49641800  1
  C  1970  1  0.45843400  0.03882760  0.51899300  1
  C  1973  1  0.48787100  0.02698660  0.52781200  1
  C  1977  1  0.46283900  0.01623260  0.48316400  1
  C  1981  1  0.58963600  0.53245000  0.99726200  1
  C  1982  1  0.57680100  0.53760100  0.01990210  1
  C  1984  1  0.53188000  0.50876500  0.01665910  1
  C  1985  1  0.54349600  0.50298400  0.99373900  1
  C  1986  1  0.57245200  0.51483400  0.98417900  1
  C  1988  1  0.50370500  0.49608700  0.02635610  1
  C  1989  1  0.44530300  0.47166300  0.04399910  1
  C  1990  1  0.45835200  0.46651700  0.02140310  1
  C  1993  1  0.48776700  0.47837600  0.01257510  1
  C  1997  1  0.46266200  0.48912600  0.05718410  1
  C  2001  1  0.58964900  0.52560700  0.55002100  1
  C  2002  1  0.57673800  0.50299300  0.55518000  1
  C  2004  1  0.53186700  0.50623300  0.52631700  1
  C  2005  1  0.54356100  0.52912300  0.52049400  1
  C  2006  1  0.57253600  0.53865900  0.53234300  1
  C  2008  1  0.50370600  0.49653900  0.51362800  1
  C  2009  1  0.44532800  0.47893600  0.48923700  1
  C  2010  1  0.45843500  0.50148600  0.48398800  1
  C  2013  1  0.48783500  0.51030400  0.49587200  1
  C  2017  1  0.46264700  0.46571000  0.50668000  1
  C  2021  1  0.58976600  0.97979600  0.99037900  1
  C  2022  1  0.57685800  0.00241360  0.98521200  1
  C  2024  1  0.53203600  0.99917700  0.01412410  1
  C  2025  1  0.54372500  0.97627800  0.01992610  1
  C  2026  1  0.57266800  0.96673200  0.00805006  1
  C  2028  1  0.50384400  0.00885160  0.02680310  1
  C  2029  1  0.44537900  0.02643360  0.05121010  1
  C  2030  1  0.45850200  0.00386360  0.05637810  1
  C  2033  1  0.48795100  0.99506800  0.04453010  1
  C  2037  1  0.46270000  0.03962460  0.03373010  1
  N  363  1  0.03227100  0.98160100  0.19805500  1
  N  372  1  0.02628100  0.03203600  0.19145700  1
  N  374  1  0.95560500  0.00918100  0.15615500  1
  N  375  1  0.95828400  0.98646500  0.15912900  1
  N  379  1  0.01471900  0.91955500  0.19507300  1
  N  380  1  0.99899400  0.08669100  0.16410900  1
  N  383  1  0.03228500  0.03252700  0.71079400  1
  N  392  1  0.02631200  0.98209200  0.71739200  1
  N  394  1  0.95555800  0.00492500  0.75263400  1
  N  395  1  0.95823200  0.02764300  0.74966900  1
  N  399  1  0.01468900  0.09455900  0.71373400  1
  N  400  1  0.99900000  0.92742400  0.74470000  1
  N  403  1  0.03219300  0.76334300  0.92893300  1
  N  412  1  0.02623000  0.76994900  0.97937400  1
  N  414  1  0.95566200  0.80535400  0.95652500  1
  N  415  1  0.95832600  0.80237600  0.93380700  1
  N  419  1  0.01466400  0.76637600  0.86688400  1
  N  420  1  0.99907300  0.79736500  0.03401800  1
  N  423  1  0.03232400  0.25068500  0.97988600  1
  N  432  1  0.02633500  0.24407900  0.92945300  1
  N  434  1  0.95563900  0.20879600  0.95230900  1
  N  435  1  0.95832100  0.21176700  0.97502500  1
  N  439  1  0.01478400  0.24772600  0.04192400  1
  N  440  1  0.99905400  0.21673200  0.87480100  1
  N  443  1  0.53222100  0.48153200  0.69807700  1
  N  452  1  0.52647400  0.53201100  0.69152900  1
  N  454  1  0.45580300  0.50933500  0.65611300  1
  N  455  1  0.45837000  0.48661000  0.65906200  1
  N  459  1  0.51428200  0.41952100  0.69503400  1
  N  460  1  0.49945300  0.58677400  0.66424900  1
  N  463  1  0.53223700  0.53262100  0.21080700  1
  N  472  1  0.52653400  0.48213900  0.21735200  1
  N  474  1  0.45572500  0.50477300  0.25266900  1
  N  475  1  0.45827400  0.52750200  0.24972600  1
  N  479  1  0.51417800  0.59460800  0.21377900  1
  N  480  1  0.49949700  0.42735800  0.24458700  1
  N  483  1  0.53216100  0.26330700  0.42887800  1
  N  492  1  0.52645800  0.26985100  0.47936100  1
  N  494  1  0.45592500  0.30540900  0.45670700  1
  N  495  1  0.45846900  0.30245800  0.43398000  1
  N  499  1  0.51426900  0.26644200  0.36686600  1
  N  500  1  0.49965100  0.29722600  0.53411500  1
  N  503  1  0.53227100  0.75065400  0.48000300  1
  N  512  1  0.52655500  0.74409200  0.42952400  1
  N  514  1  0.45575600  0.70877800  0.45218200  1
  N  515  1  0.45831300  0.71172900  0.47490900  1
  N  519  1  0.51421700  0.74771500  0.54199200  1
  N  520  1  0.49949200  0.71684100  0.37475500  1
  N  523  1  0.72572000  0.28100900  0.19674900  1
  N  532  1  0.78364300  0.25584700  0.17690800  1
  N  534  1  0.77311000  0.22799600  0.23359500  1
  N  535  1  0.74675800  0.23945900  0.24263700  1
  N  539  1  0.65263000  0.29375700  0.23316500  1
  N  540  1  0.86102700  0.22033200  0.17580200  1
  N  543  1  0.72559500  0.73315900  0.71208500  1
  N  552  1  0.78360400  0.75825600  0.73190700  1
  N  554  1  0.77317200  0.78607300  0.67520200  1
  N  555  1  0.74680200  0.77463300  0.66616000  1
  N  559  1  0.65254400  0.72037000  0.67570300  1
  N  560  1  0.86102400  0.79380000  0.73305400  1
  N  563  1  0.72566600  0.76473000  0.22836100  1
  N  572  1  0.78356200  0.78459000  0.20319000  1
  N  574  1  0.77304200  0.72791300  0.17532100  1
  N  575  1  0.74670000  0.71886300  0.18678800  1
  N  579  1  0.65264800  0.72825800  0.24119500  1
  N  580  1  0.86093300  0.78572200  0.16766400  1
  N  583  1  0.72558500  0.24938400  0.68049900  1
  N  592  1  0.78353600  0.22954400  0.70563600  1
  N  594  1  0.77314900  0.28627400  0.73341000  1
  N  595  1  0.74679900  0.29532200  0.72195200  1
  N  599  1  0.65260400  0.28580400  0.66765400  1
  N  600  1  0.86097700  0.22841900  0.74112500  1
  N  603  1  0.28861100  0.73386400  0.19587000  1
  N  612  1  0.23036300  0.75909000  0.17649100  1
  N  614  1  0.24020200  0.78570800  0.23380700  1
  N  615  1  0.26667800  0.77421200  0.24263700  1
  N  619  1  0.36178200  0.72106100  0.23227600  1
  N  620  1  0.15231600  0.79380700  0.17593600  1
  N  623  1  0.28851500  0.28021200  0.71289300  1
  N  632  1  0.23019100  0.25500600  0.73223900  1
  N  634  1  0.24011600  0.22837200  0.67494400  1
  N  635  1  0.26659000  0.23987500  0.66611600  1
  N  639  1  0.36169600  0.29307300  0.67656200  1
  N  640  1  0.15228600  0.22000400  0.73286400  1
  N  643  1  0.28843200  0.24855500  0.22762200  1
  N  652  1  0.23015100  0.22921200  0.20239200  1
  N  654  1  0.24024900  0.28645100  0.17565600  1
  N  655  1  0.26672000  0.29527100  0.18716300  1
  N  659  1  0.36170700  0.28489700  0.24039800  1
  N  660  1  0.15232100  0.22860300  0.16735300  1
  N  663  1  0.28859300  0.76558100  0.68117200  1
  N  672  1  0.23025700  0.78489000  0.70640000  1
  N  674  1  0.24036700  0.72763900  0.73309400  1
  N  675  1  0.26685800  0.71883500  0.72159300  1
  N  679  1  0.36173000  0.72923900  0.66806500  1
  N  680  1  0.15234700  0.78545000  0.74140100  1
  N  1043  1  0.16246800  0.10442000  0.35596600  1
  N  1052  1  0.15647800  0.15485500  0.34936800  1
  N  1054  1  0.08580250  0.13200000  0.31406600  1
  N  1055  1  0.08848150  0.10928400  0.31704000  1
  N  1059  1  0.14491600  0.04237430  0.35298400  1
  N  1060  1  0.12919100  0.20951000  0.32202000  1
  N  1063  1  0.16248200  0.15534600  0.86870500  1
  N  1072  1  0.15650900  0.10491100  0.87530300  1
  N  1074  1  0.08575550  0.12774400  0.91054500  1
  N  1075  1  0.08842950  0.15046200  0.90758000  1
  N  1079  1  0.14488600  0.21737800  0.87164500  1
  N  1080  1  0.12919700  0.05024330  0.90261100  1
  N  1083  1  0.16239000  0.88616200  0.08684350  1
  N  1092  1  0.15642700  0.89276800  0.13728500  1
  N  1094  1  0.08585950  0.92817300  0.11443600  1
  N  1095  1  0.08852350  0.92519500  0.09171750  1
  N  1099  1  0.14486100  0.88919500  0.02479450  1
  N  1100  1  0.12927000  0.92018400  0.19192900  1
  N  1103  1  0.16252100  0.37350400  0.13779700  1
  N  1112  1  0.15653200  0.36689800  0.08736350  1
  N  1114  1  0.08583650  0.33161500  0.11022000  1
  N  1115  1  0.08851850  0.33458600  0.13293600  1
  N  1119  1  0.14498100  0.37054500  0.19983500  1
  N  1120  1  0.12925100  0.33955100  0.03271150  1
  N  1123  1  0.66241800  0.60435100  0.85598800  1
  N  1132  1  0.65667100  0.65483000  0.84944000  1
  N  1134  1  0.58600000  0.63215400  0.81402400  1
  N  1135  1  0.58856700  0.60942900  0.81697300  1
  N  1139  1  0.64447900  0.54234000  0.85294500  1
  N  1140  1  0.62965000  0.70959300  0.82216000  1
  N  1143  1  0.66243400  0.65544000  0.36871800  1
  N  1152  1  0.65673100  0.60495800  0.37526300  1
  N  1154  1  0.58592200  0.62759200  0.41058000  1
  N  1155  1  0.58847100  0.65032100  0.40763700  1
  N  1159  1  0.64437500  0.71742700  0.37169000  1
  N  1160  1  0.62969400  0.55017700  0.40249800  1
  N  1163  1  0.66235800  0.38612600  0.58678900  1
  N  1172  1  0.65665500  0.39267000  0.63727200  1
  N  1174  1  0.58612200  0.42822800  0.61461800  1
  N  1175  1  0.58866600  0.42527700  0.59189100  1
  N  1179  1  0.64446600  0.38926100  0.52477700  1
  N  1180  1  0.62984800  0.42004500  0.69202600  1
  N  1183  1  0.66246800  0.87347300  0.63791400  1
  N  1192  1  0.65675200  0.86691100  0.58743500  1
  N  1194  1  0.58595300  0.83159700  0.61009300  1
  N  1195  1  0.58851000  0.83454800  0.63282000  1
  N  1199  1  0.64441400  0.87053400  0.69990300  1
  N  1200  1  0.62968900  0.83966000  0.53266600  1
  N  1203  1  0.85591700  0.40382800  0.35466000  1
  N  1212  1  0.91384000  0.37866600  0.33481900  1
  N  1214  1  0.90330700  0.35081500  0.39150600  1
  N  1215  1  0.87695500  0.36227800  0.40054800  1
  N  1219  1  0.78282700  0.41657600  0.39107600  1
  N  1220  1  0.99122400  0.34315100  0.33371300  1
  N  1223  1  0.85579200  0.85597800  0.86999600  1
  N  1232  1  0.91380100  0.88107500  0.88981800  1
  N  1234  1  0.90336900  0.90889200  0.83311300  1
  N  1235  1  0.87699900  0.89745200  0.82407100  1
  N  1239  1  0.78274100  0.84318900  0.83361400  1
  N  1240  1  0.99122100  0.91661900  0.89096500  1
  N  1243  1  0.85586300  0.88754900  0.38627200  1
  N  1252  1  0.91375900  0.90740900  0.36110100  1
  N  1254  1  0.90323900  0.85073200  0.33323200  1
  N  1255  1  0.87689700  0.84168200  0.34469900  1
  N  1259  1  0.78284500  0.85107700  0.39910600  1
  N  1260  1  0.99113000  0.90854100  0.32557500  1
  N  1263  1  0.85578200  0.37220300  0.83841000  1
  N  1272  1  0.91373300  0.35236300  0.86354700  1
  N  1274  1  0.90334600  0.40909300  0.89132100  1
  N  1275  1  0.87699600  0.41814100  0.87986300  1
  N  1279  1  0.78280100  0.40862300  0.82556500  1
  N  1280  1  0.99117400  0.35123800  0.89903600  1
  N  1283  1  0.41880800  0.85668300  0.35378100  1
  N  1292  1  0.36056000  0.88190900  0.33440200  1
  N  1294  1  0.37039900  0.90852700  0.39171800  1
  N  1295  1  0.39687500  0.89703100  0.40054800  1
  N  1299  1  0.49197900  0.84388000  0.39018700  1
  N  1300  1  0.28251300  0.91662600  0.33384700  1
  N  1303  1  0.41871200  0.40303100  0.87080400  1
  N  1312  1  0.36038800  0.37782500  0.89015000  1
  N  1314  1  0.37031300  0.35119100  0.83285500  1
  N  1315  1  0.39678700  0.36269400  0.82402700  1
  N  1319  1  0.49189300  0.41589200  0.83447300  1
  N  1320  1  0.28248300  0.34282300  0.89077500  1
  N  1323  1  0.41862900  0.37137400  0.38553300  1
  N  1332  1  0.36034800  0.35203100  0.36030300  1
  N  1334  1  0.37044600  0.40927000  0.33356700  1
  N  1335  1  0.39691700  0.41809000  0.34507400  1
  N  1339  1  0.49190400  0.40771600  0.39830900  1
  N  1340  1  0.28251800  0.35142200  0.32526400  1
  N  1343  1  0.41879000  0.88840000  0.83908300  1
  N  1352  1  0.36045400  0.90770900  0.86431100  1
  N  1354  1  0.37056400  0.85045800  0.89100500  1
  N  1355  1  0.39705500  0.84165400  0.87950400  1
  N  1359  1  0.49192700  0.85205800  0.82597600  1
  N  1360  1  0.28254400  0.90826900  0.89931200  1
  N  1723  1  0.29266600  0.22724000  0.51387600  1
  N  1732  1  0.28667600  0.27767500  0.50727800  1
  N  1734  1  0.21600000  0.25482000  0.47197600  1
  N  1735  1  0.21867900  0.23210400  0.47495000  1
  N  1739  1  0.27511400  0.16519400  0.51089400  1
  N  1740  1  0.25938900  0.33233000  0.47993000  1
  N  1743  1  0.29268000  0.27816600  0.02661510  1
  N  1752  1  0.28670700  0.22773100  0.03321310  1
  N  1754  1  0.21595300  0.25056400  0.06845510  1
  N  1755  1  0.21862700  0.27328200  0.06549010  1
  N  1759  1  0.27508400  0.34019800  0.02955510  1
  N  1760  1  0.25939500  0.17306300  0.06052110  1
  N  1763  1  0.29258800  0.00898160  0.24475400  1
  N  1772  1  0.28662500  0.01558760  0.29519500  1
  N  1774  1  0.21605700  0.05099260  0.27234600  1
  N  1775  1  0.21872100  0.04801460  0.24962800  1
  N  1779  1  0.27505900  0.01201460  0.18270500  1
  N  1780  1  0.25946800  0.04300360  0.34983900  1
  N  1783  1  0.29271900  0.49632400  0.29570700  1
  N  1792  1  0.28673000  0.48971800  0.24527400  1
  N  1794  1  0.21603400  0.45443500  0.26813000  1
  N  1795  1  0.21871600  0.45740600  0.29084600  1
  N  1799  1  0.27517900  0.49336500  0.35774500  1
  N  1800  1  0.25944900  0.46237100  0.19062200  1
  N  1803  1  0.79261600  0.72717100  0.01389810  1
  N  1812  1  0.78686900  0.77765000  0.00735006  1
  N  1814  1  0.71619800  0.75497400  0.97193400  1
  N  1815  1  0.71876500  0.73224900  0.97488300  1
  N  1819  1  0.77467700  0.66516000  0.01085510  1
  N  1820  1  0.75984800  0.83241300  0.98007000  1
  N  1823  1  0.79263200  0.77826000  0.52662800  1
  N  1832  1  0.78692900  0.72777800  0.53317300  1
  N  1834  1  0.71612000  0.75041200  0.56849000  1
  N  1835  1  0.71866900  0.77314100  0.56554700  1
  N  1839  1  0.77457300  0.84024700  0.52960000  1
  N  1840  1  0.75989200  0.67299700  0.56040800  1
  N  1843  1  0.79255600  0.50894600  0.74469900  1
  N  1852  1  0.78685300  0.51549000  0.79518200  1
  N  1854  1  0.71632000  0.55104800  0.77252800  1
  N  1855  1  0.71886400  0.54809700  0.74980100  1
  N  1859  1  0.77466400  0.51208100  0.68268700  1
  N  1860  1  0.76004600  0.54286500  0.84993600  1
  N  1863  1  0.79266600  0.99629300  0.79582400  1
  N  1872  1  0.78695000  0.98973100  0.74534500  1
  N  1874  1  0.71615100  0.95441700  0.76800300  1
  N  1875  1  0.71870800  0.95736800  0.79073000  1
  N  1879  1  0.77461200  0.99335400  0.85781300  1
  N  1880  1  0.75988700  0.96248000  0.69057600  1
  N  1883  1  0.98611500  0.52664800  0.51257000  1
  N  1892  1  0.04403800  0.50148600  0.49272900  1
  N  1894  1  0.03350500  0.47363500  0.54941600  1
  N  1895  1  0.00715297  0.48509800  0.55845800  1
  N  1899  1  0.91302500  0.53939600  0.54898600  1
  N  1900  1  0.12142200  0.46597100  0.49162300  1
  N  1903  1  0.98599000  0.97879800  0.02790610  1
  N  1912  1  0.04399900  0.00389460  0.04772810  1
  N  1914  1  0.03356700  0.03171160  0.99102300  1
  N  1915  1  0.00719697  0.02027160  0.98198100  1
  N  1919  1  0.91293900  0.96600900  0.99152400  1
  N  1920  1  0.12141900  0.03943860  0.04887510  1
  N  1923  1  0.98606100  0.01036860  0.54418200  1
  N  1932  1  0.04395700  0.03022860  0.51901100  1
  N  1934  1  0.03343700  0.97355200  0.49114200  1
  N  1935  1  0.00709497  0.96450200  0.50260900  1
  N  1939  1  0.91304300  0.97389700  0.55701600  1
  N  1940  1  0.12132800  0.03136060  0.48348500  1
  N  1943  1  0.98598000  0.49502300  0.99632000  1
  N  1952  1  0.04393100  0.47518300  0.02145710  1
  N  1954  1  0.03354400  0.53191300  0.04923110  1
  N  1955  1  0.00719397  0.54096100  0.03777310  1
  N  1959  1  0.91299900  0.53144300  0.98347500  1
  N  1960  1  0.12137200  0.47405800  0.05694610  1
  N  1963  1  0.54900600  0.97950300  0.51169100  1
  N  1972  1  0.49075800  0.00472860  0.49231200  1
  N  1974  1  0.50059700  0.03134660  0.54962800  1
  N  1975  1  0.52707300  0.01985060  0.55845800  1
  N  1979  1  0.62217700  0.96670000  0.54809700  1
  N  1980  1  0.41271100  0.03944560  0.49175700  1
  N  1983  1  0.54891000  0.52585100  0.02871410  1
  N  1992  1  0.49058600  0.50064500  0.04806010  1
  N  1994  1  0.50051100  0.47401100  0.99076500  1
  N  1995  1  0.52698500  0.48551400  0.98193700  1
  N  1999  1  0.62209100  0.53871200  0.99238300  1
  N  2000  1  0.41268100  0.46564300  0.04868510  1
  N  2003  1  0.54882700  0.49419400  0.54344300  1
  N  2012  1  0.49054600  0.47485100  0.51821300  1
  N  2014  1  0.50064400  0.53209000  0.49147700  1
  N  2015  1  0.52711500  0.54091000  0.50298400  1
  N  2019  1  0.62210200  0.53053600  0.55621900  1
  N  2020  1  0.41271600  0.47424200  0.48317400  1
  N  2023  1  0.54898800  0.01121960  0.99699300  1
  N  2032  1  0.49065200  0.03052860  0.02222110  1
  N  2034  1  0.50076200  0.97327800  0.04891510  1
  N  2035  1  0.52725300  0.96447400  0.03741410  1
  N  2039  1  0.62212500  0.97487800  0.98388600  1
  N  2040  1  0.41274200  0.03108860  0.05722210  1
