# generated using pymatgen
data_H32C45N8
_symmetry_space_group_name_H-M   'P 1'
_cell_length_a   36.98130000
_cell_length_b   36.98120000
_cell_length_c   43.79910000
_cell_angle_alpha   89.99900000
_cell_angle_beta   90.00100000
_cell_angle_gamma   90.00000000
_symmetry_Int_Tables_number   1
_chemical_formula_structural   H32C45N8
_chemical_formula_sum   'H512 C720 N128'
_cell_volume   59900.21202851
_cell_formula_units_Z   16
loop_
 _symmetry_equiv_pos_site_id
 _symmetry_equiv_pos_as_xyz
  1  'x, y, z'
loop_
 _atom_site_type_symbol
 _atom_site_label
 _atom_site_symmetry_multiplicity
 _atom_site_fract_x
 _atom_site_fract_y
 _atom_site_fract_z
 _atom_site_occupancy
  H  25  1  0.91265600  0.38042400  0.33848200  1
  H  26  1  0.90660700  0.33835600  0.37815400  1
  H  27  1  0.90646200  0.29059600  0.41352000  1
  H  28  1  0.91706800  0.24064700  0.44486100  1
  H  29  1  0.95875500  0.18169600  0.36957200  1
  H  30  1  0.95277200  0.29863500  0.27967900  1
  H  31  1  0.86612100  0.23759800  0.32564200  1
  H  32  1  0.86023500  0.18793900  0.23903200  1
  H  33  1  0.92503300  0.18294700  0.23746900  1
  H  34  1  0.02149900  0.24166800  0.34066700  1
  H  35  1  0.98966800  0.17558800  0.24837500  1
  H  36  1  0.05089600  0.17690700  0.26494900  1
  H  39  1  0.97899400  0.17137900  0.42620500  1
  H  41  1  0.08260300  0.22222300  0.33406400  1
  H  43  1  0.80889400  0.23603500  0.28731400  1
  H  45  1  0.96680600  0.37359500  0.27839200  1
  H  70  1  0.99064500  0.52059900  0.27464100  1
  H  71  1  0.98978400  0.54053300  0.32707500  1
  H  72  1  0.98240500  0.57107700  0.37715000  1
  H  73  1  0.97257100  0.60851100  0.42021900  1
  H  74  1  0.94435600  0.69585700  0.36234800  1
  H  75  1  0.95376600  0.62319500  0.24604400  1
  H  76  1  0.03313300  0.66025900  0.30325100  1
  H  77  1  0.03106800  0.74194000  0.23608300  1
  H  78  1  0.96658900  0.74559800  0.23979100  1
  H  79  1  0.87936300  0.64003800  0.31912600  1
  H  80  1  0.90176200  0.74134200  0.25066700  1
  H  81  1  0.84144200  0.72543900  0.26332300  1
  H  84  1  0.92100200  0.68660200  0.41908000  1
  H  86  1  0.81669000  0.65407400  0.31780800  1
  H  88  1  0.08566700  0.67590300  0.26484800  1
  H  90  1  0.98140700  0.57686700  0.21091800  1
  H  115  1  0.51609500  0.91742400  0.84851400  1
  H  116  1  0.56212700  0.91271900  0.88571300  1
  H  117  1  0.61515800  0.91634900  0.91859900  1
  H  118  1  0.67220600  0.92600000  0.94367800  1
  H  119  1  0.72035000  0.95183900  0.85883800  1
  H  120  1  0.59341900  0.94693000  0.78167000  1
  H  121  1  0.65874200  0.86334300  0.82258400  1
  H  122  1  0.70590000  0.85891900  0.73484200  1
  H  123  1  0.70912300  0.92386000  0.73331200  1
  H  124  1  0.65440800  0.01781700  0.83969100  1
  H  125  1  0.71614000  0.98870600  0.74473500  1
  H  126  1  0.71629700  0.04936300  0.76297500  1
  H  129  1  0.75535800  0.94795800  0.90584800  1
  H  131  1  0.67393700  0.07867400  0.83432400  1
  H  133  1  0.65979100  0.80641500  0.78338700  1
  H  135  1  0.51686200  0.96545500  0.78872700  1
  H  160  1  0.37051700  0.98908900  0.78437100  1
  H  161  1  0.34752000  0.98660600  0.83589900  1
  H  162  1  0.31405600  0.97722400  0.88457600  1
  H  163  1  0.27382500  0.96649400  0.92572500  1
  H  164  1  0.19006200  0.94084900  0.86342500  1
  H  165  1  0.26983200  0.95287700  0.75075600  1
  H  166  1  0.22899500  0.03014700  0.80722000  1
  H  167  1  0.14849500  0.02902500  0.73892700  1
  H  168  1  0.14586700  0.96430400  0.74117300  1
  H  169  1  0.25014600  0.87646100  0.82143100  1
  H  170  1  0.15177600  0.89913100  0.75003900  1
  H  171  1  0.16828600  0.83871900  0.76187900  1
  H  174  1  0.19472000  0.91672800  0.92015000  1
  H  176  1  0.23784400  0.81359700  0.81802000  1
  H  178  1  0.21425800  0.08304400  0.76901400  1
  H  180  1  0.31820000  0.98215200  0.71831700  1
  H  205  1  0.92107100  0.35035400  0.63524900  1
  H  206  1  0.91742300  0.29723900  0.60473200  1
  H  207  1  0.91729500  0.23652800  0.58100300  1
  H  208  1  0.92496900  0.17468200  0.56591200  1
  H  209  1  0.95166600  0.14642900  0.65671500  1
  H  210  1  0.94327600  0.28679000  0.71335300  1
  H  211  1  0.01659200  0.22537500  0.66547300  1
  H  212  1  0.05288600  0.20021300  0.75463700  1
  H  213  1  0.99196400  0.18968000  0.77038600  1
  H  214  1  0.86297300  0.21111500  0.68269500  1
  H  215  1  0.92565000  0.18170200  0.77742300  1
  H  216  1  0.86061100  0.17943800  0.77532900  1
  H  219  1  0.94647600  0.10129300  0.61695800  1
  H  221  1  0.80689700  0.21681000  0.72353600  1
  H  223  1  0.07790200  0.24070800  0.68451900  1
  H  225  1  0.96440600  0.35884400  0.69854900  1
  H  250  1  0.97951000  0.52792400  0.68504200  1
  H  251  1  0.97794100  0.56618300  0.64032000  1
  H  252  1  0.97363000  0.61570900  0.60071100  1
  H  253  1  0.97019800  0.67052600  0.57121300  1
  H  254  1  0.94464300  0.72951100  0.65101800  1
  H  255  1  0.94767900  0.61603000  0.74001300  1
  H  256  1  0.87300500  0.66322800  0.67568300  1
  H  257  1  0.83912400  0.72923300  0.74925100  1
  H  258  1  0.90020700  0.73516900  0.76593200  1
  H  259  1  0.02731300  0.66987500  0.69365400  1
  H  260  1  0.96561000  0.73119900  0.77730900  1
  H  261  1  0.03023100  0.72527100  0.77790500  1
  H  264  1  0.95462000  0.75929500  0.60284600  1
  H  266  1  0.08251300  0.67202600  0.73369400  1
  H  268  1  0.81121900  0.67973900  0.68064000  1
  H  270  1  0.97912500  0.55900100  0.75927200  1
  H  295  1  0.35960900  0.98435100  0.14043300  1
  H  296  1  0.30889600  0.98947100  0.10757200  1
  H  297  1  0.25103500  0.98946300  0.08049100  1
  H  298  1  0.19127400  0.98040000  0.06086200  1
  H  299  1  0.15598500  0.94535600  0.14783500  1
  H  300  1  0.29126300  0.95256900  0.21323300  1
  H  301  1  0.22962000  0.88214800  0.16065800  1
  H  302  1  0.18892000  0.84477300  0.24529300  1
  H  303  1  0.18295500  0.90550300  0.26265200  1
  H  304  1  0.21845400  0.03595400  0.18042800  1
  H  305  1  0.18077000  0.97121500  0.27199700  1
  H  306  1  0.18004900  0.03625300  0.27124100  1
  H  309  1  0.11486200  0.95015600  0.10464800  1
  H  311  1  0.22088900  0.09126700  0.22166900  1
  H  313  1  0.22567500  0.81892100  0.17081000  1
  H  315  1  0.36291200  0.93461700  0.20345300  1
  H  340  1  0.53218200  0.91455300  0.18797300  1
  H  341  1  0.56982100  0.91815600  0.14298200  1
  H  342  1  0.61857500  0.92459500  0.10311800  1
  H  343  1  0.67328300  0.92802400  0.07323900  1
  H  344  1  0.73365600  0.94868200  0.15333500  1
  H  345  1  0.62072700  0.94494000  0.24300700  1
  H  346  1  0.66717700  0.02164900  0.17883800  1
  H  347  1  0.73197100  0.05509900  0.25331600  1
  H  348  1  0.73843400  0.99381300  0.26933500  1
  H  349  1  0.67400200  0.86720400  0.19580400  1
  H  350  1  0.73508600  0.92822000  0.27994400  1
  H  351  1  0.72920200  0.86358700  0.28013200  1
  H  354  1  0.76235600  0.93530600  0.10384100  1
  H  356  1  0.67589300  0.81176700  0.23549400  1
  H  358  1  0.68340100  0.08348100  0.18438100  1
  H  360  1  0.56433700  0.91118700  0.26146700  1
  H  371  1  0.07746200  0.09354200  0.33119900  1
  H  372  1  0.09967000  0.04658700  0.29617100  1
  H  373  1  0.17232700  0.17257200  0.20936800  1
  H  374  1  0.14942700  0.21833400  0.24231100  1
  H  376  1  0.17476100  0.11109000  0.19117400  1
  H  377  1  0.14351900  0.08088000  0.20713100  1
  H  379  1  0.10259400  0.23710200  0.27892800  1
  H  380  1  0.13335100  0.22266300  0.30687000  1
  H  391  1  0.81092300  0.78036800  0.34098700  1
  H  392  1  0.78945200  0.83426300  0.31356400  1
  H  393  1  0.72310300  0.72988600  0.20523900  1
  H  394  1  0.74741800  0.67791000  0.22984700  1
  H  396  1  0.71694300  0.79391000  0.19856600  1
  H  397  1  0.75256900  0.81767300  0.21593300  1
  H  399  1  0.79752300  0.65448100  0.26155800  1
  H  400  1  0.76548600  0.65657600  0.29110700  1
  H  411  1  0.80157700  0.07654400  0.83517300  1
  H  412  1  0.84947600  0.09812800  0.80078900  1
  H  413  1  0.72578500  0.16768000  0.70989000  1
  H  414  1  0.67914600  0.14562900  0.74239900  1
  H  416  1  0.78785900  0.17039100  0.69319300  1
  H  417  1  0.81752600  0.13928500  0.71008400  1
  H  419  1  0.65833900  0.10329200  0.78103900  1
  H  420  1  0.67620500  0.13124300  0.80967900  1
  H  431  1  0.11068000  0.80922900  0.83836900  1
  H  432  1  0.05754500  0.78731600  0.81014100  1
  H  433  1  0.16484500  0.71912700  0.70470700  1
  H  434  1  0.21613300  0.74396600  0.72997400  1
  H  436  1  0.10099700  0.71284000  0.69687100  1
  H  437  1  0.07656400  0.74844100  0.71358100  1
  H  439  1  0.23806300  0.79561300  0.76130400  1
  H  440  1  0.23652000  0.76304700  0.79047300  1
  H  451  1  0.81529700  0.80856200  0.68577900  1
  H  452  1  0.78860300  0.85441400  0.71962500  1
  H  453  1  0.70941400  0.72542200  0.79896500  1
  H  454  1  0.73770300  0.68069800  0.76808000  1
  H  456  1  0.70245600  0.78649400  0.81682300  1
  H  457  1  0.73471600  0.81776400  0.80414500  1
  H  459  1  0.79250000  0.66551800  0.73691800  1
  H  460  1  0.76106000  0.67430600  0.70782800  1
  H  471  1  0.05139000  0.10431500  0.68699200  1
  H  472  1  0.07322900  0.05439800  0.71917500  1
  H  473  1  0.18207900  0.16728700  0.79062400  1
  H  474  1  0.15929900  0.21616300  0.76108500  1
  H  476  1  0.17992200  0.10598000  0.80886700  1
  H  477  1  0.14173200  0.08055800  0.79861700  1
  H  479  1  0.10401600  0.24015200  0.73447000  1
  H  480  1  0.13233000  0.22745100  0.70410400  1
  H  491  1  0.09649200  0.84365200  0.18669900  1
  H  492  1  0.05005700  0.81921700  0.22120300  1
  H  493  1  0.17142500  0.71068000  0.28224300  1
  H  494  1  0.21733000  0.73676100  0.25119500  1
  H  496  1  0.11136500  0.70966200  0.30354800  1
  H  497  1  0.08400300  0.74733600  0.29600900  1
  H  499  1  0.23709400  0.79519400  0.22493300  1
  H  500  1  0.22412200  0.76648300  0.19493300  1
  H  511  1  0.81222300  0.07787900  0.19216900  1
  H  512  1  0.85739000  0.10488100  0.22650100  1
  H  513  1  0.72700700  0.18682500  0.30213000  1
  H  514  1  0.68286200  0.15780300  0.27114500  1
  H  516  1  0.78767300  0.19414500  0.32074900  1
  H  517  1  0.81918600  0.16154900  0.30921900  1
  H  519  1  0.66867300  0.10143400  0.24097500  1
  H  520  1  0.67686900  0.13311400  0.21194400  1
  H  531  1  0.00783900  0.38856100  0.19814900  1
  H  532  1  0.01559900  0.44554700  0.17008200  1
  H  533  1  0.89357100  0.52257100  0.25839600  1
  H  534  1  0.88695000  0.46815900  0.28625300  1
  H  536  1  0.91664200  0.55741900  0.21634800  1
  H  537  1  0.94250800  0.53558700  0.18845900  1
  H  539  1  0.89303700  0.40118400  0.28643100  1
  H  540  1  0.93244600  0.41870400  0.30437400  1
  H  551  1  0.50750100  0.00218400  0.70495800  1
  H  552  1  0.45069900  0.01136000  0.67691900  1
  H  553  1  0.36987600  0.89378700  0.76708300  1
  H  554  1  0.42422000  0.88566600  0.79488700  1
  H  556  1  0.33629300  0.91642400  0.72379200  1
  H  557  1  0.35878800  0.94244800  0.69642600  1
  H  559  1  0.49408000  0.88930600  0.79200500  1
  H  560  1  0.47549300  0.92554300  0.81331000  1
  H  571  1  0.98024500  0.37270300  0.78706500  1
  H  572  1  0.98601100  0.43092900  0.81366100  1
  H  573  1  0.90049200  0.51130500  0.70037300  1
  H  574  1  0.89582200  0.45538200  0.67410600  1
  H  576  1  0.93476000  0.52410400  0.77837300  1
  H  577  1  0.90873800  0.54402600  0.74975100  1
  H  579  1  0.93237800  0.39819100  0.66552300  1
  H  580  1  0.89142000  0.38520100  0.68342600  1
  H  591  1  0.37642100  0.91458600  0.29041500  1
  H  592  1  0.43415300  0.90634600  0.31731500  1
  H  593  1  0.51825100  0.99264600  0.20636300  1
  H  594  1  0.46284900  0.99944500  0.17971400  1
  H  596  1  0.52950400  0.95382200  0.28327100  1
  H  597  1  0.54994300  0.98205100  0.25642300  1
  H  599  1  0.40478100  0.96338100  0.17037900  1
  H  600  1  0.39371100  0.00540600  0.18756700  1
  H  611  1  0.87319000  0.08148800  0.47416500  1
  H  612  1  0.88233300  0.05253600  0.52403900  1
  H  613  1  0.01845700  0.16299500  0.55099800  1
  H  614  1  0.00929400  0.19123800  0.50310900  1
  H  616  1  0.00243500  0.12244300  0.59094600  1
  H  617  1  0.98260700  0.08224400  0.57808800  1
  H  619  1  0.96601800  0.21071600  0.46859700  1
  H  620  1  0.92359400  0.18988900  0.47146700  1
  H  631  1  0.02119200  0.77387300  0.45955100  1
  H  632  1  0.01065200  0.80427400  0.50860200  1
  H  633  1  0.89014300  0.67994800  0.54420600  1
  H  634  1  0.90069600  0.65027700  0.49701700  1
  H  636  1  0.89806900  0.72838500  0.57965200  1
  H  637  1  0.91610800  0.76796000  0.56417000  1
  H  639  1  0.93554300  0.63854800  0.45421300  1
  H  640  1  0.97942700  0.65659700  0.45696000  1
  H  651  1  0.82482200  0.89422900  0.97164600  1
  H  652  1  0.82911500  0.89188200  0.02758400  1
  H  653  1  0.69389500  0.00734400  0.03746400  1
  H  654  1  0.68949700  0.00925700  0.98336800  1
  H  656  1  0.72741300  0.99637800  0.08278400  1
  H  657  1  0.77211700  0.98418200  0.07581700  1
  H  659  1  0.75921500  0.99468300  0.93679600  1
  H  660  1  0.71242600  0.99877200  0.93352900  1
  H  671  1  0.11070900  0.02295900  0.95850900  1
  H  672  1  0.07666400  0.01359800  0.00600000  1
  H  673  1  0.19040100  0.88448100  0.04505400  1
  H  674  1  0.22336900  0.89359600  0.99924300  1
  H  676  1  0.14273000  0.89708700  0.07990400  1
  H  677  1  0.10388800  0.91491000  0.06276800  1
  H  679  1  0.24036100  0.92901400  0.95787400  1
  H  680  1  0.22397800  0.97356400  0.96014600  1
  H  705  1  0.42642900  0.86715800  0.56679700  1
  H  706  1  0.42038000  0.82509000  0.60646900  1
  H  707  1  0.42023500  0.77733000  0.64183500  1
  H  708  1  0.43084100  0.72738100  0.67317600  1
  H  709  1  0.47252800  0.66843000  0.59788700  1
  H  710  1  0.46654500  0.78536900  0.50799400  1
  H  711  1  0.37989400  0.72433200  0.55395700  1
  H  712  1  0.37400800  0.67467300  0.46734700  1
  H  713  1  0.43880600  0.66968100  0.46578400  1
  H  714  1  0.53527200  0.72840200  0.56898200  1
  H  715  1  0.50344100  0.66232200  0.47669000  1
  H  716  1  0.56466900  0.66364100  0.49326400  1
  H  719  1  0.49276700  0.65811300  0.65452000  1
  H  721  1  0.59637600  0.70895700  0.56237900  1
  H  723  1  0.32266700  0.72276900  0.51562900  1
  H  725  1  0.48057900  0.86032900  0.50670700  1
  H  750  1  0.50441800  0.00733280  0.50295600  1
  H  751  1  0.50355700  0.02726680  0.55539000  1
  H  752  1  0.49617800  0.05781080  0.60546500  1
  H  753  1  0.48634400  0.09524480  0.64853400  1
  H  754  1  0.45812900  0.18259100  0.59066300  1
  H  755  1  0.46753900  0.10992900  0.47435900  1
  H  756  1  0.54690600  0.14699300  0.53156600  1
  H  757  1  0.54484100  0.22867400  0.46439800  1
  H  758  1  0.48036200  0.23233200  0.46810600  1
  H  759  1  0.39313600  0.12677200  0.54744100  1
  H  760  1  0.41553500  0.22807600  0.47898200  1
  H  761  1  0.35521500  0.21217300  0.49163800  1
  H  764  1  0.43477500  0.17333600  0.64739500  1
  H  766  1  0.33046300  0.14080800  0.54612300  1
  H  768  1  0.59944000  0.16263700  0.49316300  1
  H  770  1  0.49518000  0.06360080  0.43923300  1
  H  795  1  0.02986820  0.40415800  0.07682920  1
  H  796  1  0.07590020  0.39945300  0.11402800  1
  H  797  1  0.12893100  0.40308300  0.14691400  1
  H  798  1  0.18597900  0.41273400  0.17199300  1
  H  799  1  0.23412300  0.43857300  0.08715320  1
  H  800  1  0.10719200  0.43366400  0.00998519  1
  H  801  1  0.17251500  0.35007700  0.05089920  1
  H  802  1  0.21967300  0.34565300  0.96315700  1
  H  803  1  0.22289600  0.41059400  0.96162700  1
  H  804  1  0.16818100  0.50455100  0.06800620  1
  H  805  1  0.22991300  0.47544000  0.97305000  1
  H  806  1  0.23007000  0.53609700  0.99129000  1
  H  809  1  0.26913100  0.43469200  0.13416300  1
  H  811  1  0.18771000  0.56540800  0.06263920  1
  H  813  1  0.17356400  0.29314900  0.01170220  1
  H  815  1  0.03063520  0.45218900  0.01704220  1
  H  840  1  0.88429000  0.47582300  0.01268620  1
  H  841  1  0.86129300  0.47334000  0.06421420  1
  H  842  1  0.82782900  0.46395800  0.11289100  1
  H  843  1  0.78759800  0.45322800  0.15404000  1
  H  844  1  0.70383500  0.42758300  0.09174020  1
  H  845  1  0.78360500  0.43961100  0.97907100  1
  H  846  1  0.74276800  0.51688100  0.03553520  1
  H  847  1  0.66226800  0.51575900  0.96724200  1
  H  848  1  0.65964000  0.45103800  0.96948800  1
  H  849  1  0.76391900  0.36319500  0.04974620  1
  H  850  1  0.66554900  0.38586500  0.97835400  1
  H  851  1  0.68205900  0.32545300  0.99019400  1
  H  854  1  0.70849300  0.40346200  0.14846500  1
  H  856  1  0.75161700  0.30033100  0.04633520  1
  H  858  1  0.72803100  0.56977800  0.99732900  1
  H  860  1  0.83197300  0.46888600  0.94663200  1
  H  885  1  0.43484400  0.83708800  0.86356400  1
  H  886  1  0.43119600  0.78397300  0.83304700  1
  H  887  1  0.43106800  0.72326200  0.80931800  1
  H  888  1  0.43874200  0.66141600  0.79422700  1
  H  889  1  0.46543900  0.63316300  0.88503000  1
  H  890  1  0.45704900  0.77352400  0.94166800  1
  H  891  1  0.53036500  0.71210900  0.89378800  1
  H  892  1  0.56665900  0.68694700  0.98295200  1
  H  893  1  0.50573700  0.67641400  0.99870100  1
  H  894  1  0.37674600  0.69784900  0.91101000  1
  H  895  1  0.43942300  0.66843600  0.00573819  1
  H  896  1  0.37438400  0.66617200  0.00364419  1
  H  899  1  0.46024900  0.58802700  0.84527300  1
  H  901  1  0.32067000  0.70354400  0.95185100  1
  H  903  1  0.59167500  0.72744200  0.91283400  1
  H  905  1  0.47817900  0.84557800  0.92686400  1
  H  930  1  0.49328300  0.01465780  0.91335700  1
  H  931  1  0.49171400  0.05291680  0.86863500  1
  H  932  1  0.48740300  0.10244300  0.82902600  1
  H  933  1  0.48397100  0.15726000  0.79952800  1
  H  934  1  0.45841600  0.21624500  0.87933300  1
  H  935  1  0.46145200  0.10276400  0.96832800  1
  H  936  1  0.38677800  0.14996200  0.90399800  1
  H  937  1  0.35289700  0.21596700  0.97756600  1
  H  938  1  0.41398000  0.22190300  0.99424700  1
  H  939  1  0.54108600  0.15660900  0.92196900  1
  H  940  1  0.47938300  0.21793300  0.00562419  1
  H  941  1  0.54400400  0.21200500  0.00622019  1
  H  944  1  0.46839300  0.24602900  0.83116100  1
  H  946  1  0.59628600  0.15876000  0.96200900  1
  H  948  1  0.32499200  0.16647300  0.90895500  1
  H  950  1  0.49289800  0.04573480  0.98758700  1
  H  975  1  0.87338200  0.47108500  0.36874800  1
  H  976  1  0.82266900  0.47620500  0.33588700  1
  H  977  1  0.76480800  0.47619700  0.30880600  1
  H  978  1  0.70504700  0.46713400  0.28917700  1
  H  979  1  0.66975800  0.43209000  0.37615000  1
  H  980  1  0.80503600  0.43930300  0.44154800  1
  H  981  1  0.74339300  0.36888200  0.38897300  1
  H  982  1  0.70269300  0.33150700  0.47360800  1
  H  983  1  0.69672800  0.39223700  0.49096700  1
  H  984  1  0.73222700  0.52268800  0.40874300  1
  H  985  1  0.69454300  0.45794900  0.50031200  1
  H  986  1  0.69382200  0.52298700  0.49955600  1
  H  989  1  0.62863500  0.43689000  0.33296300  1
  H  991  1  0.73466200  0.57800100  0.44998400  1
  H  993  1  0.73944800  0.30565500  0.39912500  1
  H  995  1  0.87668500  0.42135100  0.43176800  1
  H  1020  1  0.04595520  0.40128700  0.41628800  1
  H  1021  1  0.08359420  0.40489000  0.37129700  1
  H  1022  1  0.13234800  0.41132900  0.33143300  1
  H  1023  1  0.18705600  0.41475800  0.30155400  1
  H  1024  1  0.24742900  0.43541600  0.38165000  1
  H  1025  1  0.13450000  0.43167400  0.47132200  1
  H  1026  1  0.18095000  0.50838300  0.40715300  1
  H  1027  1  0.24574400  0.54183300  0.48163100  1
  H  1028  1  0.25220700  0.48054700  0.49765000  1
  H  1029  1  0.18777500  0.35393800  0.42411900  1
  H  1030  1  0.24885900  0.41495400  0.50825900  1
  H  1031  1  0.24297500  0.35032100  0.50844700  1
  H  1034  1  0.27612900  0.42204000  0.33215600  1
  H  1036  1  0.18966600  0.29850100  0.46380900  1
  H  1038  1  0.19717400  0.57021500  0.41269600  1
  H  1040  1  0.07811020  0.39792100  0.48978200  1
  H  1051  1  0.59123500  0.58027600  0.55951400  1
  H  1052  1  0.61344300  0.53332100  0.52448600  1
  H  1053  1  0.68610000  0.65930600  0.43768300  1
  H  1054  1  0.66320000  0.70506800  0.47062600  1
  H  1056  1  0.68853400  0.59782400  0.41948900  1
  H  1057  1  0.65729200  0.56761400  0.43544600  1
  H  1059  1  0.61636700  0.72383600  0.50724300  1
  H  1060  1  0.64712400  0.70939700  0.53518500  1
  H  1071  1  0.32469600  0.26710200  0.56930200  1
  H  1072  1  0.30322500  0.32099700  0.54187900  1
  H  1073  1  0.23687600  0.21662000  0.43355400  1
  H  1074  1  0.26119100  0.16464400  0.45816200  1
  H  1076  1  0.23071600  0.28064400  0.42688100  1
  H  1077  1  0.26634200  0.30440700  0.44424800  1
  H  1079  1  0.31129600  0.14121500  0.48987300  1
  H  1080  1  0.27925900  0.14331000  0.51942200  1
  H  1091  1  0.31535000  0.56327800  0.06348820  1
  H  1092  1  0.36324900  0.58486200  0.02910420  1
  H  1093  1  0.23955800  0.65441400  0.93820500  1
  H  1094  1  0.19291900  0.63236300  0.97071400  1
  H  1096  1  0.30163200  0.65712500  0.92150800  1
  H  1097  1  0.33129900  0.62601900  0.93839900  1
  H  1099  1  0.17211200  0.59002600  0.00935419  1
  H  1100  1  0.18997800  0.61797700  0.03799420  1
  H  1111  1  0.62445300  0.29596300  0.06668420  1
  H  1112  1  0.57131800  0.27405000  0.03845620  1
  H  1113  1  0.67861800  0.20586100  0.93302200  1
  H  1114  1  0.72990600  0.23070000  0.95828900  1
  H  1116  1  0.61477000  0.19957400  0.92518600  1
  H  1117  1  0.59033700  0.23517500  0.94189600  1
  H  1119  1  0.75183600  0.28234700  0.98961900  1
  H  1120  1  0.75029300  0.24978100  0.01878820  1
  H  1131  1  0.32907000  0.29529600  0.91409400  1
  H  1132  1  0.30237600  0.34114800  0.94794000  1
  H  1133  1  0.22318700  0.21215600  0.02728020  1
  H  1134  1  0.25147600  0.16743200  0.99639500  1
  H  1136  1  0.21622900  0.27322800  0.04513820  1
  H  1137  1  0.24848900  0.30449800  0.03246020  1
  H  1139  1  0.30627300  0.15225200  0.96523300  1
  H  1140  1  0.27483300  0.16104000  0.93614300  1
  H  1151  1  0.56516300  0.59104900  0.91530700  1
  H  1152  1  0.58700200  0.54113200  0.94749000  1
  H  1153  1  0.69585200  0.65402100  0.01893920  1
  H  1154  1  0.67307200  0.70289700  0.98940000  1
  H  1156  1  0.69369500  0.59271400  0.03718220  1
  H  1157  1  0.65550500  0.56729200  0.02693220  1
  H  1159  1  0.61778900  0.72688600  0.96278500  1
  H  1160  1  0.64610300  0.71418500  0.93241900  1
  H  1171  1  0.61026500  0.33038600  0.41501400  1
  H  1172  1  0.56383000  0.30595100  0.44951800  1
  H  1173  1  0.68519800  0.19741400  0.51055800  1
  H  1174  1  0.73110300  0.22349500  0.47951000  1
  H  1176  1  0.62513800  0.19639600  0.53186300  1
  H  1177  1  0.59777600  0.23407000  0.52432400  1
  H  1179  1  0.75086700  0.28192800  0.45324800  1
  H  1180  1  0.73789500  0.25321700  0.42324800  1
  H  1191  1  0.32599600  0.56461300  0.42048400  1
  H  1192  1  0.37116300  0.59161500  0.45481600  1
  H  1193  1  0.24078000  0.67355900  0.53044500  1
  H  1194  1  0.19663500  0.64453700  0.49946000  1
  H  1196  1  0.30144600  0.68087900  0.54906400  1
  H  1197  1  0.33295900  0.64828300  0.53753400  1
  H  1199  1  0.18244600  0.58816800  0.46929000  1
  H  1200  1  0.19064200  0.61984800  0.44025900  1
  H  1211  1  0.52161200  0.87529500  0.42646400  1
  H  1212  1  0.52937200  0.93228100  0.39839700  1
  H  1213  1  0.40734400  0.00930480  0.48671100  1
  H  1214  1  0.40072300  0.95489300  0.51456800  1
  H  1216  1  0.43041500  0.04415280  0.44466300  1
  H  1217  1  0.45628100  0.02232080  0.41677400  1
  H  1219  1  0.40681000  0.88791800  0.51474600  1
  H  1220  1  0.44621900  0.90543800  0.53268900  1
  H  1231  1  0.02127420  0.48891800  0.93327300  1
  H  1232  1  0.96447200  0.49809400  0.90523400  1
  H  1233  1  0.88364900  0.38052100  0.99539800  1
  H  1234  1  0.93799300  0.37240000  0.02320220  1
  H  1236  1  0.85006600  0.40315800  0.95210700  1
  H  1237  1  0.87256100  0.42918200  0.92474100  1
  H  1239  1  0.00785318  0.37604000  0.02032020  1
  H  1240  1  0.98926600  0.41227700  0.04162520  1
  H  1251  1  0.49401800  0.85943700  0.01538020  1
  H  1252  1  0.49978400  0.91766300  0.04197620  1
  H  1253  1  0.41426500  0.99803900  0.92868800  1
  H  1254  1  0.40959500  0.94211600  0.90242100  1
  H  1256  1  0.44853300  0.01083780  0.00668819  1
  H  1257  1  0.42251100  0.03075980  0.97806600  1
  H  1259  1  0.44615100  0.88492500  0.89383800  1
  H  1260  1  0.40519300  0.87193500  0.91174100  1
  H  1271  1  0.89019400  0.40132000  0.51873000  1
  H  1272  1  0.94792600  0.39308000  0.54563000  1
  H  1273  1  0.03202420  0.47938000  0.43467800  1
  H  1274  1  0.97662200  0.48617900  0.40802900  1
  H  1276  1  0.04327720  0.44055600  0.51158600  1
  H  1277  1  0.06371620  0.46878500  0.48473800  1
  H  1279  1  0.91855400  0.45011500  0.39869400  1
  H  1280  1  0.90748400  0.49214000  0.41588200  1
  H  1291  1  0.38696300  0.56822200  0.70248000  1
  H  1292  1  0.39610600  0.53927000  0.75235400  1
  H  1293  1  0.53223000  0.64972900  0.77931300  1
  H  1294  1  0.52306700  0.67797200  0.73142400  1
  H  1296  1  0.51620800  0.60917700  0.81926100  1
  H  1297  1  0.49638000  0.56897800  0.80640300  1
  H  1299  1  0.47979100  0.69745000  0.69691200  1
  H  1300  1  0.43736700  0.67662300  0.69978200  1
  H  1311  1  0.53496500  0.26060700  0.68786600  1
  H  1312  1  0.52442500  0.29100800  0.73691700  1
  H  1313  1  0.40391600  0.16668200  0.77252100  1
  H  1314  1  0.41446900  0.13701100  0.72533200  1
  H  1316  1  0.41184200  0.21511900  0.80796700  1
  H  1317  1  0.42988100  0.25469400  0.79248500  1
  H  1319  1  0.44931600  0.12528200  0.68252800  1
  H  1320  1  0.49320000  0.14333100  0.68527500  1
  H  1331  1  0.33859500  0.38096300  0.19996100  1
  H  1332  1  0.34288800  0.37861600  0.25589900  1
  H  1333  1  0.20766800  0.49407800  0.26577900  1
  H  1334  1  0.20327000  0.49599100  0.21168300  1
  H  1336  1  0.24118600  0.48311200  0.31109900  1
  H  1337  1  0.28589000  0.47091600  0.30413200  1
  H  1339  1  0.27298800  0.48141700  0.16511100  1
  H  1340  1  0.22619900  0.48550600  0.16184400  1
  H  1351  1  0.62448200  0.50969300  0.18682400  1
  H  1352  1  0.59043700  0.50033200  0.23431500  1
  H  1353  1  0.70417400  0.37121500  0.27336900  1
  H  1354  1  0.73714200  0.38033000  0.22755800  1
  H  1356  1  0.65650300  0.38382100  0.30821900  1
  H  1357  1  0.61766100  0.40164400  0.29108300  1
  H  1359  1  0.75413400  0.41574800  0.18618900  1
  H  1360  1  0.73775100  0.46029800  0.18846100  1
  C  1  1  0.97861000  0.22731800  0.31134200  1
  C  2  1  0.97012200  0.20817900  0.28467700  1
  C  3  1  0.93308100  0.20753700  0.28077300  1
  C  4  1  0.91680300  0.22429200  0.30588800  1
  C  5  1  0.87852700  0.22551300  0.30746800  1
  C  6  1  0.85745100  0.21106700  0.28326400  1
  C  7  1  0.87497000  0.19679800  0.25728900  1
  C  8  1  0.91276500  0.19389500  0.25622000  1
  C  9  1  0.99649700  0.19050900  0.26715600  1
  C  10  1  0.03244000  0.19128600  0.27720000  1
  C  11  1  0.04272100  0.21044000  0.30382600  1
  C  12  1  0.01525000  0.22886700  0.32068300  1
  C  13  1  0.93979100  0.28169600  0.32455900  1
  C  14  1  0.92614100  0.29377700  0.35247100  1
  C  15  1  0.92603100  0.26569600  0.37312400  1
  C  16  1  0.93948100  0.23425300  0.35946900  1
  C  17  1  0.91661800  0.26750900  0.40399700  1
  C  18  1  0.92353600  0.23756700  0.42242700  1
  C  19  1  0.94080700  0.20587800  0.41108000  1
  C  20  1  0.94696300  0.20416200  0.37879600  1
  C  21  1  0.94333000  0.30716600  0.30039000  1
  C  22  1  0.93400900  0.34429800  0.30463700  1
  C  23  1  0.92011900  0.35456200  0.33367400  1
  C  24  1  0.91626300  0.32982200  0.35752400  1
  C  37  1  0.94477400  0.24141400  0.32590600  1
  C  46  1  0.91968300  0.67063200  0.29697200  1
  C  47  1  0.92566100  0.70010700  0.27760400  1
  C  48  1  0.96243400  0.70539100  0.27421100  1
  C  49  1  0.98099700  0.68034500  0.29234400  1
  C  50  1  0.01929900  0.67938200  0.29111800  1
  C  51  1  0.03816400  0.70296800  0.27105800  1
  C  52  1  0.01827900  0.72666400  0.25215100  1
  C  53  1  0.98050700  0.72878900  0.25410400  1
  C  54  1  0.89708100  0.71973300  0.26466500  1
  C  55  1  0.86157700  0.71018200  0.27238000  1
  C  56  1  0.85397400  0.68102100  0.29239000  1
  C  57  1  0.88370200  0.66087800  0.30425100  1
  C  58  1  0.96093600  0.61748900  0.29376000  1
  C  59  1  0.97125000  0.59349500  0.31682000  1
  C  60  1  0.96949800  0.61143600  0.34460300  1
  C  61  1  0.95934400  0.64751700  0.33990700  1
  C  62  1  0.97510200  0.59746600  0.37396700  1
  C  63  1  0.96887200  0.61988800  0.39925500  1
  C  64  1  0.95676000  0.65622800  0.39600200  1
  C  65  1  0.95309000  0.66993600  0.36569300  1
  C  66  1  0.96052700  0.60553500  0.26306000  1
  C  67  1  0.97110500  0.56964900  0.25577300  1
  C  68  1  0.98226500  0.54631200  0.27954000  1
  C  69  1  0.98173300  0.55777400  0.31015700  1
  C  82  1  0.95488500  0.65442100  0.30645900  1
  C  91  1  0.66666667  0.97602300  0.80864100  1
  C  92  1  0.68449300  0.96820600  0.78123400  1
  C  93  1  0.68543100  0.93116300  0.77705300  1
  C  94  1  0.67007500  0.91432400  0.80257400  1
  C  95  1  0.66972300  0.87605300  0.80406100  1
  C  96  1  0.68377900  0.85543500  0.77941200  1
  C  97  1  0.69702000  0.87338500  0.75324700  1
  C  98  1  0.69885100  0.91125600  0.75218000  1
  C  99  1  0.70180900  0.99506600  0.76395200  1
  C  100  1  0.70185500  0.03067400  0.77493700  1
  C  101  1  0.68385500  0.04017800  0.80233700  1
  C  102  1  0.66584900  0.01229300  0.81897400  1
  C  103  1  0.61420600  0.93704600  0.82592200  1
  C  104  1  0.60469100  0.92719900  0.85569600  1
  C  105  1  0.63501000  0.92816200  0.87418300  1
  C  106  1  0.66504100  0.93775300  0.85647700  1
  C  107  1  0.63736600  0.92312600  0.90595100  1
  C  108  1  0.67065600  0.92902300  0.92049900  1
  C  109  1  0.70128500  0.94026500  0.90371100  1
  C  110  1  0.69850400  0.94372400  0.87136800  1
  C  111  1  0.58668700  0.93943900  0.80340800  1
  C  112  1  0.54990300  0.93226800  0.81088300  1
  C  113  1  0.54186700  0.92224600  0.84149500  1
  C  114  1  0.56886300  0.91948500  0.86382200  1
  C  127  1  0.65428600  0.94184300  0.82368000  1
  C  136  1  0.21988500  0.91686800  0.79907400  1
  C  137  1  0.19117400  0.92293900  0.77892100  1
  C  138  1  0.18548000  0.95972000  0.77605100  1
  C  139  1  0.20968400  0.97811300  0.79510800  1
  C  140  1  0.21037100  0.01641100  0.79446700  1
  C  141  1  0.18721000  0.03547100  0.77421100  1
  C  142  1  0.16387700  0.01589400  0.75476500  1
  C  143  1  0.16221500  0.97804600  0.75597500  1
  C  144  1  0.17271300  0.89441200  0.76473800  1
  C  145  1  0.18260600  0.85885600  0.77198200  1
  C  146  1  0.21090600  0.85116200  0.79283900  1
  C  147  1  0.22994100  0.88086900  0.80595800  1
  C  148  1  0.27271100  0.95866000  0.79878000  1
  C  149  1  0.29529900  0.96824300  0.82305200  1
  C  150  1  0.27572200  0.96561400  0.85000200  1
  C  151  1  0.23997100  0.95568200  0.84352000  1
  C  152  1  0.28786700  0.97016700  0.88007400  1
  C  153  1  0.26380800  0.96347100  0.90419500  1
  C  154  1  0.22754300  0.95207100  0.89906300  1
  C  155  1  0.21583500  0.94914000  0.86811400  1
  C  156  1  0.28642800  0.95924700  0.76862100  1
  C  157  1  0.32264900  0.97013700  0.76308200  1
  C  158  1  0.34455000  0.98059300  0.78802100  1
  C  159  1  0.33133100  0.97902100  0.81811100  1
  C  172  1  0.23513700  0.95200000  0.80975700  1
  C  181  1  0.91437800  0.20605700  0.70372500  1
  C  182  1  0.93196800  0.19743700  0.73111800  1
  C  183  1  0.96893000  0.20173100  0.72722800  1
  C  184  1  0.97565400  0.21277500  0.69721800  1
  C  185  1  0.01174200  0.21786600  0.68756300  1
  C  186  1  0.04102300  0.21336400  0.70830000  1
  C  187  1  0.03286800  0.20366000  0.73890400  1
  C  188  1  0.99713100  0.19725100  0.74837200  1
  C  189  1  0.91262900  0.18733600  0.75740000  1
  C  190  1  0.87470700  0.18595300  0.75601200  1
  C  191  1  0.85614900  0.19373100  0.72860000  1
  C  192  1  0.87614500  0.20414900  0.70234100  1
  C  193  1  0.93522500  0.25762200  0.67236600  1
  C  194  1  0.92780700  0.26100100  0.64119900  1
  C  195  1  0.92947800  0.22714500  0.62768900  1
  C  196  1  0.93840200  0.20138300  0.64988600  1
  C  197  1  0.92448100  0.21764000  0.59691900  1
  C  198  1  0.92949600  0.18146100  0.58818100  1
  C  199  1  0.94093200  0.15499400  0.60943500  1
  C  200  1  0.94436200  0.16515600  0.64071000  1
  C  201  1  0.93712700  0.28916200  0.69068100  1
  C  202  1  0.93185300  0.32397000  0.67766700  1
  C  203  1  0.92431900  0.32606300  0.64589000  1
  C  204  1  0.92208800  0.29491500  0.62764600  1
  C  217  1  0.94105500  0.21887100  0.68055800  1
  C  226  1  0.97620900  0.68580100  0.71103800  1
  C  227  1  0.95900100  0.70410200  0.73495200  1
  C  228  1  0.92198500  0.70254700  0.73059800  1
  C  229  1  0.91458000  0.68169400  0.70468600  1
  C  230  1  0.87828600  0.67756800  0.69512200  1
  C  231  1  0.84970700  0.69512000  0.71115900  1
  C  232  1  0.85860700  0.71590000  0.73729900  1
  C  233  1  0.89443100  0.71943700  0.74737400  1
  C  234  1  0.97850000  0.71909800  0.75937900  1
  C  235  1  0.01627000  0.71556400  0.75957600  1
  C  236  1  0.03469400  0.69888300  0.73508200  1
  C  237  1  0.01445300  0.68361400  0.71073700  1
  C  238  1  0.95280500  0.62774500  0.69291900  1
  C  239  1  0.96147100  0.61320900  0.66433800  1
  C  240  1  0.96110500  0.64093900  0.64290000  1
  C  241  1  0.95334000  0.67365300  0.65767600  1
  C  242  1  0.96741600  0.63956100  0.61126000  1
  C  243  1  0.96506300  0.67164500  0.59411500  1
  C  244  1  0.95582100  0.70492900  0.60802900  1
  C  245  1  0.95066800  0.70574500  0.64025300  1
  C  246  1  0.95266200  0.60516800  0.71897000  1
  C  247  1  0.96226200  0.56818200  0.71623400  1
  C  248  1  0.97162500  0.55431100  0.68722000  1
  C  249  1  0.97063500  0.57646300  0.66107800  1
  C  262  1  0.94886200  0.66773900  0.69114700  1
  C  271  1  0.21133300  0.98403900  0.20012800  1
  C  272  1  0.20007500  0.96593200  0.22655400  1
  C  273  1  0.20335400  0.92903800  0.22198500  1
  C  274  1  0.21737700  0.92271600  0.19279500  1
  C  275  1  0.22081700  0.88665200  0.18244600  1
  C  276  1  0.21052900  0.85703400  0.20140400  1
  C  277  1  0.19710900  0.86491900  0.23101900  1
  C  278  1  0.19357200  0.90058800  0.24151000  1
  C  279  1  0.18825000  0.98467900  0.25262400  1
  C  280  1  0.18775300  0.02262200  0.25201200  1
  C  281  1  0.19770300  0.04179100  0.22542400  1
  C  282  1  0.20987000  0.02234200  0.19939000  1
  C  283  1  0.26492300  0.96375400  0.17142400  1
  C  284  1  0.27046400  0.97433300  0.14114400  1
  C  285  1  0.23787500  0.97332400  0.12567200  1
  C  286  1  0.21061900  0.96190500  0.14566900  1
  C  287  1  0.23104100  0.98054000  0.09472200  1
  C  288  1  0.19610900  0.97469600  0.08330300  1
  C  289  1  0.16850900  0.96012100  0.10197200  1
  C  290  1  0.17571500  0.95500400  0.13367900  1
  C  291  1  0.29514500  0.96071700  0.19116900  1
  C  292  1  0.33073600  0.96784500  0.18040100  1
  C  293  1  0.33480500  0.97903800  0.14951900  1
  C  294  1  0.30505200  0.98227200  0.12986400  1
  C  307  1  0.22558100  0.95767800  0.17721800  1
  C  316  1  0.69003200  0.91814300  0.21343700  1
  C  317  1  0.70825300  0.93516200  0.23750000  1
  C  318  1  0.70650000  0.97222400  0.23346600  1
  C  319  1  0.68575200  0.97981800  0.20753200  1
  C  320  1  0.68144600  0.01620900  0.19828200  1
  C  321  1  0.69856600  0.04471800  0.21473800  1
  C  322  1  0.71906100  0.03564700  0.24099600  1
  C  323  1  0.72290100  0.99970000  0.25068300  1
  C  324  1  0.72308500  0.91547300  0.26189100  1
  C  325  1  0.71954300  0.87770300  0.26186600  1
  C  326  1  0.70288500  0.85948900  0.23724900  1
  C  327  1  0.68775800  0.87991600  0.21295500  1
  C  328  1  0.63188400  0.94172600  0.19569200  1
  C  329  1  0.61704000  0.93402300  0.16703300  1
  C  330  1  0.64456200  0.93480700  0.14544400  1
  C  331  1  0.67753800  0.94152100  0.16020700  1
  C  332  1  0.64269500  0.92964600  0.11366400  1
  C  333  1  0.67465400  0.93173900  0.09635500  1
  C  334  1  0.70827700  0.93898800  0.11043700  1
  C  335  1  0.70960600  0.94354700  0.14268700  1
  C  336  1  0.60963200  0.94075200  0.22192700  1
  C  337  1  0.57270800  0.93094200  0.21925600  1
  C  338  1  0.55850600  0.92264300  0.19012100  1
  C  339  1  0.58029500  0.92485000  0.16382100  1
  C  352  1  0.67187700  0.94562500  0.19375300  1
  C  361  1  0.15134300  0.12783000  0.23390000  1
  C  362  1  0.13106900  0.11882600  0.26030900  1
  C  363  1  0.11764900  0.14619700  0.28029800  1
  C  364  1  0.12327300  0.18342400  0.27379600  1
  C  365  1  0.14407900  0.19191100  0.24760600  1
  C  366  1  0.15761500  0.16487600  0.22804700  1
  C  368  1  0.09186100  0.10012700  0.31210500  1
  C  369  1  0.10446200  0.07334800  0.29208800  1
  C  375  1  0.16565100  0.09938800  0.21277900  1
  C  378  1  0.10996600  0.21409100  0.29338300  1
  C  381  1  0.74167800  0.76828800  0.23761000  1
  C  382  1  0.76075000  0.77130800  0.26558600  1
  C  383  1  0.77411100  0.74008700  0.28097400  1
  C  384  1  0.77088800  0.70525800  0.26755600  1
  C  385  1  0.75091500  0.70255500  0.24006400  1
  C  386  1  0.73655600  0.73327900  0.22546000  1
  C  388  1  0.79742400  0.77816700  0.32074000  1
  C  389  1  0.78532000  0.80889700  0.30504100  1
  C  395  1  0.72882500  0.80098400  0.22069900  1
  C  398  1  0.78761800  0.67143500  0.28026900  1
  C  401  1  0.76986700  0.14763000  0.73579900  1
  C  402  1  0.77820700  0.12817000  0.76278600  1
  C  403  1  0.75032000  0.11522200  0.78246600  1
  C  404  1  0.71329300  0.12056200  0.77509600  1
  C  405  1  0.70542700  0.14043100  0.74826700  1
  C  406  1  0.73297800  0.15351300  0.72900200  1
  C  408  1  0.79550300  0.09042300  0.81568600  1
  C  409  1  0.82282800  0.10267700  0.79604000  1
  C  415  1  0.79890900  0.16154800  0.71510700  1
  C  418  1  0.68247800  0.10822500  0.79490300  1
  C  421  1  0.12557200  0.73823000  0.73610700  1
  C  422  1  0.12180300  0.75781000  0.76376700  1
  C  423  1  0.15259300  0.77147100  0.77957800  1
  C  424  1  0.18778100  0.76801800  0.76688400  1
  C  425  1  0.19122000  0.74758600  0.73969400  1
  C  426  1  0.16090300  0.73294400  0.72468900  1
  C  428  1  0.11342800  0.79540400  0.81832800  1
  C  429  1  0.08313900  0.78305200  0.80216600  1
  C  435  1  0.09333600  0.72492900  0.71881200  1
  C  438  1  0.22128000  0.78509400  0.77988600  1
  C  441  1  0.73190800  0.77098700  0.77653700  1
  C  442  1  0.75498400  0.78088400  0.75206900  1
  C  443  1  0.77125400  0.75416000  0.73302200  1
  C  444  1  0.76608200  0.71672200  0.73894500  1
  C  445  1  0.74267600  0.70733000  0.76327700  1
  C  446  1  0.72601900  0.73373800  0.78165400  1
  C  448  1  0.79910800  0.80136000  0.70365700  1
  C  449  1  0.78399000  0.82748900  0.72301500  1
  C  455  1  0.71403800  0.79872200  0.79628400  1
  C  458  1  0.78301100  0.68641500  0.72110900  1
  C  461  1  0.14942800  0.12649100  0.77069000  1
  C  462  1  0.12248500  0.12079700  0.74813700  1
  C  463  1  0.10921900  0.14995300  0.72998600  1
  C  464  1  0.12195400  0.18571600  0.73471000  1
  C  465  1  0.14905200  0.19086600  0.75715300  1
  C  466  1  0.16246000  0.16203900  0.77476800  1
  C  468  1  0.07042400  0.10853600  0.70349700  1
  C  469  1  0.08281100  0.08009400  0.72190600  1
  C  475  1  0.16439600  0.09611600  0.78931400  1
  C  478  1  0.10922500  0.21864900  0.71784000  1
  C  481  1  0.12809300  0.74257200  0.26551700  1
  C  482  1  0.11993600  0.77041600  0.24434100  1
  C  483  1  0.14717300  0.78534600  0.22503400  1
  C  484  1  0.18371700  0.77387500  0.22751100  1
  C  485  1  0.19142700  0.74612500  0.24883600  1
  C  486  1  0.16435000  0.73076900  0.26733700  1
  C  488  1  0.10256300  0.82402800  0.20227200  1
  C  489  1  0.07613600  0.81019400  0.22201200  1
  C  495  1  0.09953700  0.72569500  0.28508800  1
  C  498  1  0.21482700  0.78879100  0.20936500  1
  C  501  1  0.77297600  0.16359100  0.28085500  1
  C  502  1  0.78330200  0.13978100  0.25702400  1
  C  503  1  0.75694500  0.12321900  0.23779000  1
  C  504  1  0.71940200  0.12865500  0.24303000  1
  C  505  1  0.70957800  0.15264900  0.26682800  1
  C  506  1  0.73564300  0.16973500  0.28527300  1
  C  508  1  0.80468500  0.09446700  0.20968200  1
  C  509  1  0.83041400  0.10973500  0.22933100  1
  C  515  1  0.80033300  0.18200100  0.30063400  1
  C  518  1  0.68936500  0.11130600  0.22514400  1
  C  521  1  0.93313100  0.50317300  0.22738800  1
  C  522  1  0.95329500  0.47189200  0.21947300  1
  C  523  1  0.94889400  0.43880500  0.23589500  1
  C  524  1  0.92470100  0.43680000  0.26091900  1
  C  525  1  0.90417200  0.46810800  0.26793000  1
  C  526  1  0.90799700  0.50041700  0.25148000  1
  C  528  1  0.99321800  0.41102100  0.20375800  1
  C  529  1  0.99768200  0.44359500  0.18774400  1
  C  535  1  0.93972400  0.53927200  0.21312000  1
  C  538  1  0.92194300  0.40652000  0.28341000  1
  C  541  1  0.39039700  0.93241000  0.73576700  1
  C  542  1  0.42228000  0.95145000  0.72761100  1
  C  543  1  0.45521900  0.94629000  0.74409300  1
  C  544  1  0.45650100  0.92250200  0.76947800  1
  C  545  1  0.42465000  0.90289700  0.77658300  1
  C  546  1  0.39241700  0.90760000  0.76015500  1
  C  548  1  0.48451400  0.98862600  0.71094000  1
  C  549  1  0.45205700  0.99389900  0.69494600  1
  C  555  1  0.35464600  0.93943300  0.72101500  1
  C  558  1  0.48732800  0.91810400  0.79134800  1
  C  561  1  0.92851800  0.49108300  0.73899500  1
  C  562  1  0.94268500  0.45883700  0.75188100  1
  C  563  1  0.93965300  0.42507900  0.73624200  1
  C  564  1  0.92282200  0.42314100  0.70716800  1
  C  565  1  0.90817200  0.45549600  0.69503500  1
  C  566  1  0.91094900  0.48864400  0.71048500  1
  C  568  1  0.97023400  0.39594200  0.77773800  1
  C  569  1  0.97355500  0.42918600  0.79290500  1
  C  575  1  0.93276100  0.52732500  0.75361000  1
  C  578  1  0.92020500  0.39027900  0.68728400  1
  C  581  1  0.49681300  0.96412000  0.24425600  1
  C  582  1  0.46401300  0.95065900  0.25669500  1
  C  583  1  0.43052800  0.95511800  0.24088600  1
  C  584  1  0.42946800  0.97263000  0.21208800  1
  C  585  1  0.46235200  0.98663000  0.20044300  1
  C  586  1  0.49519800  0.98258100  0.21611400  1
  C  588  1  0.40004400  0.92419900  0.28148300  1
  C  589  1  0.43300600  0.91946400  0.29682100  1
  C  595  1  0.53285900  0.95802500  0.25872900  1
  C  598  1  0.39709700  0.97644900  0.19184800  1
  C  601  1  0.97567000  0.12506000  0.54730400  1
  C  602  1  0.94877500  0.11229000  0.52689300  1
  C  603  1  0.94361200  0.12893700  0.49781900  1
  C  604  1  0.96524500  0.15862200  0.48852900  1
  C  605  1  0.99378100  0.16914100  0.50823500  1
  C  606  1  0.99897100  0.15270100  0.53687000  1
  C  608  1  0.89356800  0.08954900  0.48834400  1
  C  609  1  0.89879600  0.07299900  0.51685100  1
  C  615  1  0.97854000  0.11150400  0.57944600  1
  C  618  1  0.95179200  0.18504600  0.46517200  1
  C  621  1  0.92823500  0.72216400  0.53788600  1
  C  622  1  0.95324200  0.73633100  0.51642200  1
  C  623  1  0.95921500  0.71881200  0.48780900  1
  C  624  1  0.94032400  0.68675800  0.48008300  1
  C  625  1  0.91451700  0.67369700  0.50130100  1
  C  626  1  0.90841200  0.69109400  0.52939500  1
  C  628  1  0.00291800  0.76392200  0.47487300  1
  C  629  1  0.99688300  0.78131100  0.50290800  1
  C  635  1  0.92210300  0.73940700  0.56838400  1
  C  638  1  0.95103700  0.66372800  0.45338600  1
  C  641  1  0.73742800  0.97008900  0.03983900  1
  C  642  1  0.76040700  0.94867600  0.02126400  1
  C  643  1  0.75789900  0.95000600  0.98875900  1
  C  644  1  0.73206900  0.97237700  0.97405500  1
  C  645  1  0.70792200  0.99198600  0.99290500  1
  C  646  1  0.71062000  0.99097100  0.02499500  1
  C  648  1  0.80753200  0.90870900  0.98509200  1
  C  649  1  0.80997000  0.90736300  0.01704900  1
  C  655  1  0.74421100  0.97468300  0.07336300  1
  C  658  1  0.73386700  0.98003000  0.94043600  1
  C  661  1  0.15080700  0.92495000  0.03726500  1
  C  662  1  0.13949400  0.95097500  0.01546700  1
  C  663  1  0.15917200  0.95630300  0.98777400  1
  C  664  1  0.19046200  0.93558500  0.98121700  1
  C  665  1  0.20052500  0.90867800  0.00261800  1
  C  666  1  0.18112500  0.90338000  0.02989400  1
  C  668  1  0.11828600  0.00358600  0.97383800  1
  C  669  1  0.09880800  0.99821900  0.00097600  1
  C  675  1  0.13235600  0.92063700  0.06754100  1
  C  678  1  0.21593100  0.94554500  0.95591300  1
  C  681  1  0.49238300  0.71405200  0.53965700  1
  C  682  1  0.48389500  0.69491300  0.51299200  1
  C  683  1  0.44685400  0.69427100  0.50908800  1
  C  684  1  0.43057600  0.71102600  0.53420300  1
  C  685  1  0.39230000  0.71224700  0.53578300  1
  C  686  1  0.37122400  0.69780100  0.51157900  1
  C  687  1  0.38874300  0.68353200  0.48560400  1
  C  688  1  0.42653800  0.68062900  0.48453500  1
  C  689  1  0.51027000  0.67724300  0.49547100  1
  C  690  1  0.54621300  0.67802000  0.50551500  1
  C  691  1  0.55649400  0.69717400  0.53214100  1
  C  692  1  0.52902300  0.71560100  0.54899800  1
  C  693  1  0.45356400  0.76843000  0.55287400  1
  C  694  1  0.43991400  0.78051100  0.58078600  1
  C  695  1  0.43980400  0.75243000  0.60143900  1
  C  696  1  0.45325400  0.72098700  0.58778400  1
  C  697  1  0.43039100  0.75424300  0.63231200  1
  C  698  1  0.43730900  0.72430100  0.65074200  1
  C  699  1  0.45458000  0.69261200  0.63939500  1
  C  700  1  0.46073600  0.69089600  0.60711100  1
  C  701  1  0.45710300  0.79390000  0.52870500  1
  C  702  1  0.44778200  0.83103200  0.53295200  1
  C  703  1  0.43389200  0.84129600  0.56198900  1
  C  704  1  0.43003600  0.81655600  0.58583900  1
  C  717  1  0.45854700  0.72814800  0.55422100  1
  C  726  1  0.43345600  0.15736600  0.52528700  1
  C  727  1  0.43943400  0.18684100  0.50591900  1
  C  728  1  0.47620700  0.19212500  0.50252600  1
  C  729  1  0.49477000  0.16707900  0.52065900  1
  C  730  1  0.53307200  0.16611600  0.51943300  1
  C  731  1  0.55193700  0.18970200  0.49937300  1
  C  732  1  0.53205200  0.21339800  0.48046600  1
  C  733  1  0.49428000  0.21552300  0.48241900  1
  C  734  1  0.41085400  0.20646700  0.49298000  1
  C  735  1  0.37535000  0.19691600  0.50069500  1
  C  736  1  0.36774700  0.16775500  0.52070500  1
  C  737  1  0.39747500  0.14761200  0.53256600  1
  C  738  1  0.47470900  0.10422300  0.52207500  1
  C  739  1  0.48502300  0.08022880  0.54513500  1
  C  740  1  0.48327100  0.09816980  0.57291800  1
  C  741  1  0.47311700  0.13425100  0.56822200  1
  C  742  1  0.48887500  0.08419980  0.60228200  1
  C  743  1  0.48264500  0.10662200  0.62757000  1
  C  744  1  0.47053300  0.14296200  0.62431700  1
  C  745  1  0.46686300  0.15667000  0.59400800  1
  C  746  1  0.47430000  0.09226880  0.49137500  1
  C  747  1  0.48487800  0.05638280  0.48408800  1
  C  748  1  0.49603800  0.03304580  0.50785500  1
  C  749  1  0.49550600  0.04450780  0.53847200  1
  C  762  1  0.46865800  0.14115500  0.53477400  1
  C  771  1  0.18040800  0.46275700  0.03695620  1
  C  772  1  0.19826600  0.45494000  0.00954919  1
  C  773  1  0.19920400  0.41789700  0.00536819  1
  C  774  1  0.18384800  0.40105800  0.03088920  1
  C  775  1  0.18349600  0.36278700  0.03237620  1
  C  776  1  0.19755200  0.34216900  0.00772719  1
  C  777  1  0.21079300  0.36011900  0.98156200  1
  C  778  1  0.21262400  0.39799000  0.98049500  1
  C  779  1  0.21558200  0.48180000  0.99226700  1
  C  780  1  0.21562800  0.51740800  0.00325219  1
  C  781  1  0.19762800  0.52691200  0.03065220  1
  C  782  1  0.17962200  0.49902700  0.04728920  1
  C  783  1  0.12797900  0.42378000  0.05423720  1
  C  784  1  0.11846400  0.41393300  0.08401120  1
  C  785  1  0.14878300  0.41489600  0.10249800  1
  C  786  1  0.17881400  0.42448700  0.08479220  1
  C  787  1  0.15113900  0.40986000  0.13426600  1
  C  788  1  0.18442900  0.41575700  0.14881400  1
  C  789  1  0.21505800  0.42699900  0.13202600  1
  C  790  1  0.21227700  0.43045800  0.09968320  1
  C  791  1  0.10046000  0.42617300  0.03172320  1
  C  792  1  0.06367620  0.41900200  0.03919820  1
  C  793  1  0.05564020  0.40898000  0.06981020  1
  C  794  1  0.08263620  0.40621900  0.09213720  1
  C  807  1  0.16805900  0.42857700  0.05199520  1
  C  816  1  0.73365800  0.40360200  0.02738920  1
  C  817  1  0.70494700  0.40967300  0.00723619  1
  C  818  1  0.69925300  0.44645400  0.00436619  1
  C  819  1  0.72345700  0.46484700  0.02342320  1
  C  820  1  0.72414400  0.50314500  0.02278220  1
  C  821  1  0.70098300  0.52220500  0.00252619  1
  C  822  1  0.67765000  0.50262800  0.98308000  1
  C  823  1  0.67598800  0.46478000  0.98429000  1
  C  824  1  0.68648600  0.38114600  0.99305300  1
  C  825  1  0.69637900  0.34559000  0.00029719  1
  C  826  1  0.72467900  0.33789600  0.02115420  1
  C  827  1  0.74371400  0.36760300  0.03427320  1
  C  828  1  0.78648400  0.44539400  0.02709520  1
  C  829  1  0.80907200  0.45497700  0.05136720  1
  C  830  1  0.78949500  0.45234800  0.07831720  1
  C  831  1  0.75374400  0.44241600  0.07183520  1
  C  832  1  0.80164000  0.45690100  0.10838900  1
  C  833  1  0.77758100  0.45020500  0.13251000  1
  C  834  1  0.74131600  0.43880500  0.12737800  1
  C  835  1  0.72960800  0.43587400  0.09642920  1
  C  836  1  0.80020100  0.44598100  0.99693600  1
  C  837  1  0.83642200  0.45687100  0.99139700  1
  C  838  1  0.85832300  0.46732700  0.01633620  1
  C  839  1  0.84510400  0.46575500  0.04642620  1
  C  852  1  0.74891000  0.43873400  0.03807220  1
  C  861  1  0.42815100  0.69279100  0.93204000  1
  C  862  1  0.44574100  0.68417100  0.95943300  1
  C  863  1  0.48270300  0.68846500  0.95554300  1
  C  864  1  0.48942700  0.69950900  0.92553300  1
  C  865  1  0.52551500  0.70460000  0.91587800  1
  C  866  1  0.55479600  0.70009800  0.93661500  1
  C  867  1  0.54664100  0.69039400  0.96721900  1
  C  868  1  0.51090400  0.68398500  0.97668700  1
  C  869  1  0.42640200  0.67407000  0.98571500  1
  C  870  1  0.38848000  0.67268700  0.98432700  1
  C  871  1  0.36992200  0.68046500  0.95691500  1
  C  872  1  0.38991800  0.69088300  0.93065600  1
  C  873  1  0.44899800  0.74435600  0.90068100  1
  C  874  1  0.44158000  0.74773500  0.86951400  1
  C  875  1  0.44325100  0.71387900  0.85600400  1
  C  876  1  0.45217500  0.68811700  0.87820100  1
  C  877  1  0.43825400  0.70437400  0.82523400  1
  C  878  1  0.44326900  0.66819500  0.81649600  1
  C  879  1  0.45470500  0.64172800  0.83775000  1
  C  880  1  0.45813500  0.65189000  0.86902500  1
  C  881  1  0.45090000  0.77589600  0.91899600  1
  C  882  1  0.44562600  0.81070400  0.90598200  1
  C  883  1  0.43809200  0.81279700  0.87420500  1
  C  884  1  0.43586100  0.78164900  0.85596100  1
  C  897  1  0.45482800  0.70560500  0.90887300  1
  C  906  1  0.48998200  0.17253500  0.93935300  1
  C  907  1  0.47277400  0.19083600  0.96326700  1
  C  908  1  0.43575800  0.18928100  0.95891300  1
  C  909  1  0.42835300  0.16842800  0.93300100  1
  C  910  1  0.39205900  0.16430200  0.92343700  1
  C  911  1  0.36348000  0.18185400  0.93947400  1
  C  912  1  0.37238000  0.20263400  0.96561400  1
  C  913  1  0.40820400  0.20617100  0.97568900  1
  C  914  1  0.49227300  0.20583200  0.98769400  1
  C  915  1  0.53004300  0.20229800  0.98789100  1
  C  916  1  0.54846700  0.18561700  0.96339700  1
  C  917  1  0.52822600  0.17034800  0.93905200  1
  C  918  1  0.46657800  0.11447900  0.92123400  1
  C  919  1  0.47524400  0.09994280  0.89265300  1
  C  920  1  0.47487800  0.12767300  0.87121500  1
  C  921  1  0.46711300  0.16038700  0.88599100  1
  C  922  1  0.48118900  0.12629500  0.83957500  1
  C  923  1  0.47883600  0.15837900  0.82243000  1
  C  924  1  0.46959400  0.19166300  0.83634400  1
  C  925  1  0.46444100  0.19247900  0.86856800  1
  C  926  1  0.46643500  0.09190180  0.94728500  1
  C  927  1  0.47603500  0.05491580  0.94454900  1
  C  928  1  0.48539800  0.04104480  0.91553500  1
  C  929  1  0.48440800  0.06319680  0.88939300  1
  C  942  1  0.46263500  0.15447300  0.91946200  1
  C  951  1  0.72510600  0.47077300  0.42844300  1
  C  952  1  0.71384800  0.45266600  0.45486900  1
  C  953  1  0.71712700  0.41577200  0.45030000  1
  C  954  1  0.73115000  0.40945000  0.42111000  1
  C  955  1  0.73459000  0.37338600  0.41076100  1
  C  956  1  0.72430200  0.34376800  0.42971900  1
  C  957  1  0.71088200  0.35165300  0.45933400  1
  C  958  1  0.70734500  0.38732200  0.46982500  1
  C  959  1  0.70202300  0.47141300  0.48093900  1
  C  960  1  0.70152600  0.50935600  0.48032700  1
  C  961  1  0.71147600  0.52852500  0.45373900  1
  C  962  1  0.72364300  0.50907600  0.42770500  1
  C  963  1  0.77869600  0.45048800  0.39973900  1
  C  964  1  0.78423700  0.46106700  0.36945900  1
  C  965  1  0.75164800  0.46005800  0.35398700  1
  C  966  1  0.72439200  0.44863900  0.37398400  1
  C  967  1  0.74481400  0.46727400  0.32303700  1
  C  968  1  0.70988200  0.46143000  0.31161800  1
  C  969  1  0.68228200  0.44685500  0.33028700  1
  C  970  1  0.68948800  0.44173800  0.36199400  1
  C  971  1  0.80891800  0.44745100  0.41948400  1
  C  972  1  0.84450900  0.45457900  0.40871600  1
  C  973  1  0.84857800  0.46577200  0.37783400  1
  C  974  1  0.81882500  0.46900600  0.35817900  1
  C  987  1  0.73935400  0.44441200  0.40553300  1
  C  996  1  0.20380500  0.40487700  0.44175200  1
  C  997  1  0.22202600  0.42189600  0.46581500  1
  C  998  1  0.22027300  0.45895800  0.46178100  1
  C  999  1  0.19952500  0.46655200  0.43584700  1
  C  1000  1  0.19521900  0.50294300  0.42659700  1
  C  1001  1  0.21233900  0.53145200  0.44305300  1
  C  1002  1  0.23283400  0.52238100  0.46931100  1
  C  1003  1  0.23667400  0.48643400  0.47899800  1
  C  1004  1  0.23685800  0.40220700  0.49020600  1
  C  1005  1  0.23331600  0.36443700  0.49018100  1
  C  1006  1  0.21665800  0.34622300  0.46556400  1
  C  1007  1  0.20153100  0.36665000  0.44127000  1
  C  1008  1  0.14565700  0.42846000  0.42400700  1
  C  1009  1  0.13081300  0.42075700  0.39534800  1
  C  1010  1  0.15833500  0.42154100  0.37375900  1
  C  1011  1  0.19131100  0.42825500  0.38852200  1
  C  1012  1  0.15646800  0.41638000  0.34197900  1
  C  1013  1  0.18842700  0.41847300  0.32467000  1
  C  1014  1  0.22205000  0.42572200  0.33875200  1
  C  1015  1  0.22337900  0.43028100  0.37100200  1
  C  1016  1  0.12340500  0.42748600  0.45024200  1
  C  1017  1  0.08648120  0.41767600  0.44757100  1
  C  1018  1  0.07227920  0.40937700  0.41843600  1
  C  1019  1  0.09406820  0.41158400  0.39213600  1
  C  1032  1  0.18565000  0.43235900  0.42206800  1
  C  1041  1  0.66511600  0.61456400  0.46221500  1
  C  1042  1  0.64484200  0.60556000  0.48862400  1
  C  1043  1  0.63142200  0.63293100  0.50861300  1
  C  1044  1  0.63704600  0.67015800  0.50211100  1
  C  1045  1  0.65785200  0.67864500  0.47592100  1
  C  1046  1  0.67138800  0.65161000  0.45636200  1
  C  1048  1  0.60563400  0.58686100  0.54042000  1
  C  1049  1  0.61823500  0.56008200  0.52040300  1
  C  1055  1  0.67942400  0.58612200  0.44109400  1
  C  1058  1  0.62373900  0.70082500  0.52169800  1
  C  1061  1  0.25545100  0.25502200  0.46592500  1
  C  1062  1  0.27452300  0.25804200  0.49390100  1
  C  1063  1  0.28788400  0.22682100  0.50928900  1
  C  1064  1  0.28466100  0.19199200  0.49587100  1
  C  1065  1  0.26468800  0.18928900  0.46837900  1
  C  1066  1  0.25032900  0.22001300  0.45377500  1
  C  1068  1  0.31119700  0.26490100  0.54905500  1
  C  1069  1  0.29909300  0.29563100  0.53335600  1
  C  1075  1  0.24259800  0.28771800  0.44901400  1
  C  1078  1  0.30139100  0.15816900  0.50858400  1
  C  1081  1  0.28364000  0.63436400  0.96411400  1
  C  1082  1  0.29198000  0.61490400  0.99110100  1
  C  1083  1  0.26409300  0.60195600  0.01078120  1
  C  1084  1  0.22706600  0.60729600  0.00341119  1
  C  1085  1  0.21920000  0.62716500  0.97658200  1
  C  1086  1  0.24675100  0.64024700  0.95731700  1
  C  1088  1  0.30927600  0.57715700  0.04400120  1
  C  1089  1  0.33660100  0.58941100  0.02435520  1
  C  1095  1  0.31268200  0.64828200  0.94342200  1
  C  1098  1  0.19625100  0.59495900  0.02321820  1
  C  1101  1  0.63934500  0.22496400  0.96442200  1
  C  1102  1  0.63557600  0.24454400  0.99208200  1
  C  1103  1  0.66636600  0.25820500  0.00789319  1
  C  1104  1  0.70155400  0.25475200  0.99519900  1
  C  1105  1  0.70499300  0.23432000  0.96800900  1
  C  1106  1  0.67467600  0.21967800  0.95300400  1
  C  1108  1  0.62720100  0.28213800  0.04664320  1
  C  1109  1  0.59691200  0.26978600  0.03048120  1
  C  1115  1  0.60710900  0.21166300  0.94712700  1
  C  1118  1  0.73505300  0.27182800  0.00820119  1
  C  1121  1  0.24568100  0.25772100  0.00485219  1
  C  1122  1  0.26875700  0.26761800  0.98038400  1
  C  1123  1  0.28502700  0.24089400  0.96133700  1
  C  1124  1  0.27985500  0.20345600  0.96726000  1
  C  1125  1  0.25644900  0.19406400  0.99159200  1
  C  1126  1  0.23979200  0.22047200  0.00996919  1
  C  1128  1  0.31288100  0.28809400  0.93197200  1
  C  1129  1  0.29776300  0.31422300  0.95133000  1
  C  1135  1  0.22781100  0.28545600  0.02459920  1
  C  1138  1  0.29678400  0.17314900  0.94942400  1
  C  1141  1  0.66320100  0.61322500  0.99900500  1
  C  1142  1  0.63625800  0.60753100  0.97645200  1
  C  1143  1  0.62299200  0.63668700  0.95830100  1
  C  1144  1  0.63572700  0.67245000  0.96302500  1
  C  1145  1  0.66282500  0.67760000  0.98546800  1
  C  1146  1  0.67623300  0.64877300  0.00308319  1
  C  1148  1  0.58419700  0.59527000  0.93181200  1
  C  1149  1  0.59658400  0.56682800  0.95022100  1
  C  1155  1  0.67816900  0.58285000  0.01762920  1
  C  1158  1  0.62299800  0.70538300  0.94615500  1
  C  1161  1  0.64186600  0.22930600  0.49383200  1
  C  1162  1  0.63370900  0.25715000  0.47265600  1
  C  1163  1  0.66094600  0.27208000  0.45334900  1
  C  1164  1  0.69749000  0.26060900  0.45582600  1
  C  1165  1  0.70520000  0.23285900  0.47715100  1
  C  1166  1  0.67812300  0.21750300  0.49565200  1
  C  1168  1  0.61633600  0.31076200  0.43058700  1
  C  1169  1  0.58990900  0.29692800  0.45032700  1
  C  1175  1  0.61331000  0.21242900  0.51340300  1
  C  1178  1  0.72860000  0.27552500  0.43768000  1
  C  1181  1  0.28674900  0.65032500  0.50917000  1
  C  1182  1  0.29707500  0.62651500  0.48533900  1
  C  1183  1  0.27071800  0.60995300  0.46610500  1
  C  1184  1  0.23317500  0.61538900  0.47134500  1
  C  1185  1  0.22335100  0.63938300  0.49514300  1
  C  1186  1  0.24941600  0.65646900  0.51358800  1
  C  1188  1  0.31845800  0.58120100  0.43799700  1
  C  1189  1  0.34418700  0.59646900  0.45764600  1
  C  1195  1  0.31410600  0.66873500  0.52894900  1
  C  1198  1  0.20313800  0.59804000  0.45345900  1
  C  1201  1  0.44690400  0.98990700  0.45570300  1
  C  1202  1  0.46706800  0.95862600  0.44778800  1
  C  1203  1  0.46266700  0.92553900  0.46421000  1
  C  1204  1  0.43847400  0.92353400  0.48923400  1
  C  1205  1  0.41794500  0.95484200  0.49624500  1
  C  1206  1  0.42177000  0.98715100  0.47979500  1
  C  1208  1  0.50699100  0.89775500  0.43207300  1
  C  1209  1  0.51145500  0.93032900  0.41605900  1
  C  1215  1  0.45349700  0.02600580  0.44143500  1
  C  1218  1  0.43571600  0.89325400  0.51172500  1
  C  1221  1  0.90417000  0.41914400  0.96408200  1
  C  1222  1  0.93605300  0.43818400  0.95592600  1
  C  1223  1  0.96899200  0.43302400  0.97240800  1
  C  1224  1  0.97027400  0.40923600  0.99779300  1
  C  1225  1  0.93842300  0.38963100  0.00489819  1
  C  1226  1  0.90619000  0.39433400  0.98847000  1
  C  1228  1  0.99828700  0.47536000  0.93925500  1
  C  1229  1  0.96583000  0.48063300  0.92326100  1
  C  1235  1  0.86841900  0.42616700  0.94933000  1
  C  1238  1  0.00110118  0.40483800  0.01966320  1
  C  1241  1  0.44229100  0.97781700  0.96731000  1
  C  1242  1  0.45645800  0.94557100  0.98019600  1
  C  1243  1  0.45342600  0.91181300  0.96455700  1
  C  1244  1  0.43659500  0.90987500  0.93548300  1
  C  1245  1  0.42194500  0.94223000  0.92335000  1
  C  1246  1  0.42472200  0.97537800  0.93880000  1
  C  1248  1  0.48400700  0.88267600  0.00605319  1
  C  1249  1  0.48732800  0.91592000  0.02122020  1
  C  1255  1  0.44653400  0.01405880  0.98192500  1
  C  1258  1  0.43397800  0.87701300  0.91559900  1
  C  1261  1  0.01058620  0.45085400  0.47257100  1
  C  1262  1  0.97778600  0.43739300  0.48501000  1
  C  1263  1  0.94430100  0.44185200  0.46920100  1
  C  1264  1  0.94324100  0.45936400  0.44040300  1
  C  1265  1  0.97612500  0.47336400  0.42875800  1
  C  1266  1  0.00897118  0.46931500  0.44442900  1
  C  1268  1  0.91381700  0.41093300  0.50979800  1
  C  1269  1  0.94677900  0.40619800  0.52513600  1
  C  1275  1  0.04663220  0.44475900  0.48704400  1
  C  1278  1  0.91087000  0.46318300  0.42016300  1
  C  1281  1  0.48944300  0.61179400  0.77561900  1
  C  1282  1  0.46254800  0.59902400  0.75520800  1
  C  1283  1  0.45738500  0.61567100  0.72613400  1
  C  1284  1  0.47901800  0.64535600  0.71684400  1
  C  1285  1  0.50755400  0.65587500  0.73655000  1
  C  1286  1  0.51274400  0.63943500  0.76518500  1
  C  1288  1  0.40734100  0.57628300  0.71665900  1
  C  1289  1  0.41256900  0.55973300  0.74516600  1
  C  1295  1  0.49231300  0.59823800  0.80776100  1
  C  1298  1  0.46556500  0.67178000  0.69348700  1
  C  1301  1  0.44200800  0.20889800  0.76620100  1
  C  1302  1  0.46701500  0.22306500  0.74473700  1
  C  1303  1  0.47298800  0.20554600  0.71612400  1
  C  1304  1  0.45409700  0.17349200  0.70839800  1
  C  1305  1  0.42829000  0.16043100  0.72961600  1
  C  1306  1  0.42218500  0.17782800  0.75771000  1
  C  1308  1  0.51669100  0.25065600  0.70318800  1
  C  1309  1  0.51065600  0.26804500  0.73122300  1
  C  1315  1  0.43587600  0.22614100  0.79669900  1
  C  1318  1  0.46481000  0.15046200  0.68170100  1
  C  1321  1  0.25120100  0.45682300  0.26815400  1
  C  1322  1  0.27418000  0.43541000  0.24957900  1
  C  1323  1  0.27167200  0.43674000  0.21707400  1
  C  1324  1  0.24584200  0.45911100  0.20237000  1
  C  1325  1  0.22169500  0.47872000  0.22122000  1
  C  1326  1  0.22439300  0.47770500  0.25331000  1
  C  1328  1  0.32130500  0.39544300  0.21340700  1
  C  1329  1  0.32374300  0.39409700  0.24536400  1
  C  1335  1  0.25798400  0.46141700  0.30167800  1
  C  1338  1  0.24764000  0.46676400  0.16875100  1
  C  1341  1  0.66458000  0.41168400  0.26558000  1
  C  1342  1  0.65326700  0.43770900  0.24378200  1
  C  1343  1  0.67294500  0.44303700  0.21608900  1
  C  1344  1  0.70423500  0.42231900  0.20953200  1
  C  1345  1  0.71429800  0.39541200  0.23093300  1
  C  1346  1  0.69489800  0.39011400  0.25820900  1
  C  1348  1  0.63205900  0.49032000  0.20215300  1
  C  1349  1  0.61258100  0.48495300  0.22929100  1
  C  1355  1  0.64612900  0.40737100  0.29585600  1
  C  1358  1  0.72970400  0.43227900  0.18422800  1
  N  38  1  0.95257500  0.17721000  0.43146100  1
  N  40  1  0.07908000  0.20694400  0.31470300  1
  N  42  1  0.81919900  0.21076900  0.28295800  1
  N  44  1  0.93939500  0.37004200  0.28028900  1
  N  83  1  0.94748300  0.67883600  0.42175100  1
  N  85  1  0.81768800  0.67547800  0.30287400  1
  N  87  1  0.07601600  0.70189700  0.26624800  1
  N  89  1  0.97307600  0.55656700  0.22529200  1
  N  128  1  0.73360700  0.94716000  0.92040100  1
  N  130  1  0.68870100  0.07572600  0.81460400  1
  N  132  1  0.68481400  0.81720500  0.77888600  1
  N  134  1  0.52230500  0.93827700  0.78833600  1
  N  173  1  0.20298900  0.94294100  0.92354300  1
  N  175  1  0.21668800  0.81471100  0.80283900  1
  N  177  1  0.18823800  0.07335700  0.76993900  1
  N  179  1  0.33749400  0.97282500  0.73324200  1
  N  218  1  0.94596200  0.11882000  0.59877100  1
  N  220  1  0.81791300  0.19241400  0.72982400  1
  N  222  1  0.07718200  0.21715300  0.69700300  1
  N  224  1  0.93697800  0.35516900  0.69657900  1
  N  263  1  0.95390600  0.73657300  0.58935700  1
  N  265  1  0.07289600  0.69777200  0.73698400  1
  N  267  1  0.81337200  0.69551500  0.69986900  1
  N  269  1  0.96604000  0.54535400  0.74207500  1
  N  308  1  0.13433800  0.95293100  0.08808700  1
  N  310  1  0.19640200  0.07999500  0.22732200  1
  N  312  1  0.20869300  0.82101900  0.18930300  1
  N  314  1  0.36073300  0.96209800  0.20063500  1
  N  353  1  0.73941400  0.94068200  0.09137700  1
  N  355  1  0.70165200  0.82128500  0.23895500  1
  N  357  1  0.69888000  0.08119900  0.20377100  1
  N  359  1  0.55038900  0.92554600  0.24519900  1
  N  367  1  0.09886500  0.13520200  0.30537600  1
  N  370  1  0.12352300  0.08372100  0.26717000  1
  N  387  1  0.79155000  0.74529400  0.30801800  1
  N  390  1  0.76746700  0.80418100  0.27832800  1
  N  407  1  0.76061000  0.09711100  0.80810400  1
  N  410  1  0.81313900  0.12102700  0.77054800  1
  N  427  1  0.14663100  0.78933000  0.80631200  1
  N  430  1  0.08859300  0.76474600  0.77577500  1
  N  447  1  0.79225400  0.76605000  0.70953300  1
  N  450  1  0.76256100  0.81623700  0.74623300  1
  N  467  1  0.08402800  0.14207200  0.70832800  1
  N  470  1  0.10828500  0.08733700  0.74328100  1
  N  487  1  0.13674900  0.81120300  0.20472600  1
  N  490  1  0.08586000  0.78401800  0.24203300  1
  N  507  1  0.76928900  0.10167800  0.21482500  1
  N  510  1  0.81872300  0.13176600  0.25198500  1
  N  527  1  0.96926300  0.40997700  0.22717300  1
  N  530  1  0.97771500  0.47265500  0.19621800  1
  N  547  1  0.48475000  0.96527800  0.73480800  1
  N  550  1  0.42233700  0.97523500  0.70387100  1
  N  567  1  0.95360400  0.39528300  0.75016400  1
  N  570  1  0.95972900  0.45915200  0.77945000  1
  N  587  1  0.40017800  0.94162700  0.25425900  1
  N  590  1  0.46351400  0.93279000  0.28388500  1
  N  607  1  0.91587400  0.11693800  0.48005600  1
  N  610  1  0.92586100  0.08513700  0.53504600  1
  N  627  1  0.98405400  0.73341200  0.46846000  1
  N  630  1  0.97252500  0.76684600  0.52256100  1
  N  647  1  0.78189700  0.93004700  0.97227900  1
  N  650  1  0.78662900  0.92750300  0.03380400  1
  N  667  1  0.14767300  0.98264400  0.96835200  1
  N  670  1  0.11020800  0.97239600  0.02073100  1
  N  718  1  0.46634800  0.66394400  0.65977600  1
  N  720  1  0.59285300  0.69367800  0.54301800  1
  N  722  1  0.33297200  0.69750300  0.51127300  1
  N  724  1  0.45316800  0.85677600  0.50860400  1
  N  763  1  0.46125600  0.16557000  0.65006600  1
  N  765  1  0.33146100  0.16221200  0.53118900  1
  N  767  1  0.58978900  0.18863100  0.49456300  1
  N  769  1  0.48684900  0.04330080  0.45360700  1
  N  808  1  0.24738000  0.43389400  0.14871600  1
  N  810  1  0.20247400  0.56246000  0.04291920  1
  N  812  1  0.19858700  0.30393900  0.00720119  1
  N  814  1  0.03607820  0.42501100  0.01665120  1
  N  853  1  0.71676200  0.42967500  0.15185800  1
  N  855  1  0.73046100  0.30144500  0.03115420  1
  N  857  1  0.70201100  0.56009100  0.99825400  1
  N  859  1  0.85126700  0.45955900  0.96155700  1
  N  898  1  0.45973500  0.60555400  0.82708600  1
  N  900  1  0.33168600  0.67914800  0.95813900  1
  N  902  1  0.59095500  0.70388700  0.92531800  1
  N  904  1  0.45075100  0.84190300  0.92489400  1
  N  943  1  0.46767900  0.22330700  0.81767200  1
  N  945  1  0.58666900  0.18450600  0.96529900  1
  N  947  1  0.32714500  0.18224900  0.92818400  1
  N  949  1  0.47981300  0.03208780  0.97039000  1
  N  988  1  0.64811100  0.43966500  0.31640200  1
  N  990  1  0.71017500  0.56672900  0.45563700  1
  N  992  1  0.72246600  0.30775300  0.41761800  1
  N  994  1  0.87450600  0.44883200  0.42895000  1
  N  1033  1  0.25318700  0.42741600  0.31969200  1
  N  1035  1  0.21542500  0.30801900  0.46727000  1
  N  1037  1  0.21265300  0.56793300  0.43208600  1
  N  1039  1  0.06416220  0.41228000  0.47351400  1
  N  1047  1  0.61263800  0.62193600  0.53369100  1
  N  1050  1  0.63729600  0.57045500  0.49548500  1
  N  1067  1  0.30532300  0.23202800  0.53633300  1
  N  1070  1  0.28124000  0.29091500  0.50664300  1
  N  1087  1  0.27438300  0.58384500  0.03641920  1
  N  1090  1  0.32691200  0.60776100  0.99886300  1
  N  1107  1  0.66040400  0.27606400  0.03462720  1
  N  1110  1  0.60236600  0.25148000  0.00409019  1
  N  1127  1  0.30602700  0.25278400  0.93784800  1
  N  1130  1  0.27633400  0.30297100  0.97454800  1
  N  1147  1  0.59780100  0.62880600  0.93664300  1
  N  1150  1  0.62205800  0.57407100  0.97159600  1
  N  1167  1  0.65052200  0.29793700  0.43304100  1
  N  1170  1  0.59963300  0.27075200  0.47034800  1
  N  1187  1  0.28306200  0.58841200  0.44314000  1
  N  1190  1  0.33249600  0.61850000  0.48030000  1
  N  1207  1  0.48303600  0.89671100  0.45548800  1
  N  1210  1  0.49148800  0.95938900  0.42453300  1
  N  1227  1  0.99852300  0.45201200  0.96312300  1
  N  1230  1  0.93611000  0.46196900  0.93218600  1
  N  1247  1  0.46737700  0.88201700  0.97847900  1
  N  1250  1  0.47350200  0.94588600  0.00776519  1
  N  1267  1  0.91395100  0.42836100  0.48257400  1
  N  1270  1  0.97728700  0.41952400  0.51220000  1
  N  1287  1  0.42964700  0.60367200  0.70837100  1
  N  1290  1  0.43963400  0.57187100  0.76336100  1
  N  1307  1  0.49782700  0.22014600  0.69677500  1
  N  1310  1  0.48629800  0.25358000  0.75087600  1
  N  1327  1  0.29567000  0.41678100  0.20059400  1
  N  1330  1  0.30040200  0.41423700  0.26211900  1
  N  1347  1  0.66144600  0.46937800  0.19666700  1
  N  1350  1  0.62398100  0.45913000  0.24904600  1
