# generated using pymatgen
data_H29C48(N3O2)2
_symmetry_space_group_name_H-M   'P 1'
_cell_length_a   76.65110000
_cell_length_b   76.65110000
_cell_length_c   76.63450000
_cell_angle_alpha   90.00000000
_cell_angle_beta   90.00000000
_cell_angle_gamma   90.00000000
_symmetry_Int_Tables_number   1
_chemical_formula_structural   H29C48(N3O2)2
_chemical_formula_sum   'H696 C1152 N144 O96'
_cell_volume   450257.66164471
_cell_formula_units_Z   24
loop_
 _symmetry_equiv_pos_site_id
 _symmetry_equiv_pos_as_xyz
  1  'x, y, z'
loop_
 _atom_site_type_symbol
 _atom_site_label
 _atom_site_symmetry_multiplicity
 _atom_site_fract_x
 _atom_site_fract_y
 _atom_site_fract_z
 _atom_site_occupancy
  H  3  1  0.47747500  0.00412500  0.09903000  1
  H  4  1  0.47647500  0.00312100  0.06783500  1
  H  14  1  0.53260900  0.00323300  0.09721100  1
  H  15  1  0.53153200  0.00258900  0.06602800  1
  H  16  1  0.50383000  0.03753000  0.05673000  1
  H  17  1  0.50360500  0.05994500  0.03243400  1
  H  18  1  0.50251600  0.01151200  0.01024000  1
  H  21  1  0.48926100  0.15605600  0.01383100  1
  H  22  1  0.48749300  0.12508100  0.01488400  1
  H  26  1  0.51802100  0.20745700  0.01263000  1
  H  28  1  0.52234700  0.29041200  0.01495500  1
  H  33  1  0.47014600  0.34930200  0.02035400  1
  H  34  1  0.47320900  0.38016900  0.02060500  1
  H  38  1  0.51416000  0.31864000  0.00086700  1
  H  41  1  0.06852200  0.47634500  0.00194800  1
  H  43  1  0.18147700  0.48277100  0.00061200  1
  H  44  1  0.09971200  0.47732000  0.00296400  1
  H  48  1  0.20819900  0.47474900  0.01797000  1
  H  53  1  0.29618800  0.47912700  0.01455200  1
  H  55  1  0.27329400  0.46890900  0.04098500  1
  H  57  1  0.23416600  0.46672000  0.04247400  1
  H  66  1  0.48953500  0.49074300  0.00227000  1
  H  67  1  0.44131500  0.46807900  0.00184400  1
  H  68  1  0.46395000  0.44400500  0.00229100  1
  H  69  1  0.49669600  0.43459300  0.03050900  1
  H  70  1  0.49505500  0.40339900  0.03097800  1
  H  80  1  0.55831200  0.46402100  0.00322600  1
  H  81  1  0.53415700  0.44129200  0.00328700  1
  H  82  1  0.59832300  0.49605000  0.03114700  1
  H  83  1  0.56711900  0.49753100  0.03062100  1
  H  91  1  0.62146400  0.47393300  0.02099800  1
  H  92  1  0.65231800  0.47071500  0.02071800  1
  H  97  1  0.87654400  0.48722100  0.01464800  1
  H  98  1  0.84556500  0.48894100  0.01359400  1
  H  101  1  0.99891800  0.47643700  0.06748500  1
  H  102  1  0.99741800  0.47770000  0.09866700  1
  H  112  1  0.06676700  0.53140100  0.00124700  1
  H  113  1  0.05759000  0.50372900  0.03629600  1
  H  114  1  0.03339400  0.50368500  0.05881700  1
  H  115  1  0.01098900  0.50264800  0.01047400  1
  H  116  1  0.09794000  0.53245300  0.00189800  1
  H  122  1  0.15401600  0.52684400  0.02174800  1
  H  123  1  0.12298400  0.52527200  0.02214000  1
  H  131  1  0.37835700  0.52395700  0.02358700  1
  H  132  1  0.34736100  0.52335200  0.02558100  1
  H  144  1  0.46707500  0.56104000  0.00166300  1
  H  145  1  0.44290700  0.53831700  0.00169900  1
  H  146  1  0.43437500  0.50307800  0.02986000  1
  H  147  1  0.40321300  0.50368600  0.03081800  1
  H  157  1  0.50222500  0.56734900  0.02989200  1
  H  158  1  0.53726600  0.55832600  0.00249800  1
  H  159  1  0.55990200  0.53425700  0.00301800  1
  H  160  1  0.51169700  0.51157900  0.00170700  1
  H  161  1  0.50308900  0.59850500  0.03089500  1
  H  163  1  0.68312300  0.51438800  0.00079800  1
  H  167  1  0.79429900  0.51765100  0.01245100  1
  H  169  1  0.71140900  0.52244300  0.01487800  1
  H  179  1  0.96381000  0.50336500  0.05686000  1
  H  180  1  0.94120500  0.50317300  0.03257900  1
  H  181  1  0.99734400  0.53282200  0.09634300  1
  H  182  1  0.99852800  0.53148000  0.06518600  1
  H  188  1  0.52297500  0.65431400  0.02578600  1
  H  189  1  0.52354100  0.62331300  0.02376100  1
  H  195  1  0.47412400  0.79343400  0.01789300  1
  H  200  1  0.47879800  0.70545400  0.01459000  1
  H  202  1  0.46840400  0.72833500  0.04093900  1
  H  204  1  0.46606900  0.76743800  0.04238500  1
  H  206  1  0.48218600  0.82018400  0.00057700  1
  H  212  1  0.52465800  0.87844900  0.02279100  1
  H  213  1  0.52616500  0.84741800  0.02221500  1
  H  218  1  0.47597100  0.93311600  0.00275500  1
  H  219  1  0.47689600  0.90191400  0.00346800  1
  H  229  1  0.50366700  0.96799700  0.06012100  1
  H  230  1  0.50345400  0.94361100  0.03762700  1
  H  231  1  0.53103300  0.93479400  0.00237100  1
  H  232  1  0.53203500  0.90361400  0.00273000  1
  H  234  1  0.48287600  0.00152600  0.18071600  1
  H  240  1  0.52690600  0.02291100  0.15338800  1
  H  241  1  0.52534800  0.02340000  0.12234600  1
  H  246  1  0.01473100  0.48952100  0.15507900  1
  H  247  1  0.01582300  0.48776200  0.12409600  1
  H  249  1  0.99735800  0.48422300  0.18056100  1
  H  255  1  0.97609000  0.52512200  0.12054800  1
  H  256  1  0.97509200  0.52700200  0.15153700  1
  H  261  1  0.48807800  0.98444000  0.15469000  1
  H  262  1  0.48669200  0.98476500  0.12368400  1
  H  266  1  0.47476600  0.01883500  0.20743000  1
  H  271  1  0.47903000  0.01539500  0.29544100  1
  H  273  1  0.46876000  0.04179400  0.27253800  1
  H  275  1  0.46662500  0.04329300  0.23340400  1
  H  280  1  0.98063600  0.47484500  0.20702300  1
  H  286  1  0.98295400  0.47963400  0.29500400  1
  H  288  1  0.95783100  0.46668600  0.27209000  1
  H  290  1  0.95666900  0.46453500  0.23281400  1
  H  295  1  0.01376400  0.51809200  0.20639000  1
  H  297  1  0.01619100  0.52241800  0.28931700  1
  H  304  1  0.51454800  0.98170300  0.20658700  1
  H  306  1  0.51764300  0.97750700  0.28963200  1
  H  312  1  0.52384400  0.02449300  0.37764300  1
  H  313  1  0.52323400  0.02650100  0.34664000  1
  H  321  1  0.02125000  0.47031000  0.34819300  1
  H  322  1  0.02151400  0.47340500  0.37907200  1
  H  326  1  0.00199500  0.51438900  0.31755500  1
  H  329  1  0.98808100  0.51653400  0.37508400  1
  H  330  1  0.98732700  0.51311500  0.34426500  1
  H  333  1  0.48469500  0.98636400  0.37589300  1
  H  334  1  0.48427500  0.98817900  0.34490900  1
  H  336  1  0.50127300  0.98393200  0.31813100  1
  H  339  1  0.00007500  0.06797200  0.47580800  1
  H  340  1  0.00137700  0.09917300  0.47598400  1
  H  343  1  0.15592900  0.01462600  0.48833900  1
  H  344  1  0.12494400  0.01576100  0.48670800  1
  H  349  1  0.34917700  0.02103000  0.46925900  1
  H  350  1  0.38004500  0.02128900  0.47232300  1
  H  363  1  0.49061000  0.00313700  0.48881500  1
  H  364  1  0.46797200  0.00268900  0.44057300  1
  H  365  1  0.44388500  0.00311700  0.46319900  1
  H  366  1  0.43445800  0.03133200  0.49581500  1
  H  367  1  0.40326600  0.03179600  0.49415100  1
  H  377  1  0.56092000  0.00247700  0.46638300  1
  H  378  1  0.53820800  0.00253500  0.44219900  1
  H  379  1  0.50293300  0.03072900  0.43366800  1
  H  380  1  0.50354500  0.03170000  0.40249900  1
  H  384  1  0.79330000  0.01863400  0.47337200  1
  H  389  1  0.70531300  0.01522200  0.47788100  1
  H  391  1  0.72817400  0.04150500  0.46729300  1
  H  393  1  0.76727900  0.04299400  0.46502300  1
  H  395  1  0.82006800  0.00139400  0.48167100  1
  H  398  1  0.93314100  0.00306800  0.47603600  1
  H  399  1  0.90193200  0.00385300  0.47675500  1
  H  402  1  0.98499800  0.15563000  0.48657100  1
  H  403  1  0.98314400  0.12466400  0.48718000  1
  H  407  1  0.01388600  0.20730800  0.48154400  1
  H  409  1  0.01840300  0.29018100  0.47740500  1
  H  414  1  0.00317900  0.31883700  0.48332700  1
  H  417  1  0.98937100  0.37672000  0.48169900  1
  H  418  1  0.98822700  0.34580600  0.48417900  1
  H  426  1  0.00359500  0.48983600  0.48958200  1
  H  427  1  0.00442300  0.44162100  0.46690500  1
  H  428  1  0.00420500  0.46424600  0.44283200  1
  H  429  1  0.03145900  0.49714000  0.43343800  1
  H  430  1  0.03193400  0.49545500  0.40223500  1
  H  432  1  0.97737100  0.43351400  0.49939000  1
  H  435  1  0.97750300  0.49857200  0.40131100  1
  H  445  1  0.00265300  0.55858400  0.46282000  1
  H  446  1  0.00342700  0.53443900  0.44009800  1
  H  447  1  0.03151800  0.59808000  0.49588000  1
  H  448  1  0.03044700  0.56693800  0.49735000  1
  H  450  1  0.97711100  0.50045200  0.43247900  1
  H  453  1  0.97602400  0.56877200  0.49802400  1
  H  459  1  0.02335300  0.62193400  0.47426600  1
  H  460  1  0.02549500  0.65290600  0.47339100  1
  H  464  1  0.98457200  0.68279600  0.49751900  1
  H  465  1  0.97701800  0.59995700  0.49626500  1
  H  470  1  0.98127800  0.79415800  0.48447800  1
  H  472  1  0.97615200  0.71123400  0.48246500  1
  H  475  1  0.01554900  0.87653700  0.48654500  1
  H  476  1  0.01258800  0.84565900  0.48624700  1
  H  479  1  0.06811300  0.99899700  0.47593100  1
  H  480  1  0.09930100  0.99743900  0.47691200  1
  H  481  1  0.99971200  0.93394000  0.47555900  1
  H  483  1  0.18149300  0.99737100  0.48312100  1
  H  488  1  0.20796300  0.98068300  0.47372700  1
  H  494  1  0.29592800  0.98287800  0.47857600  1
  H  496  1  0.27297500  0.95781700  0.46555100  1
  H  498  1  0.23370800  0.95671600  0.46339200  1
  H  501  1  0.40233500  0.97740500  0.49783200  1
  H  504  1  0.50343300  0.97630800  0.43205700  1
  H  505  1  0.50441500  0.97720200  0.40084400  1
  H  508  1  0.65595500  0.98807200  0.48346400  1
  H  509  1  0.62498500  0.98623600  0.48390100  1
  H  516  1  0.87709600  0.98456300  0.48593000  1
  H  517  1  0.84607900  0.98437700  0.48711500  1
  H  520  1  0.99828200  0.90277900  0.47583000  1
  H  530  1  0.00466000  0.06740800  0.53072400  1
  H  531  1  0.03701000  0.05772500  0.50255600  1
  H  532  1  0.05958800  0.03358800  0.50247300  1
  H  533  1  0.01130400  0.01106000  0.50313000  1
  H  534  1  0.00579300  0.09863700  0.53098300  1
  H  539  1  0.20732800  0.01370000  0.51706500  1
  H  541  1  0.29027200  0.01602000  0.52144300  1
  H  543  1  0.31850600  0.00184100  0.51339900  1
  H  551  1  0.46385600  0.00403500  0.55759100  1
  H  552  1  0.44113700  0.00411400  0.53342200  1
  H  553  1  0.49584300  0.03195200  0.59761900  1
  H  554  1  0.49733400  0.03142800  0.56640800  1
  H  566  1  0.56722100  0.03072300  0.50137300  1
  H  567  1  0.55817100  0.00338100  0.53658600  1
  H  568  1  0.53408900  0.00388300  0.55921300  1
  H  569  1  0.51143700  0.00249500  0.51098800  1
  H  570  1  0.59837900  0.03172000  0.50223300  1
  H  576  1  0.65420100  0.02674200  0.52208200  1
  H  577  1  0.62319800  0.02471800  0.52270700  1
  H  585  1  0.87833700  0.02352000  0.52426800  1
  H  586  1  0.84729600  0.02317800  0.52562000  1
  H  598  1  0.96745800  0.06064200  0.50389400  1
  H  599  1  0.94322300  0.03799300  0.50386100  1
  H  600  1  0.93446000  0.00280000  0.53112100  1
  H  601  1  0.90327200  0.00325200  0.53191800  1
  H  607  1  0.02849400  0.15362600  0.51958800  1
  H  608  1  0.02689800  0.12260300  0.51977800  1
  H  612  1  0.98275200  0.18182600  0.50317000  1
  H  616  1  0.97464700  0.20876700  0.51921700  1
  H  621  1  0.97940900  0.29664700  0.51479000  1
  H  623  1  0.96854100  0.27414900  0.54122100  1
  H  625  1  0.96615700  0.23510200  0.54317200  1
  H  631  1  0.02010300  0.37923000  0.52694800  1
  H  632  1  0.01935400  0.34825900  0.52920800  1
  H  644  1  0.00271700  0.46736800  0.55988800  1
  H  645  1  0.00339900  0.44320800  0.53716100  1
  H  646  1  0.03155400  0.43426600  0.50485200  1
  H  647  1  0.03192300  0.40302000  0.50574100  1
  H  650  1  0.97766500  0.40230600  0.50040300  1
  H  660  1  0.03168200  0.50323300  0.59737300  1
  H  661  1  0.03066900  0.50239300  0.56621100  1
  H  662  1  0.00288600  0.53757900  0.55714900  1
  H  663  1  0.00273700  0.56020200  0.53304800  1
  H  664  1  0.00168700  0.51196500  0.51042200  1
  H  667  1  0.97719700  0.50465200  0.59908000  1
  H  668  1  0.97625700  0.50344100  0.56787600  1
  H  671  1  0.98933600  0.65655400  0.51430600  1
  H  672  1  0.98729200  0.62560100  0.51523800  1
  H  678  1  0.02364100  0.79325100  0.51856700  1
  H  683  1  0.01891500  0.70535200  0.51550400  1
  H  685  1  0.03196900  0.72803000  0.54076000  1
  H  687  1  0.03411600  0.76729900  0.54226600  1
  H  689  1  0.01458100  0.81974800  0.50295000  1
  H  694  1  0.97017500  0.84947100  0.52051900  1
  H  695  1  0.97281700  0.88039600  0.52033600  1
  H  707  1  0.05778700  0.96399400  0.50335400  1
  H  708  1  0.03354800  0.94135000  0.50336600  1
  H  709  1  0.09747800  0.99755400  0.53206100  1
  H  710  1  0.06632400  0.99881500  0.53100400  1
  H  716  1  0.12149500  0.97616200  0.52422500  1
  H  717  1  0.15247800  0.97511600  0.52597200  1
  H  722  1  0.37608100  0.98804700  0.51560700  1
  H  723  1  0.34526700  0.98729400  0.51221800  1
  H  724  1  0.43349400  0.97702800  0.49970700  1
  H  727  1  0.49847400  0.97749700  0.59858400  1
  H  730  1  0.56885600  0.97631000  0.50248400  1
  H  731  1  0.50018500  0.97705600  0.56741000  1
  H  732  1  0.60005300  0.97723200  0.50371400  1
  H  733  1  0.68268900  0.98398100  0.50051700  1
  H  737  1  0.79422500  0.98185900  0.51350100  1
  H  739  1  0.71123000  0.97770300  0.51685300  1
  H  750  1  0.98972200  0.99094900  0.50311300  1
  H  751  1  0.94143500  0.96841700  0.50259000  1
  H  752  1  0.96400300  0.94428900  0.50240400  1
  H  753  1  0.99662900  0.93472500  0.53053700  1
  H  754  1  0.99476700  0.90354600  0.53089300  1
  H  760  1  0.47373100  0.02178400  0.62075600  1
  H  761  1  0.47051100  0.02150600  0.65161600  1
  H  765  1  0.51419500  0.00161600  0.68242900  1
  H  768  1  0.98805200  0.48443500  0.65500400  1
  H  769  1  0.98620400  0.48487500  0.62402400  1
  H  775  1  0.02674300  0.52301900  0.65323200  1
  H  776  1  0.02470600  0.52364800  0.62222800  1
  H  780  1  0.98397200  0.50145900  0.68174000  1
  H  783  1  0.51289900  0.98708400  0.65565500  1
  H  784  1  0.51645300  0.98785400  0.62485300  1
  H  789  1  0.51732900  0.01306900  0.79365800  1
  H  791  1  0.52220900  0.01564500  0.71076200  1
  H  795  1  0.01830700  0.47411600  0.79240800  1
  H  800  1  0.01528300  0.47895600  0.70440300  1
  H  802  1  0.04153500  0.46841900  0.72736600  1
  H  804  1  0.04283800  0.46601300  0.76648200  1
  H  811  1  0.98132700  0.51404100  0.79332400  1
  H  813  1  0.97753500  0.51769500  0.71029600  1
  H  818  1  0.47368900  0.98045800  0.79266600  1
  H  824  1  0.47907200  0.98292100  0.70472200  1
  H  826  1  0.46567800  0.95790400  0.72750500  1
  H  828  1  0.46326700  0.95668300  0.76676200  1
  H  831  1  0.48683100  0.01516300  0.87585900  1
  H  832  1  0.48857500  0.01411900  0.84487700  1
  H  834  1  0.00094600  0.48221000  0.81913200  1
  H  837  1  0.98433800  0.48619400  0.87625400  1
  H  838  1  0.98398700  0.48753600  0.84523900  1
  H  844  1  0.02329200  0.52452700  0.87747800  1
  H  845  1  0.02277700  0.52604500  0.84644100  1
  H  849  1  0.48312200  0.99698800  0.81924500  1
  H  855  1  0.52550200  0.97396300  0.84832700  1
  H  856  1  0.52363500  0.97491800  0.87931900  1
  H  861  1  0.47613500  0.06843900  0.99818200  1
  H  871  1  0.50288600  0.05766800  0.96284000  1
  H  872  1  0.50267500  0.03327900  0.94035200  1
  H  873  1  0.53245700  0.09737000  0.99605000  1
  H  874  1  0.53117300  0.06622300  0.99729400  1
  H  875  1  0.47733700  0.09961400  0.99662400  1
  H  877  1  0.48392100  0.18163100  0.99660900  1
  H  883  1  0.52460800  0.12157900  0.97491900  1
  H  884  1  0.52650100  0.15255900  0.97396100  1
  H  891  1  0.47438700  0.20807900  0.98000400  1
  H  897  1  0.47919100  0.29604300  0.98218700  1
  H  899  1  0.46595900  0.27308900  0.95723100  1
  H  901  1  0.46382200  0.23382100  0.95613500  1
  H  905  1  0.51627000  0.37622300  0.98708500  1
  H  906  1  0.51287800  0.34540900  0.98633900  1
  H  909  1  0.00302700  0.47595900  0.93213000  1
  H  910  1  0.00370200  0.47687200  0.90091700  1
  H  913  1  0.15547300  0.48782300  0.98347000  1
  H  914  1  0.12447100  0.48642600  0.98369100  1
  H  920  1  0.37662100  0.48478900  0.98547100  1
  H  921  1  0.34564100  0.48437400  0.98727300  1
  H  924  1  0.49846800  0.40247700  0.97655800  1
  H  925  1  0.50032800  0.43363800  0.97617700  1
  H  928  1  0.59928700  0.49863300  0.97667900  1
  H  933  1  0.79341300  0.47397800  0.97987700  1
  H  939  1  0.70547300  0.47925900  0.98219100  1
  H  941  1  0.72830700  0.46587300  0.95721400  1
  H  943  1  0.76755700  0.46349900  0.95606300  1
  H  945  1  0.81995400  0.48345600  0.99643900  1
  H  948  1  0.93323800  0.47590700  0.99817700  1
  H  949  1  0.90206400  0.47698200  0.99645200  1
  H  959  1  0.06066100  0.50344100  0.96672900  1
  H  960  1  0.03805300  0.50327900  0.94244900  1
  H  961  1  0.00291700  0.53102300  0.93379400  1
  H  962  1  0.00324100  0.53201700  0.90260700  1
  H  966  1  0.20731100  0.51443100  0.98072800  1
  H  968  1  0.29034500  0.51764000  0.97656500  1
  H  970  1  0.31885500  0.50133400  0.98302300  1
  H  973  1  0.43278600  0.50350400  0.97542800  1
  H  974  1  0.40157900  0.50447900  0.97630700  1
  H  977  1  0.50299600  0.56900400  0.97546300  1
  H  978  1  0.56812000  0.50033100  0.97623500  1
  H  981  1  0.65635100  0.51306500  0.98624600  1
  H  982  1  0.62555300  0.51661800  0.98701500  1
  H  988  1  0.84899900  0.52585900  0.97342200  1
  H  989  1  0.87998500  0.52401500  0.97438400  1
  H  1002  1  0.99089900  0.50250300  0.98885400  1
  H  1003  1  0.96847400  0.50295000  0.94051000  1
  H  1004  1  0.94428900  0.50285300  0.96302400  1
  H  1005  1  0.93524900  0.53094900  0.99699500  1
  H  1006  1  0.90410600  0.53210700  0.99557500  1
  H  1009  1  0.48410000  0.65612400  0.98737300  1
  H  1010  1  0.48448200  0.62514700  0.98553500  1
  H  1011  1  0.50422400  0.60020100  0.97638900  1
  H  1013  1  0.50112900  0.68282600  0.98316000  1
  H  1020  1  0.51389300  0.79439200  0.98074200  1
  H  1022  1  0.51738700  0.71138800  0.97668800  1
  H  1025  1  0.48611200  0.87729600  0.98403300  1
  H  1026  1  0.48744600  0.84629100  0.98362200  1
  H  1029  1  0.47556100  0.99880600  0.93258500  1
  H  1030  1  0.47660900  0.99696800  0.90140900  1
  H  1040  1  0.50235700  0.98978700  0.99026200  1
  H  1041  1  0.50284100  0.94135200  0.96804300  1
  H  1042  1  0.50258600  0.96375700  0.94375800  1
  H  1043  1  0.53060800  0.99771700  0.93454500  1
  H  1044  1  0.53173800  0.99618100  0.90340000  1
  H  1047  1  0.58184400  0.10849400  0.20342200  1
  H  1048  1  0.58084400  0.10749000  0.17222700  1
  H  1058  1  0.63697800  0.10760200  0.20160300  1
  H  1059  1  0.63590100  0.10695800  0.17042000  1
  H  1060  1  0.60819900  0.14189900  0.16112200  1
  H  1061  1  0.60797400  0.16431400  0.13682600  1
  H  1062  1  0.60688500  0.11588100  0.11463200  1
  H  1065  1  0.59363000  0.26042500  0.11822300  1
  H  1066  1  0.59186200  0.22945000  0.11927600  1
  H  1070  1  0.62239000  0.31182600  0.11702200  1
  H  1072  1  0.62671600  0.39478100  0.11934700  1
  H  1077  1  0.57451500  0.45367100  0.12474600  1
  H  1078  1  0.57757800  0.48453800  0.12499700  1
  H  1082  1  0.61852900  0.42300900  0.10525900  1
  H  1085  1  0.17289100  0.58071400  0.10634000  1
  H  1087  1  0.28584600  0.58714000  0.10500400  1
  H  1088  1  0.20408100  0.58168900  0.10735600  1
  H  1092  1  0.31256800  0.57911800  0.12236200  1
  H  1097  1  0.40055700  0.58349600  0.11894400  1
  H  1099  1  0.37766300  0.57327800  0.14537700  1
  H  1101  1  0.33853500  0.57108900  0.14686600  1
  H  1110  1  0.59390400  0.59511200  0.10666200  1
  H  1111  1  0.54568400  0.57244800  0.10623600  1
  H  1112  1  0.56831900  0.54837400  0.10668300  1
  H  1113  1  0.60106500  0.53896200  0.13490100  1
  H  1114  1  0.59942400  0.50776800  0.13537000  1
  H  1124  1  0.66268100  0.56839000  0.10761800  1
  H  1125  1  0.63852600  0.54566100  0.10767900  1
  H  1126  1  0.70269200  0.60041900  0.13553900  1
  H  1127  1  0.67148800  0.60190000  0.13501300  1
  H  1135  1  0.72583300  0.57830200  0.12539000  1
  H  1136  1  0.75668700  0.57508400  0.12511000  1
  H  1141  1  0.98091300  0.59159000  0.11904000  1
  H  1142  1  0.94993400  0.59331000  0.11798600  1
  H  1145  1  0.10328700  0.58080600  0.17187700  1
  H  1146  1  0.10178700  0.58206900  0.20305900  1
  H  1156  1  0.17113600  0.63577000  0.10563900  1
  H  1157  1  0.16195900  0.60809800  0.14068800  1
  H  1158  1  0.13776300  0.60805400  0.16320900  1
  H  1159  1  0.11535800  0.60701700  0.11486600  1
  H  1160  1  0.20230900  0.63682200  0.10629000  1
  H  1166  1  0.25838500  0.63121300  0.12614000  1
  H  1167  1  0.22735300  0.62964100  0.12653200  1
  H  1175  1  0.48272600  0.62832600  0.12797900  1
  H  1176  1  0.45173000  0.62772100  0.12997300  1
  H  1188  1  0.57144400  0.66540900  0.10605500  1
  H  1189  1  0.54727600  0.64268600  0.10609100  1
  H  1190  1  0.53874400  0.60744700  0.13425200  1
  H  1191  1  0.50758200  0.60805500  0.13521000  1
  H  1201  1  0.60659400  0.67171800  0.13428400  1
  H  1202  1  0.64163500  0.66269500  0.10689000  1
  H  1203  1  0.66427100  0.63862600  0.10741000  1
  H  1204  1  0.61606600  0.61594800  0.10609900  1
  H  1205  1  0.60745800  0.70287400  0.13528700  1
  H  1207  1  0.78749200  0.61875700  0.10519000  1
  H  1211  1  0.89866800  0.62202000  0.11684300  1
  H  1213  1  0.81577800  0.62681200  0.11927000  1
  H  1223  1  0.06817900  0.60773400  0.16125200  1
  H  1224  1  0.04557400  0.60754200  0.13697100  1
  H  1225  1  0.10171300  0.63719100  0.20073500  1
  H  1226  1  0.10289700  0.63584900  0.16957800  1
  H  1232  1  0.62734400  0.75868300  0.13017800  1
  H  1233  1  0.62791000  0.72768200  0.12815300  1
  H  1239  1  0.57849300  0.89780300  0.12228500  1
  H  1244  1  0.58316700  0.80982300  0.11898200  1
  H  1246  1  0.57277300  0.83270400  0.14533100  1
  H  1248  1  0.57043800  0.87180700  0.14677700  1
  H  1250  1  0.58655500  0.92455300  0.10496900  1
  H  1256  1  0.62902700  0.98281800  0.12718300  1
  H  1257  1  0.63053400  0.95178700  0.12660700  1
  H  1262  1  0.58034000  0.03748500  0.10714700  1
  H  1263  1  0.58126500  0.00628302  0.10786000  1
  H  1273  1  0.60803600  0.07236600  0.16451300  1
  H  1274  1  0.60782300  0.04798000  0.14201900  1
  H  1275  1  0.63540200  0.03916300  0.10676300  1
  H  1276  1  0.63640400  0.00798302  0.10712200  1
  H  1278  1  0.58724500  0.10589500  0.28510800  1
  H  1284  1  0.63127500  0.12728000  0.25778000  1
  H  1285  1  0.62971700  0.12776900  0.22673800  1
  H  1290  1  0.11910000  0.59389000  0.25947100  1
  H  1291  1  0.12019200  0.59213100  0.22848800  1
  H  1293  1  0.10172700  0.58859200  0.28495300  1
  H  1299  1  0.08045900  0.62949100  0.22494000  1
  H  1300  1  0.07946100  0.63137100  0.25592900  1
  H  1305  1  0.59244700  0.08880900  0.25908200  1
  H  1306  1  0.59106100  0.08913400  0.22807600  1
  H  1310  1  0.57913500  0.12320400  0.31182200  1
  H  1315  1  0.58339900  0.11976400  0.39983300  1
  H  1317  1  0.57312900  0.14616300  0.37693000  1
  H  1319  1  0.57099400  0.14766200  0.33779600  1
  H  1324  1  0.08500500  0.57921400  0.31141500  1
  H  1330  1  0.08732300  0.58400300  0.39939600  1
  H  1332  1  0.06220000  0.57105500  0.37648200  1
  H  1334  1  0.06103800  0.56890400  0.33720600  1
  H  1339  1  0.11813300  0.62246100  0.31078200  1
  H  1341  1  0.12056000  0.62678700  0.39370900  1
  H  1348  1  0.61891700  0.08607200  0.31097900  1
  H  1350  1  0.62201200  0.08187600  0.39402400  1
  H  1356  1  0.62821300  0.12886200  0.48203500  1
  H  1357  1  0.62760300  0.13087000  0.45103200  1
  H  1365  1  0.12561900  0.57467900  0.45258500  1
  H  1366  1  0.12588300  0.57777400  0.48346400  1
  H  1370  1  0.10636400  0.61875800  0.42194700  1
  H  1373  1  0.09245000  0.62090300  0.47947600  1
  H  1374  1  0.09169600  0.61748400  0.44865700  1
  H  1377  1  0.58906400  0.09073300  0.48028500  1
  H  1378  1  0.58864400  0.09254800  0.44930100  1
  H  1380  1  0.60564200  0.08830100  0.42252300  1
  H  1383  1  0.10444400  0.17234100  0.58020000  1
  H  1384  1  0.10574600  0.20354200  0.58037600  1
  H  1387  1  0.26029800  0.11899500  0.59273100  1
  H  1388  1  0.22931300  0.12013000  0.59110000  1
  H  1393  1  0.45354600  0.12539900  0.57365100  1
  H  1394  1  0.48441400  0.12565800  0.57671500  1
  H  1407  1  0.59497900  0.10750600  0.59320700  1
  H  1408  1  0.57234100  0.10705800  0.54496500  1
  H  1409  1  0.54825400  0.10748600  0.56759100  1
  H  1410  1  0.53882700  0.13570100  0.60020700  1
  H  1411  1  0.50763500  0.13616500  0.59854300  1
  H  1421  1  0.66528900  0.10684600  0.57077500  1
  H  1422  1  0.64257700  0.10690400  0.54659100  1
  H  1423  1  0.60730200  0.13509800  0.53806000  1
  H  1424  1  0.60791400  0.13606900  0.50689100  1
  H  1428  1  0.89766900  0.12300300  0.57776400  1
  H  1433  1  0.80968200  0.11959100  0.58227300  1
  H  1435  1  0.83254300  0.14587400  0.57168500  1
  H  1437  1  0.87164800  0.14736300  0.56941500  1
  H  1439  1  0.92443700  0.10576300  0.58606300  1
  H  1442  1  0.03751000  0.10743700  0.58042800  1
  H  1443  1  0.00630102  0.10822200  0.58114700  1
  H  1446  1  0.08936700  0.25999900  0.59096300  1
  H  1447  1  0.08751300  0.22903300  0.59157200  1
  H  1451  1  0.11825500  0.31167700  0.58593600  1
  H  1453  1  0.12277200  0.39455000  0.58179700  1
  H  1458  1  0.10754800  0.42320600  0.58771900  1
  H  1461  1  0.09374000  0.48108900  0.58609100  1
  H  1462  1  0.09259600  0.45017500  0.58857100  1
  H  1470  1  0.10796400  0.59420500  0.59397400  1
  H  1471  1  0.10879200  0.54599000  0.57129700  1
  H  1472  1  0.10857400  0.56861500  0.54722400  1
  H  1473  1  0.13582800  0.60150900  0.53783000  1
  H  1474  1  0.13630300  0.59982400  0.50662700  1
  H  1476  1  0.08174000  0.53788300  0.60378200  1
  H  1479  1  0.08187200  0.60294100  0.50570300  1
  H  1489  1  0.10702200  0.66295300  0.56721200  1
  H  1490  1  0.10779600  0.63880800  0.54449000  1
  H  1491  1  0.13588700  0.70244900  0.60027200  1
  H  1492  1  0.13481600  0.67130700  0.60174200  1
  H  1494  1  0.08148000  0.60482100  0.53687100  1
  H  1497  1  0.08039300  0.67314100  0.60241600  1
  H  1503  1  0.12772200  0.72630300  0.57865800  1
  H  1504  1  0.12986400  0.75727500  0.57778300  1
  H  1508  1  0.08894100  0.78716500  0.60191100  1
  H  1509  1  0.08138700  0.70432600  0.60065700  1
  H  1514  1  0.08564700  0.89852700  0.58887000  1
  H  1516  1  0.08052100  0.81560300  0.58685700  1
  H  1519  1  0.11991800  0.98090600  0.59093700  1
  H  1520  1  0.11695700  0.95002800  0.59063900  1
  H  1523  1  0.17248200  0.10336600  0.58032300  1
  H  1524  1  0.20367000  0.10180800  0.58130400  1
  H  1525  1  0.10408100  0.03830900  0.57995100  1
  H  1527  1  0.28586200  0.10174000  0.58751300  1
  H  1532  1  0.31233200  0.08505200  0.57811900  1
  H  1538  1  0.40029700  0.08724700  0.58296800  1
  H  1540  1  0.37734400  0.06218600  0.56994300  1
  H  1542  1  0.33807700  0.06108500  0.56778400  1
  H  1545  1  0.50670400  0.08177400  0.60222400  1
  H  1548  1  0.60780200  0.08067700  0.53644900  1
  H  1549  1  0.60878400  0.08157100  0.50523600  1
  H  1552  1  0.76032400  0.09244100  0.58785600  1
  H  1553  1  0.72935400  0.09060500  0.58829300  1
  H  1560  1  0.98146500  0.08893200  0.59032200  1
  H  1561  1  0.95044800  0.08874600  0.59150700  1
  H  1564  1  0.10265100  0.00714802  0.58022200  1
  H  1574  1  0.10902900  0.17177700  0.63511600  1
  H  1575  1  0.14137900  0.16209400  0.60694800  1
  H  1576  1  0.16395700  0.13795700  0.60686500  1
  H  1577  1  0.11567300  0.11542900  0.60752200  1
  H  1578  1  0.11016200  0.20300600  0.63537500  1
  H  1583  1  0.31169700  0.11806900  0.62145700  1
  H  1585  1  0.39464100  0.12038900  0.62583500  1
  H  1587  1  0.42287500  0.10621000  0.61779100  1
  H  1595  1  0.56822500  0.10840400  0.66198300  1
  H  1596  1  0.54550600  0.10848300  0.63781400  1
  H  1597  1  0.60021200  0.13632100  0.70201100  1
  H  1598  1  0.60170300  0.13579700  0.67080000  1
  H  1610  1  0.67159000  0.13509200  0.60576500  1
  H  1611  1  0.66254000  0.10775000  0.64097800  1
  H  1612  1  0.63845800  0.10825200  0.66360500  1
  H  1613  1  0.61580600  0.10686400  0.61538000  1
  H  1614  1  0.70274800  0.13608900  0.60662500  1
  H  1620  1  0.75857000  0.13111100  0.62647400  1
  H  1621  1  0.72756700  0.12908700  0.62709900  1
  H  1629  1  0.98270600  0.12788900  0.62866000  1
  H  1630  1  0.95166500  0.12754700  0.63001200  1
  H  1642  1  0.07182700  0.16501100  0.60828600  1
  H  1643  1  0.04759200  0.14236200  0.60825300  1
  H  1644  1  0.03882900  0.10716900  0.63551300  1
  H  1645  1  0.00764102  0.10762100  0.63631000  1
  H  1651  1  0.13286300  0.25799500  0.62398000  1
  H  1652  1  0.13126700  0.22697200  0.62417000  1
  H  1656  1  0.08712100  0.28619500  0.60756200  1
  H  1660  1  0.07901600  0.31313600  0.62360900  1
  H  1665  1  0.08377800  0.40101600  0.61918200  1
  H  1667  1  0.07291000  0.37851800  0.64561300  1
  H  1669  1  0.07052600  0.33947100  0.64756400  1
  H  1675  1  0.12447200  0.48359900  0.63134000  1
  H  1676  1  0.12372300  0.45262800  0.63360000  1
  H  1688  1  0.10708600  0.57173700  0.66428000  1
  H  1689  1  0.10776800  0.54757700  0.64155300  1
  H  1690  1  0.13592300  0.53863500  0.60924400  1
  H  1691  1  0.13629200  0.50738900  0.61013300  1
  H  1694  1  0.08203400  0.50667500  0.60479500  1
  H  1704  1  0.13605100  0.60760200  0.70176500  1
  H  1705  1  0.13503800  0.60676200  0.67060300  1
  H  1706  1  0.10725500  0.64194800  0.66154100  1
  H  1707  1  0.10710600  0.66457100  0.63744000  1
  H  1708  1  0.10605600  0.61633400  0.61481400  1
  H  1711  1  0.08156600  0.60902100  0.70347200  1
  H  1712  1  0.08062600  0.60781000  0.67226800  1
  H  1715  1  0.09370500  0.76092300  0.61869800  1
  H  1716  1  0.09166100  0.72997000  0.61963000  1
  H  1722  1  0.12801000  0.89762000  0.62295900  1
  H  1727  1  0.12328400  0.80972100  0.61989600  1
  H  1729  1  0.13633800  0.83239900  0.64515200  1
  H  1731  1  0.13848500  0.87166800  0.64665800  1
  H  1733  1  0.11895000  0.92411700  0.60734200  1
  H  1738  1  0.07454400  0.95384000  0.62491100  1
  H  1739  1  0.07718600  0.98476500  0.62472800  1
  H  1751  1  0.16215600  0.06836300  0.60774600  1
  H  1752  1  0.13791700  0.04571900  0.60775800  1
  H  1753  1  0.20184700  0.10192300  0.63645300  1
  H  1754  1  0.17069300  0.10318400  0.63539600  1
  H  1760  1  0.22586400  0.08053100  0.62861700  1
  H  1761  1  0.25684700  0.07948500  0.63036400  1
  H  1766  1  0.48045000  0.09241600  0.61999900  1
  H  1767  1  0.44963600  0.09166300  0.61661000  1
  H  1768  1  0.53786300  0.08139700  0.60409900  1
  H  1771  1  0.60284300  0.08186600  0.70297600  1
  H  1774  1  0.67322500  0.08067900  0.60687600  1
  H  1775  1  0.60455400  0.08142500  0.67180200  1
  H  1776  1  0.70442200  0.08160100  0.60810600  1
  H  1777  1  0.78705800  0.08835000  0.60490900  1
  H  1781  1  0.89859400  0.08622800  0.61789300  1
  H  1783  1  0.81559900  0.08207200  0.62124500  1
  H  1794  1  0.09409100  0.09531800  0.60750500  1
  H  1795  1  0.04580400  0.07278600  0.60698200  1
  H  1796  1  0.06837200  0.04865800  0.60679600  1
  H  1797  1  0.10099800  0.03909400  0.63492900  1
  H  1798  1  0.09913600  0.00791502  0.63528500  1
  H  1804  1  0.57810000  0.12615300  0.72514800  1
  H  1805  1  0.57488000  0.12587500  0.75600800  1
  H  1809  1  0.61856400  0.10598500  0.78682100  1
  H  1812  1  0.09242100  0.58880400  0.75939600  1
  H  1813  1  0.09057300  0.58924400  0.72841600  1
  H  1819  1  0.13111200  0.62738800  0.75762400  1
  H  1820  1  0.12907500  0.62801700  0.72662000  1
  H  1824  1  0.08834100  0.60582800  0.78613200  1
  H  1827  1  0.61726800  0.09145300  0.76004700  1
  H  1828  1  0.62082200  0.09222300  0.72924500  1
  H  1833  1  0.62169800  0.11743800  0.89805000  1
  H  1835  1  0.62657800  0.12001400  0.81515400  1
  H  1839  1  0.12267600  0.57848500  0.89680000  1
  H  1844  1  0.11965200  0.58332500  0.80879500  1
  H  1846  1  0.14590400  0.57278800  0.83175800  1
  H  1848  1  0.14720700  0.57038200  0.87087400  1
  H  1855  1  0.08569600  0.61841000  0.89771600  1
  H  1857  1  0.08190400  0.62206400  0.81468800  1
  H  1862  1  0.57805800  0.08482700  0.89705800  1
  H  1868  1  0.58344100  0.08729000  0.80911400  1
  H  1870  1  0.57004700  0.06227300  0.83189700  1
  H  1872  1  0.56763600  0.06105200  0.87115400  1
  H  1875  1  0.59120000  0.11953200  0.98025100  1
  H  1876  1  0.59294400  0.11848800  0.94926900  1
  H  1878  1  0.10531500  0.58657900  0.92352400  1
  H  1881  1  0.08870700  0.59056300  0.98064600  1
  H  1882  1  0.08835600  0.59190500  0.94963100  1
  H  1888  1  0.12766100  0.62889600  0.98187000  1
  H  1889  1  0.12714600  0.63041400  0.95083300  1
  H  1893  1  0.58749100  0.10135700  0.92363700  1
  H  1899  1  0.62987100  0.07833200  0.95271900  1
  H  1900  1  0.62800400  0.07928700  0.98371100  1
  H  1905  1  0.58050400  0.17280800  0.10257400  1
  H  1915  1  0.60725500  0.16203700  0.06723160  1
  H  1916  1  0.60704400  0.13764800  0.04474360  1
  H  1917  1  0.63682600  0.20173900  0.10044200  1
  H  1918  1  0.63554200  0.17059200  0.10168600  1
  H  1919  1  0.58170600  0.20398300  0.10101600  1
  H  1921  1  0.58829000  0.28600000  0.10100100  1
  H  1927  1  0.62897700  0.22594800  0.07931060  1
  H  1928  1  0.63087000  0.25692800  0.07835260  1
  H  1935  1  0.57875600  0.31244800  0.08439560  1
  H  1941  1  0.58356000  0.40041200  0.08657860  1
  H  1943  1  0.57032800  0.37745800  0.06162260  1
  H  1945  1  0.56819100  0.33819000  0.06052660  1
  H  1949  1  0.62063900  0.48059200  0.09147660  1
  H  1950  1  0.61724700  0.44977800  0.09073060  1
  H  1953  1  0.10739600  0.58032800  0.03652160  1
  H  1954  1  0.10807100  0.58124100  0.00530863  1
  H  1957  1  0.25984200  0.59219200  0.08786160  1
  H  1958  1  0.22884000  0.59079500  0.08808260  1
  H  1964  1  0.48099000  0.58915800  0.08986260  1
  H  1965  1  0.45001000  0.58874300  0.09166460  1
  H  1968  1  0.60283700  0.50684600  0.08094960  1
  H  1969  1  0.60469700  0.53800700  0.08056860  1
  H  1972  1  0.70365600  0.60300200  0.08107060  1
  H  1977  1  0.89778200  0.57834700  0.08426860  1
  H  1983  1  0.80984200  0.58362800  0.08658260  1
  H  1985  1  0.83267600  0.57024200  0.06160560  1
  H  1987  1  0.87192600  0.56786800  0.06045460  1
  H  1989  1  0.92432300  0.58782500  0.10083100  1
  H  1992  1  0.03760700  0.58027600  0.10256900  1
  H  1993  1  0.00643302  0.58135100  0.10084400  1
  H  2003  1  0.16503000  0.60781000  0.07112060  1
  H  2004  1  0.14242200  0.60764800  0.04684060  1
  H  2005  1  0.10728600  0.63539200  0.03818560  1
  H  2006  1  0.10761000  0.63638600  0.00699863  1
  H  2010  1  0.31168000  0.61880000  0.08511960  1
  H  2012  1  0.39471400  0.62200900  0.08095660  1
  H  2014  1  0.42322400  0.60570300  0.08741460  1
  H  2017  1  0.53715500  0.60787300  0.07981960  1
  H  2018  1  0.50594800  0.60884800  0.08069860  1
  H  2021  1  0.60736500  0.67337300  0.07985460  1
  H  2022  1  0.67248900  0.60470000  0.08062660  1
  H  2025  1  0.76072000  0.61743400  0.09063760  1
  H  2026  1  0.72992200  0.62098700  0.09140660  1
  H  2032  1  0.95336800  0.63022800  0.07781360  1
  H  2033  1  0.98435400  0.62838400  0.07877560  1
  H  2046  1  0.09526800  0.60687200  0.09324560  1
  H  2047  1  0.07284300  0.60731900  0.04490160  1
  H  2048  1  0.04865800  0.60722200  0.06741560  1
  H  2049  1  0.03961800  0.63531800  0.10138700  1
  H  2050  1  0.00847502  0.63647600  0.09996660  1
  H  2053  1  0.58846900  0.76049300  0.09176460  1
  H  2054  1  0.58885100  0.72951600  0.08992660  1
  H  2055  1  0.60859300  0.70457000  0.08078060  1
  H  2057  1  0.60549800  0.78719500  0.08755160  1
  H  2064  1  0.61826200  0.89876100  0.08513360  1
  H  2066  1  0.62175600  0.81575700  0.08107960  1
  H  2069  1  0.59048100  0.98166500  0.08842460  1
  H  2070  1  0.59181500  0.95066000  0.08801360  1
  H  2073  1  0.57993000  0.10317500  0.03697660  1
  H  2074  1  0.58097800  0.10133700  0.00580063  1
  H  2084  1  0.60672600  0.09415600  0.09465360  1
  H  2085  1  0.60721000  0.04572100  0.07243460  1
  H  2086  1  0.60695500  0.06812600  0.04814960  1
  H  2087  1  0.63497700  0.10208600  0.03893660  1
  H  2088  1  0.63610700  0.10055000  0.00779163  1
  C  1  1  0.48834900  0.00324300  0.07395100  1
  C  2  1  0.48898800  0.00370200  0.09228300  1
  C  5  1  0.50347200  0.03454400  0.04373600  1
  C  6  1  0.50334300  0.04675300  0.03050200  1
  C  7  1  0.50295600  0.03789700  0.01456500  1
  C  9  1  0.50316300  0.01794800  0.03618900  1
  C  10  1  0.50332000  0.00195600  0.04560000  1
  C  11  1  0.50390900  0.00283900  0.06412600  1
  C  12  1  0.52008900  0.00301300  0.07290700  1
  C  13  1  0.52067200  0.00352800  0.09123700  1
  C  19  1  0.49550600  0.13068700  0.00578900  1
  C  20  1  0.49653000  0.14899600  0.00513900  1
  C  23  1  0.50901300  0.21389900  0.00521700  1
  C  25  1  0.51257100  0.28533600  0.00744300  1
  C  29  1  0.49515300  0.38129800  0.00368200  1
  C  30  1  0.48192400  0.37297400  0.01348900  1
  C  31  1  0.48000000  0.35473300  0.01316300  1
  C  32  1  0.49138200  0.34410200  0.00323800  1
  C  35  1  0.48892600  0.32566500  0.00247700  1
  C  39  1  0.07464800  0.48821500  0.00201700  1
  C  40  1  0.09297800  0.48883800  0.00248700  1
  C  45  1  0.20470300  0.49477200  0.99947300  1
  C  46  1  0.23305700  0.48352900  0.00960300  1
  C  47  1  0.21460700  0.48317900  0.00983300  1
  C  49  1  0.28838900  0.48692100  0.00702600  1
  C  50  1  0.27004300  0.48539200  0.00817300  1
  C  51  1  0.26175400  0.47355600  0.01969400  1
  C  52  1  0.24335500  0.47257400  0.02034700  1
  C  58  1  0.49664800  0.39983600  0.00349500  1
  C  59  1  0.46319500  0.48616100  0.00193600  1
  C  61  1  0.48334900  0.46472900  0.00236500  1
  C  62  1  0.46682200  0.45702700  0.00220200  1
  C  63  1  0.45448900  0.47014100  0.00196800  1
  C  64  1  0.49715400  0.42789300  0.01896100  1
  C  65  1  0.49608300  0.40957900  0.01918400  1
  C  71  1  0.49942800  0.45546200  0.00270200  1
  C  72  1  0.49869900  0.43692000  0.00298400  1
  C  73  1  0.51621200  0.46327100  0.00278000  1
  C  75  1  0.53746700  0.48327800  0.00278100  1
  C  76  1  0.54527500  0.46681100  0.00305300  1
  C  77  1  0.53216700  0.45447500  0.00308400  1
  C  78  1  0.57383400  0.49789600  0.01907800  1
  C  79  1  0.59214900  0.49691300  0.01933600  1
  C  84  1  0.54628000  0.49956100  0.00272700  1
  C  85  1  0.56482400  0.49913600  0.00306600  1
  C  86  1  0.60189600  0.49725800  0.00364600  1
  C  87  1  0.62042200  0.49571600  0.00385900  1
  C  88  1  0.65757700  0.49174600  0.00336900  1
  C  89  1  0.64691800  0.48052000  0.01343900  1
  C  90  1  0.62869000  0.48254500  0.01378800  1
  C  93  1  0.67599000  0.48918700  0.00258500  1
  C  95  1  0.85261400  0.49614400  0.00483700  1
  C  96  1  0.87092400  0.49514500  0.00548500  1
  C  99  1  0.99787000  0.48915300  0.09181800  1
  C  100  1  0.99863700  0.48836000  0.07350000  1
  C  103  1  0.04458600  0.50341700  0.03336500  1
  C  104  1  0.03140500  0.50340400  0.04563200  1
  C  105  1  0.01543300  0.50308700  0.03684100  1
  C  107  1  0.03696700  0.50312900  0.01679800  1
  C  108  1  0.04630900  0.50321900  0.00076300  1
  C  109  1  0.06483800  0.50378100  0.00156700  1
  C  110  1  0.07363300  0.51995200  0.00168900  1
  C  111  1  0.09195900  0.52052100  0.00220800  1
  C  117  1  0.10196400  0.50498800  0.00256400  1
  C  118  1  0.12057200  0.50561700  0.00270600  1
  C  119  1  0.15788000  0.50729900  0.00244300  1
  C  120  1  0.14797200  0.51824700  0.01350500  1
  C  121  1  0.12964700  0.51734400  0.01371000  1
  C  124  1  0.17639700  0.50850900  0.00197300  1
  C  126  1  0.39925300  0.50423400  0.00333100  1
  C  127  1  0.38064400  0.50448900  0.00394600  1
  C  128  1  0.37164500  0.51552200  0.01570600  1
  C  129  1  0.35334000  0.51519800  0.01685500  1
  C  130  1  0.34336400  0.50400500  0.00610700  1
  C  133  1  0.32492000  0.50307800  0.00791400  1
  C  135  1  0.48501500  0.53905000  0.00161500  1
  C  137  1  0.46374900  0.51905600  0.00164800  1
  C  138  1  0.45594500  0.53552400  0.00162700  1
  C  139  1  0.46905900  0.54785500  0.00159900  1
  C  140  1  0.45493300  0.50277800  0.00178700  1
  C  141  1  0.43638800  0.50321100  0.00223800  1
  C  142  1  0.40921900  0.50389900  0.01889400  1
  C  143  1  0.42754200  0.50338600  0.01838300  1
  C  148  1  0.53440200  0.54530300  0.00234100  1
  C  149  1  0.54673300  0.53219300  0.00261400  1
  C  150  1  0.53802900  0.51617400  0.00241100  1
  C  152  1  0.51788200  0.53759200  0.00197600  1
  C  153  1  0.50180400  0.54684800  0.00177500  1
  C  154  1  0.50253000  0.56537700  0.00226800  1
  C  155  1  0.50269900  0.57419300  0.01842900  1
  C  156  1  0.50336100  0.59250900  0.01896700  1
  C  164  1  0.78779800  0.50864900  0.00508100  1
  C  166  1  0.71641800  0.51263300  0.00736400  1
  C  170  1  0.99941200  0.50313600  0.04500600  1
  C  171  1  0.99887800  0.50384000  0.06354000  1
  C  172  1  0.96328300  0.50276300  0.01474900  1
  C  174  1  0.98317600  0.50294500  0.03611000  1
  C  175  1  0.96666800  0.50311700  0.04383500  1
  C  176  1  0.95440000  0.50301200  0.03066100  1
  C  177  1  0.99833900  0.52009300  0.07216700  1
  C  178  1  0.99750300  0.52082900  0.09047500  1
  C  183  1  0.50384000  0.60248500  0.00341600  1
  C  184  1  0.50413200  0.62108600  0.00405400  1
  C  185  1  0.50368400  0.65834900  0.00626300  1
  C  186  1  0.51483900  0.64835300  0.01703000  1
  C  187  1  0.51514200  0.63004800  0.01586200  1
  C  190  1  0.50278500  0.67678900  0.00806600  1
  C  192  1  0.49417200  0.79695800  0.99942900  1
  C  193  1  0.48296600  0.76859000  0.00954700  1
  C  194  1  0.48257000  0.78703900  0.00976300  1
  C  196  1  0.48657200  0.71327100  0.00706400  1
  C  197  1  0.48496200  0.73161100  0.00817300  1
  C  198  1  0.47306700  0.73987300  0.01965000  1
  C  199  1  0.47201800  0.75827000  0.02027600  1
  C  207  1  0.50456200  0.89963000  0.00320500  1
  C  208  1  0.50516400  0.88102300  0.00321400  1
  C  209  1  0.51678700  0.87185600  0.01425200  1
  C  210  1  0.51765200  0.85353200  0.01393800  1
  C  211  1  0.50676800  0.84371900  0.00272900  1
  C  214  1  0.50793300  0.82520700  0.00216200  1
  C  216  1  0.48783000  0.92697200  0.00282000  1
  C  217  1  0.48842500  0.90863700  0.00311800  1
  C  220  1  0.50318700  0.98573000  0.03796200  1
  C  222  1  0.50300000  0.96427100  0.01817400  1
  C  223  1  0.50330100  0.95662300  0.03471400  1
  C  224  1  0.50341100  0.96985700  0.04691800  1
  C  225  1  0.50289000  0.95529900  0.00198100  1
  C  226  1  0.50341500  0.93676200  0.00255600  1
  C  227  1  0.52011100  0.90961100  0.00302800  1
  C  228  1  0.51957100  0.92794100  0.00267500  1
  C  235  1  0.50514600  0.00381400  0.10125500  1
  C  236  1  0.50578500  0.00388800  0.11986400  1
  C  237  1  0.50745100  0.00350300  0.15717500  1
  C  238  1  0.51835300  0.01465000  0.14731000  1
  C  239  1  0.51746000  0.01491100  0.12898000  1
  C  242  1  0.50862900  0.00298100  0.17569400  1
  C  244  1  0.00678600  0.49584400  0.12969500  1
  C  245  1  0.00611200  0.49686000  0.14800400  1
  C  250  1  0.99721900  0.50538700  0.10061900  1
  C  251  1  0.99633700  0.50620400  0.11918900  1
  C  252  1  0.99494900  0.50825800  0.15645400  1
  C  253  1  0.98390200  0.51866300  0.14595600  1
  C  254  1  0.98452100  0.51758600  0.12765200  1
  C  257  1  0.99460300  0.50974200  0.17496200  1
  C  259  1  0.49497700  0.99329700  0.12975700  1
  C  260  1  0.49577500  0.99312300  0.14808500  1
  C  263  1  0.49483600  0.00038800  0.20395900  1
  C  264  1  0.48351800  0.01047100  0.23230400  1
  C  265  1  0.48319200  0.01070500  0.21384900  1
  C  267  1  0.48684500  0.00788400  0.28764900  1
  C  268  1  0.48533200  0.00903100  0.26929800  1
  C  269  1  0.47348200  0.02052400  0.26099600  1
  C  270  1  0.47252000  0.02118100  0.24259200  1
  C  276  1  0.99707800  0.49660500  0.20361500  1
  C  277  1  0.99768000  0.49776300  0.24031000  1
  C  278  1  0.98764000  0.48462700  0.23192700  1
  C  279  1  0.98773900  0.48413100  0.21347400  1
  C  281  1  0.99827100  0.49869700  0.25866900  1
  C  282  1  0.98999600  0.48793400  0.28728800  1
  C  283  1  0.98875400  0.48655700  0.26893200  1
  C  284  1  0.97848700  0.47365800  0.26058100  1
  C  285  1  0.97798100  0.47266000  0.24217300  1
  C  291  1  0.00625600  0.50916700  0.21283800  1
  C  293  1  0.00856400  0.51272600  0.28425100  1
  C  294  1  0.99989100  0.50080800  0.29528700  1
  C  298  1  0.49548700  0.99966500  0.24063700  1
  C  299  1  0.49627600  0.99882500  0.25899800  1
  C  300  1  0.49885100  0.99697600  0.29556000  1
  C  301  1  0.50626000  0.98985400  0.21310600  1
  C  303  1  0.50886900  0.98616300  0.28455100  1
  C  307  1  0.50413400  0.00422100  0.39853200  1
  C  308  1  0.50438500  0.00484500  0.37992000  1
  C  309  1  0.51541500  0.01661000  0.37092700  1
  C  310  1  0.51509100  0.01776600  0.35261800  1
  C  311  1  0.50390000  0.00701700  0.34263800  1
  C  314  1  0.50297600  0.00882600  0.32419300  1
  C  316  1  0.00444700  0.49690000  0.39868900  1
  C  317  1  0.00463800  0.49538600  0.38016200  1
  C  318  1  0.01441100  0.48212000  0.37186300  1
  C  319  1  0.01408000  0.48017800  0.35362100  1
  C  320  1  0.00418200  0.49158100  0.34298800  1
  C  323  1  0.00341700  0.48912700  0.32455900  1
  C  327  1  0.99511700  0.50489700  0.35132700  1
  C  328  1  0.99531100  0.50674800  0.36958200  1
  C  331  1  0.49301600  0.99574700  0.35158700  1
  C  332  1  0.49323400  0.99470600  0.36990800  1
  C  337  1  0.00126300  0.07435300  0.48748400  1
  C  338  1  0.00191000  0.09268100  0.48764300  1
  C  341  1  0.13056200  0.00673700  0.49479200  1
  C  342  1  0.14887500  0.00603300  0.49573100  1
  C  345  1  0.38116200  0.00451100  0.49438000  1
  C  346  1  0.37284500  0.01424100  0.48109000  1
  C  347  1  0.35460500  0.01390000  0.47915900  1
  C  348  1  0.34397000  0.00405300  0.49060500  1
  C  351  1  0.32553500  0.00328900  0.48815100  1
  C  353  1  0.39969900  0.00432800  0.49588200  1
  C  354  1  0.48604100  0.00280500  0.46246800  1
  C  356  1  0.46459900  0.00322000  0.48261300  1
  C  357  1  0.45690500  0.00305500  0.46607900  1
  C  358  1  0.47002600  0.00282600  0.45375100  1
  C  359  1  0.45532300  0.00354200  0.49869100  1
  C  360  1  0.43678200  0.00382300  0.49795200  1
  C  361  1  0.42775800  0.01979000  0.49632600  1
  C  362  1  0.40944400  0.02001000  0.49524800  1
  C  368  1  0.53892100  0.00246200  0.48431600  1
  C  370  1  0.51893700  0.00251100  0.46303900  1
  C  371  1  0.53540900  0.00247400  0.45523900  1
  C  372  1  0.54773400  0.00244400  0.46836100  1
  C  373  1  0.50266300  0.00265700  0.45421600  1
  C  374  1  0.50310600  0.00311300  0.43566800  1
  C  375  1  0.50377800  0.01977700  0.40850400  1
  C  376  1  0.50326100  0.01925800  0.42683000  1
  C  381  1  0.79680800  0.00036500  0.49360100  1
  C  382  1  0.76845000  0.01032100  0.48222700  1
  C  383  1  0.78689900  0.01056400  0.48187000  1
  C  385  1  0.71312700  0.00778500  0.48574300  1
  C  386  1  0.73146800  0.00890700  0.48415900  1
  C  387  1  0.73973800  0.02028300  0.47217100  1
  C  388  1  0.75813500  0.02092800  0.47115500  1
  C  396  1  0.92691700  0.00314000  0.48785600  1
  C  397  1  0.90857900  0.00347900  0.48833000  1
  C  400  1  0.99292200  0.13060000  0.49407400  1
  C  401  1  0.99385100  0.14891800  0.49396700  1
  C  404  1  0.00566300  0.21392100  0.48968000  1
  C  406  1  0.00933900  0.28527300  0.48586300  1
  C  410  1  0.99984200  0.29648400  0.49636500  1
  C  411  1  0.99672400  0.25994900  0.49827600  1
  C  412  1  0.99572000  0.24160900  0.49921200  1
  C  415  1  0.99553600  0.35258600  0.49305300  1
  C  416  1  0.99596700  0.37087800  0.49173700  1
  C  419  1  0.00390700  0.46349800  0.48499600  1
  C  421  1  0.00380400  0.48364300  0.46356300  1
  C  422  1  0.00409100  0.46711900  0.45585600  1
  C  423  1  0.00419900  0.45479200  0.46897300  1
  C  424  1  0.01991200  0.49753000  0.42673500  1
  C  425  1  0.02014100  0.49643400  0.40842000  1
  C  431  1  0.00392600  0.49898800  0.43575300  1
  C  433  1  0.98913800  0.49852300  0.40786600  1
  C  434  1  0.98885200  0.49950500  0.42618000  1
  C  436  1  0.00363100  0.49971600  0.45429100  1
  C  437  1  0.00316200  0.51649400  0.46208800  1
  C  439  1  0.00251200  0.53773100  0.48208300  1
  C  440  1  0.00270500  0.54554700  0.46561500  1
  C  441  1  0.00311700  0.53244600  0.45328100  1
  C  442  1  0.00282100  0.56507100  0.49790100  1
  C  443  1  0.01900000  0.57382100  0.49719900  1
  C  444  1  0.01957700  0.59211400  0.49617700  1
  C  449  1  0.00230200  0.54654100  0.49836600  1
  C  451  1  0.98852500  0.59320100  0.49671800  1
  C  452  1  0.98789200  0.57488800  0.49766100  1
  C  454  1  0.00404400  0.60211000  0.49585200  1
  C  455  1  0.00473300  0.62065800  0.49479700  1
  C  456  1  0.00709400  0.65788400  0.49356100  1
  C  457  1  0.01717100  0.64735800  0.48224000  1
  C  458  1  0.01594400  0.62906900  0.48278400  1
  C  461  1  0.00911700  0.67633300  0.49363000  1
  C  466  1  0.99008500  0.78769400  0.49210200  1
  C  468  1  0.98596000  0.71628600  0.48995000  1
  C  469  1  0.99801800  0.70524400  0.49839000  1
  C  473  1  0.00416800  0.85273100  0.49381200  1
  C  474  1  0.00575300  0.87100600  0.49374400  1
  C  477  1  0.09255900  0.99794500  0.48842800  1
  C  478  1  0.07423600  0.99876200  0.48780100  1
  C  484  1  0.20454600  0.99706900  0.49553100  1
  C  485  1  0.24124800  0.99763600  0.49671800  1
  C  486  1  0.23286000  0.98763600  0.48355000  1
  C  487  1  0.21441000  0.98775100  0.48304400  1
  C  489  1  0.25960900  0.99820400  0.49766200  1
  C  490  1  0.28822300  0.98991800  0.48688800  1
  C  491  1  0.26986600  0.98870500  0.48550100  1
  C  492  1  0.26150700  0.97847900  0.47257000  1
  C  493  1  0.24310200  0.97799400  0.47156400  1
  C  499  1  0.40888400  0.98904000  0.49767700  1
  C  500  1  0.42719900  0.98876100  0.49864200  1
  C  502  1  0.50347600  0.98815800  0.42589400  1
  C  503  1  0.50394300  0.98873500  0.40755500  1
  C  506  1  0.63096200  0.99465500  0.49237000  1
  C  507  1  0.64927300  0.99571800  0.49213300  1
  C  511  1  0.76014700  0.99962400  0.49432200  1
  C  512  1  0.74179400  0.99879800  0.49517400  1
  C  513  1  0.70525400  0.99699900  0.49789300  1
  C  514  1  0.85267000  0.99310600  0.49477300  1
  C  515  1  0.87100100  0.99319000  0.49409900  1
  C  518  1  0.99818100  0.90929700  0.48748500  1
  C  519  1  0.99928100  0.92760400  0.48727100  1
  C  521  1  0.03410800  0.04471100  0.50259700  1
  C  522  1  0.04640800  0.03156400  0.50256200  1
  C  523  1  0.03766000  0.01556900  0.50272100  1
  C  525  1  0.01756100  0.03705100  0.50284100  1
  C  526  1  0.00150500  0.04635400  0.50309700  1
  C  527  1  0.00227200  0.06488900  0.50324500  1
  C  528  1  0.00397600  0.07402900  0.51914200  1
  C  529  1  0.00473500  0.09235800  0.51924300  1
  C  535  1  0.21377400  0.00621600  0.50811600  1
  C  537  1  0.28520300  0.00842400  0.51172800  1
  C  538  1  0.29623600  0.99975900  0.49979800  1
  C  544  1  0.46312300  0.00360700  0.51548100  1
  C  546  1  0.48312200  0.00359400  0.53674800  1
  C  547  1  0.46665200  0.00386400  0.54455100  1
  C  548  1  0.45432100  0.00390500  0.53143700  1
  C  549  1  0.49771000  0.01988800  0.57312400  1
  C  550  1  0.49672300  0.02014500  0.59144400  1
  C  555  1  0.49940100  0.00354100  0.54556900  1
  C  556  1  0.49896700  0.00388000  0.56411500  1
  C  557  1  0.54515100  0.00318800  0.53371500  1
  C  558  1  0.53203300  0.00345700  0.54604300  1
  C  559  1  0.51601900  0.00323000  0.53732700  1
  C  561  1  0.53744700  0.00280600  0.51718900  1
  C  562  1  0.54671100  0.00261700  0.50111100  1
  C  563  1  0.56524000  0.00310800  0.50184800  1
  C  564  1  0.57406100  0.01926200  0.50191600  1
  C  565  1  0.59237800  0.01979800  0.50256900  1
  C  571  1  0.60234600  0.00425000  0.50315700  1
  C  572  1  0.62094700  0.00488200  0.50343500  1
  C  573  1  0.65821000  0.00708600  0.50292100  1
  C  574  1  0.64822800  0.01792800  0.51401800  1
  C  575  1  0.62992400  0.01676100  0.51435500  1
  C  578  1  0.67664700  0.00888800  0.50197200  1
  C  580  1  0.89947200  0.00365800  0.50441300  1
  C  581  1  0.88086500  0.00381700  0.50489500  1
  C  582  1  0.87172100  0.01499800  0.51639800  1
  C  583  1  0.85339300  0.01482300  0.51717000  1
  C  584  1  0.84355500  0.00361600  0.50630700  1
  C  587  1  0.82503700  0.00314800  0.50742800  1
  C  589  1  0.98533200  0.03860700  0.50320400  1
  C  591  1  0.96401000  0.01868200  0.50321600  1
  C  592  1  0.95625200  0.03516600  0.50359000  1
  C  593  1  0.96940400  0.04745500  0.50360500  1
  C  594  1  0.95514700  0.00243200  0.50310900  1
  C  595  1  0.93660400  0.00289300  0.50351100  1
  C  596  1  0.90935000  0.00346200  0.52003100  1
  C  597  1  0.92768100  0.00305800  0.51961200  1
  C  602  1  0.00367600  0.10197900  0.50351000  1
  C  603  1  0.00446800  0.12054400  0.50360100  1
  C  604  1  0.00642000  0.15783300  0.50328900  1
  C  605  1  0.01869600  0.14773700  0.51268600  1
  C  606  1  0.01764800  0.12942300  0.51297400  1
  C  609  1  0.00778200  0.17636700  0.50272700  1
  C  613  1  0.99483400  0.20493000  0.50095100  1
  C  614  1  0.98356600  0.23347200  0.51060000  1
  C  615  1  0.98317800  0.21502800  0.51107000  1
  C  617  1  0.98738400  0.28875100  0.50756900  1
  C  618  1  0.98566600  0.27043100  0.50882300  1
  C  619  1  0.97352500  0.26232800  0.52015900  1
  C  620  1  0.97246900  0.24394200  0.52103000  1
  C  626  1  0.00451700  0.39959600  0.50308700  1
  C  627  1  0.00461400  0.38104500  0.50401500  1
  C  628  1  0.01352400  0.37231200  0.51760600  1
  C  629  1  0.01290300  0.35403400  0.51904000  1
  C  630  1  0.00362800  0.34382700  0.50676300  1
  C  633  1  0.00236900  0.32539100  0.50875900  1
  C  635  1  0.00281600  0.48531200  0.53789900  1
  C  637  1  0.00346700  0.46405300  0.51789700  1
  C  638  1  0.00328400  0.45624500  0.53436800  1
  C  639  1  0.00291300  0.46935500  0.54670200  1
  C  640  1  0.00386700  0.45524100  0.50161600  1
  C  641  1  0.00411300  0.43669200  0.50202200  1
  C  642  1  0.02018900  0.40926600  0.50447900  1
  C  643  1  0.02002100  0.42760100  0.50386700  1
  C  648  1  0.98906000  0.42716900  0.50065200  1
  C  649  1  0.98928900  0.40883800  0.50111100  1
  C  651  1  0.00255300  0.53470300  0.54413000  1
  C  652  1  0.00248200  0.54702800  0.53100400  1
  C  653  1  0.00222700  0.53830500  0.51499100  1
  C  655  1  0.00236000  0.51817300  0.53643300  1
  C  656  1  0.00255900  0.50210000  0.54570200  1
  C  657  1  0.00305400  0.50283900  0.56423800  1
  C  658  1  0.01921100  0.50291900  0.57305800  1
  C  659  1  0.01975600  0.50356900  0.59138000  1
  C  665  1  0.98811500  0.50345300  0.57402500  1
  C  666  1  0.98871800  0.50405100  0.59235900  1
  C  669  1  0.99522000  0.63118100  0.50605100  1
  C  670  1  0.99639800  0.64947800  0.50545900  1
  C  673  1  0.99961700  0.74179900  0.50072000  1
  C  674  1  0.00194900  0.79686500  0.50205700  1
  C  675  1  0.00064000  0.76014800  0.50134200  1
  C  676  1  0.01381800  0.76844600  0.51139200  1
  C  677  1  0.01433300  0.78688900  0.51141200  1
  C  679  1  0.01046500  0.71314000  0.50871700  1
  C  680  1  0.01185000  0.73147800  0.51006000  1
  C  681  1  0.02485500  0.73974200  0.52026200  1
  C  682  1  0.02583100  0.75813800  0.52092700  1
  C  690  1  0.99486900  0.88155700  0.50355300  1
  C  691  1  0.98163100  0.87321300  0.51333100  1
  C  692  1  0.97994800  0.85494700  0.51325200  1
  C  693  1  0.99161000  0.84434500  0.50363300  1
  C  696  1  0.98971300  0.82584200  0.50349000  1
  C  698  1  0.04587500  0.99957300  0.50285800  1
  C  699  1  0.06441700  0.99908000  0.50337400  1
  C  700  1  0.01568500  0.96339500  0.50286000  1
  C  702  1  0.03700800  0.98332200  0.50288400  1
  C  703  1  0.04476000  0.96682900  0.50314700  1
  C  704  1  0.03160800  0.95453900  0.50314300  1
  C  705  1  0.07319600  0.99858600  0.51954800  1
  C  706  1  0.09150300  0.99769700  0.52012000  1
  C  711  1  0.10150700  0.99731800  0.50458500  1
  C  712  1  0.12008100  0.99635500  0.50524900  1
  C  713  1  0.15735800  0.99490900  0.50714600  1
  C  714  1  0.14688100  0.98390600  0.51762100  1
  C  715  1  0.12857700  0.98454700  0.51661600  1
  C  718  1  0.17587100  0.99459400  0.50863000  1
  C  720  1  0.35232200  0.99504400  0.50395700  1
  C  721  1  0.37057800  0.99523900  0.50579200  1
  C  725  1  0.49853700  0.98912700  0.59202300  1
  C  726  1  0.49942700  0.98881300  0.57370400  1
  C  728  1  0.57501100  0.98816200  0.50248300  1
  C  729  1  0.59333800  0.98875600  0.50310000  1
  C  734  1  0.78768900  0.98992100  0.50513800  1
  C  736  1  0.71628600  0.98627400  0.50797900  1
  C  740  1  0.99636300  0.90008100  0.50339500  1
  C  741  1  0.99951500  0.95565400  0.50281900  1
  C  742  1  0.96336400  0.98644000  0.50284400  1
  C  744  1  0.98346000  0.96496200  0.50272000  1
  C  745  1  0.96691100  0.95730100  0.50253300  1
  C  746  1  0.95461400  0.97044500  0.50262900  1
  C  747  1  0.99871200  0.93712300  0.50302100  1
  C  748  1  0.99706100  0.92806100  0.51896600  1
  C  749  1  0.99585300  0.90976100  0.51912100  1
  C  755  1  0.49707800  0.00445800  0.60119100  1
  C  756  1  0.49553000  0.00466700  0.61971800  1
  C  757  1  0.49155700  0.00417900  0.65687800  1
  C  758  1  0.48032300  0.01423600  0.64621700  1
  C  759  1  0.48234800  0.01458400  0.62798600  1
  C  762  1  0.48900000  0.00340300  0.67529400  1
  C  766  1  0.99463200  0.49333700  0.63000000  1
  C  767  1  0.99569700  0.49310200  0.64831600  1
  C  770  1  0.00421500  0.50412500  0.60136500  1
  C  771  1  0.00485800  0.50439300  0.61997400  1
  C  772  1  0.00707500  0.50387700  0.65725500  1
  C  773  1  0.01792300  0.51496100  0.64726300  1
  C  774  1  0.01674800  0.51530000  0.62895400  1
  C  777  1  0.00888000  0.50293500  0.67570000  1
  C  781  1  0.50673400  0.99519500  0.63032800  1
  C  782  1  0.50479900  0.99498100  0.64857500  1
  C  785  1  0.50834400  0.00570000  0.78713400  1
  C  787  1  0.51239200  0.00812600  0.71574900  1
  C  788  1  0.50045500  0.99960600  0.70461600  1
  C  792  1  0.99991800  0.49423200  0.79591400  1
  C  793  1  0.01007900  0.48304300  0.76754900  1
  C  794  1  0.01023300  0.48260800  0.78600200  1
  C  796  1  0.00777700  0.48675800  0.71221300  1
  C  797  1  0.00883100  0.48511500  0.73055900  1
  C  798  1  0.02023000  0.47315700  0.73883700  1
  C  799  1  0.02079300  0.47207000  0.75723900  1
  C  805  1  0.99936200  0.49511100  0.75923900  1
  C  806  1  0.99862000  0.49603300  0.74088000  1
  C  807  1  0.99695600  0.49886600  0.70432800  1
  C  808  1  0.98946500  0.50575300  0.78678800  1
  C  810  1  0.98614400  0.50886200  0.71535700  1
  C  814  1  0.49562100  0.99663100  0.79625200  1
  C  815  1  0.49701000  0.99732200  0.75956700  1
  C  816  1  0.48370600  0.98741400  0.76784200  1
  C  817  1  0.48309900  0.98746700  0.78629200  1
  C  819  1  0.49807000  0.99794400  0.74121400  1
  C  820  1  0.48739900  0.98985300  0.71250700  1
  C  821  1  0.48588600  0.98859000  0.73085200  1
  C  822  1  0.47281400  0.97845700  0.73909700  1
  C  823  1  0.47169200  0.97792100  0.75749700  1
  C  829  1  0.49576200  0.00535200  0.85192800  1
  C  830  1  0.49476900  0.00601200  0.87024100  1
  C  835  1  0.99272800  0.49518400  0.85182400  1
  C  836  1  0.99292800  0.49440000  0.87015500  1
  C  839  1  0.00357000  0.50453900  0.89862700  1
  C  840  1  0.00360900  0.50514100  0.88001600  1
  C  841  1  0.01472700  0.51670000  0.87086900  1
  C  842  1  0.01444800  0.51757200  0.85254200  1
  C  843  1  0.00319300  0.50675700  0.84270500  1
  C  846  1  0.00265700  0.50794200  0.82418900  1
  C  850  1  0.50427800  0.99635400  0.89929300  1
  C  851  1  0.50498600  0.99540600  0.88072200  1
  C  852  1  0.51619000  0.98344200  0.87223200  1
  C  853  1  0.51726500  0.98285700  0.85392600  1
  C  854  1  0.50702200  0.99407600  0.84345200  1
  C  857  1  0.50857300  0.99382400  0.82494700  1
  C  859  1  0.48880400  0.09278500  0.99695800  1
  C  860  1  0.48804600  0.07446800  0.99777000  1
  C  862  1  0.50287300  0.04599500  0.99850700  1
  C  863  1  0.50243100  0.01555900  0.96252200  1
  C  865  1  0.50263900  0.03701800  0.98231300  1
  C  866  1  0.50270500  0.04465900  0.96576500  1
  C  867  1  0.50259200  0.03142600  0.95355900  1
  C  868  1  0.50354100  0.06452800  0.99788700  1
  C  869  1  0.51977200  0.07318300  0.99718500  1
  C  870  1  0.52047400  0.09148800  0.99631500  1
  C  878  1  0.50501800  0.10161400  0.99615800  1
  C  879  1  0.50580400  0.12018900  0.99527200  1
  C  880  1  0.50787400  0.15746300  0.99393500  1
  C  881  1  0.51820400  0.14697200  0.98280900  1
  C  882  1  0.51711300  0.12867000  0.98339700  1
  C  885  1  0.50939900  0.17597300  0.99363700  1
  C  887  1  0.49633300  0.20466800  0.99619600  1
  C  888  1  0.49750600  0.24137200  0.99676300  1
  C  889  1  0.48425800  0.23297900  0.98687700  1
  C  890  1  0.48376100  0.21452900  0.98699400  1
  C  892  1  0.49843900  0.25973300  0.99733300  1
  C  893  1  0.48757000  0.28834200  0.98915200  1
  C  894  1  0.48618700  0.26998400  0.98794400  1
  C  895  1  0.47317800  0.26162100  0.97782600  1
  C  896  1  0.47217800  0.24321500  0.97734600  1
  C  902  1  0.50055500  0.29636500  0.99953500  1
  C  903  1  0.50467900  0.35245900  0.99415900  1
  C  904  1  0.50650300  0.37071600  0.99433900  1
  C  907  1  0.00312800  0.48781600  0.92597900  1
  C  908  1  0.00339900  0.48840500  0.90764000  1
  C  911  1  0.13051000  0.49475300  0.99220700  1
  C  912  1  0.14883500  0.49555800  0.99209500  1
  C  915  1  0.24137700  0.49548000  0.99876900  1
  C  916  1  0.25973500  0.49629600  0.99793600  1
  C  917  1  0.29629200  0.49890000  0.99608300  1
  C  918  1  0.35231800  0.49310400  0.99485500  1
  C  919  1  0.37063500  0.49333000  0.99381000  1
  C  922  1  0.49835600  0.40902300  0.98819600  1
  C  923  1  0.49931700  0.42734000  0.98791500  1
  C  926  1  0.59272900  0.49869600  0.98831100  1
  C  927  1  0.57441200  0.49957800  0.98799600  1
  C  929  1  0.79694700  0.49592200  0.99604600  1
  C  930  1  0.76026400  0.49727700  0.99666500  1
  C  931  1  0.76857100  0.48397000  0.98678700  1
  C  932  1  0.78701800  0.48337900  0.98687900  1
  C  934  1  0.74191400  0.49832000  0.99724900  1
  C  935  1  0.71323700  0.48760900  0.98912100  1
  C  936  1  0.73158100  0.48611600  0.98788900  1
  C  937  1  0.73985800  0.47304200  0.97778300  1
  C  938  1  0.75825700  0.47193700  0.97728300  1
  C  946  1  0.90885200  0.48847600  0.99673400  1
  C  947  1  0.92716600  0.48779100  0.99763900  1
  C  950  1  0.03859100  0.50308600  0.98457200  1
  C  952  1  0.01870000  0.50294400  0.96320600  1
  C  953  1  0.03520100  0.50316200  0.95547600  1
  C  954  1  0.04746800  0.50324400  0.96865400  1
  C  955  1  0.00246600  0.50289200  0.95430900  1
  C  956  1  0.00296100  0.50340400  0.93576700  1
  C  957  1  0.00347400  0.52009200  0.90860800  1
  C  958  1  0.00314000  0.51955900  0.92694000  1
  C  963  1  0.21383800  0.50617900  0.98891000  1
  C  965  1  0.28527400  0.50888500  0.98524800  1
  C  971  1  0.42662000  0.50356000  0.98727700  1
  C  972  1  0.40828400  0.50402500  0.98784600  1
  C  975  1  0.50306400  0.57515400  0.98732000  1
  C  976  1  0.50367400  0.59348300  0.98791700  1
  C  979  1  0.63102900  0.50690600  0.99436900  1
  C  980  1  0.64927200  0.50497400  0.99415400  1
  C  983  1  0.70531300  0.50066200  0.99949500  1
  C  984  1  0.88139900  0.50537000  0.99488400  1
  C  985  1  0.87290500  0.51657100  0.98291600  1
  C  986  1  0.85460100  0.51763100  0.98232600  1
  C  987  1  0.84413100  0.50738300  0.99354600  1
  C  990  1  0.82562800  0.50891200  0.99327700  1
  C  992  1  0.89997000  0.50465300  0.99580500  1
  C  993  1  0.98644900  0.50271800  0.96248400  1
  C  995  1  0.96491800  0.50264500  0.98252900  1
  C  996  1  0.95729600  0.50273800  0.96596200  1
  C  997  1  0.97047300  0.50278900  0.95369400  1
  C  998  1  0.95556900  0.50274200  0.99856200  1
  C  999  1  0.93704300  0.50332600  0.99772700  1
  C  1000  1  0.92833500  0.51952000  0.99688500  1
  C  1001  1  0.91003400  0.52014800  0.99591000  1
  C  1007  1  0.49301300  0.63111600  0.99389800  1
  C  1008  1  0.49279700  0.64942700  0.99497600  1
  C  1014  1  0.49497000  0.76029600  0.99875000  1
  C  1015  1  0.49585300  0.74194200  0.99794500  1
  C  1016  1  0.49862700  0.70540300  0.99617500  1
  C  1017  1  0.50562900  0.78784800  0.98889700  1
  C  1019  1  0.50859300  0.71643900  0.98534300  1
  C  1023  1  0.49513700  0.85285800  0.99234000  1
  C  1024  1  0.49437300  0.87118400  0.99256100  1
  C  1027  1  0.48810800  0.99728800  0.90818800  1
  C  1028  1  0.48744000  0.99826100  0.92650300  1
  C  1031  1  0.50242700  0.99933600  0.95488800  1
  C  1032  1  0.50261100  0.96340000  0.98592800  1
  C  1034  1  0.50239900  0.98334800  0.96430700  1
  C  1035  1  0.50249600  0.96674900  0.95675400  1
  C  1036  1  0.50262900  0.95454300  0.96998600  1
  C  1037  1  0.50298600  0.99841800  0.93636300  1
  C  1038  1  0.51917300  0.99756200  0.92764100  1
  C  1039  1  0.51978500  0.99651800  0.90934000  1
  C  1045  1  0.59271800  0.10761200  0.17834300  1
  C  1046  1  0.59335700  0.10807100  0.19667500  1
  C  1049  1  0.60784100  0.13891300  0.14812800  1
  C  1050  1  0.60771200  0.15112200  0.13489400  1
  C  1051  1  0.60732500  0.14226600  0.11895700  1
  C  1053  1  0.60753200  0.12231700  0.14058100  1
  C  1054  1  0.60768900  0.10632500  0.14999200  1
  C  1055  1  0.60827800  0.10720800  0.16851800  1
  C  1056  1  0.62445800  0.10738200  0.17729900  1
  C  1057  1  0.62504100  0.10789700  0.19562900  1
  C  1063  1  0.59987500  0.23505600  0.11018100  1
  C  1064  1  0.60089900  0.25336500  0.10953100  1
  C  1067  1  0.61338200  0.31826800  0.10960900  1
  C  1069  1  0.61694000  0.38970500  0.11183500  1
  C  1073  1  0.59952200  0.48566700  0.10807400  1
  C  1074  1  0.58629300  0.47734300  0.11788100  1
  C  1075  1  0.58436900  0.45910200  0.11755500  1
  C  1076  1  0.59575100  0.44847100  0.10763000  1
  C  1079  1  0.59329500  0.43003400  0.10686900  1
  C  1083  1  0.17901700  0.59258400  0.10640900  1
  C  1084  1  0.19734700  0.59320700  0.10687900  1
  C  1089  1  0.30907200  0.59914100  0.10386500  1
  C  1090  1  0.33742600  0.58789800  0.11399500  1
  C  1091  1  0.31897600  0.58754800  0.11422500  1
  C  1093  1  0.39275800  0.59129000  0.11141800  1
  C  1094  1  0.37441200  0.58976100  0.11256500  1
  C  1095  1  0.36612300  0.57792500  0.12408600  1
  C  1096  1  0.34772400  0.57694300  0.12473900  1
  C  1102  1  0.60101700  0.50420500  0.10788700  1
  C  1103  1  0.56756400  0.59053000  0.10632800  1
  C  1105  1  0.58771800  0.56909800  0.10675700  1
  C  1106  1  0.57119100  0.56139600  0.10659400  1
  C  1107  1  0.55885800  0.57451000  0.10636000  1
  C  1108  1  0.60152300  0.53226200  0.12335300  1
  C  1109  1  0.60045200  0.51394800  0.12357600  1
  C  1115  1  0.60379700  0.55983100  0.10709400  1
  C  1116  1  0.60306800  0.54128900  0.10737600  1
  C  1117  1  0.62058100  0.56764000  0.10717200  1
  C  1119  1  0.64183600  0.58764700  0.10717300  1
  C  1120  1  0.64964400  0.57118000  0.10744500  1
  C  1121  1  0.63653600  0.55884400  0.10747600  1
  C  1122  1  0.67820300  0.60226500  0.12347000  1
  C  1123  1  0.69651800  0.60128200  0.12372800  1
  C  1128  1  0.65064900  0.60393000  0.10711900  1
  C  1129  1  0.66919300  0.60350500  0.10745800  1
  C  1130  1  0.70626500  0.60162700  0.10803800  1
  C  1131  1  0.72479100  0.60008500  0.10825100  1
  C  1132  1  0.76194600  0.59611500  0.10776100  1
  C  1133  1  0.75128700  0.58488900  0.11783100  1
  C  1134  1  0.73305900  0.58691400  0.11818000  1
  C  1137  1  0.78035900  0.59355600  0.10697700  1
  C  1139  1  0.95698300  0.60051300  0.10922900  1
  C  1140  1  0.97529300  0.59951400  0.10987700  1
  C  1143  1  0.10223900  0.59352200  0.19621000  1
  C  1144  1  0.10300600  0.59272900  0.17789200  1
  C  1147  1  0.14895500  0.60778600  0.13775700  1
  C  1148  1  0.13577400  0.60777300  0.15002400  1
  C  1149  1  0.11980200  0.60745600  0.14123300  1
  C  1151  1  0.14133600  0.60749800  0.12119000  1
  C  1152  1  0.15067800  0.60758800  0.10515500  1
  C  1153  1  0.16920700  0.60815000  0.10595900  1
  C  1154  1  0.17800200  0.62432100  0.10608100  1
  C  1155  1  0.19632800  0.62489000  0.10660000  1
  C  1161  1  0.20633300  0.60935700  0.10695600  1
  C  1162  1  0.22494100  0.60998600  0.10709800  1
  C  1163  1  0.26224900  0.61166800  0.10683500  1
  C  1164  1  0.25234100  0.62261600  0.11789700  1
  C  1165  1  0.23401600  0.62171300  0.11810200  1
  C  1168  1  0.28076600  0.61287800  0.10636500  1
  C  1170  1  0.50362200  0.60860300  0.10772300  1
  C  1171  1  0.48501300  0.60885800  0.10833800  1
  C  1172  1  0.47601400  0.61989100  0.12009800  1
  C  1173  1  0.45770900  0.61956700  0.12124700  1
  C  1174  1  0.44773300  0.60837400  0.11049900  1
  C  1177  1  0.42928900  0.60744700  0.11230600  1
  C  1179  1  0.58938400  0.64341900  0.10600700  1
  C  1181  1  0.56811800  0.62342500  0.10604000  1
  C  1182  1  0.56031400  0.63989300  0.10601900  1
  C  1183  1  0.57342800  0.65222400  0.10599100  1
  C  1184  1  0.55930200  0.60714700  0.10617900  1
  C  1185  1  0.54075700  0.60758000  0.10663000  1
  C  1186  1  0.51358800  0.60826800  0.12328600  1
  C  1187  1  0.53191100  0.60775500  0.12277500  1
  C  1192  1  0.63877100  0.64967200  0.10673300  1
  C  1193  1  0.65110200  0.63656200  0.10700600  1
  C  1194  1  0.64239800  0.62054300  0.10680300  1
  C  1196  1  0.62225100  0.64196100  0.10636800  1
  C  1197  1  0.60617300  0.65121700  0.10616700  1
  C  1198  1  0.60689900  0.66974600  0.10666000  1
  C  1199  1  0.60706800  0.67856200  0.12282100  1
  C  1200  1  0.60773000  0.69687800  0.12335900  1
  C  1208  1  0.89216700  0.61301800  0.10947300  1
  C  1210  1  0.82078700  0.61700200  0.11175600  1
  C  1214  1  0.10378100  0.60750500  0.14939800  1
  C  1215  1  0.10324700  0.60820900  0.16793200  1
  C  1216  1  0.06765200  0.60713200  0.11914100  1
  C  1218  1  0.08754500  0.60731400  0.14050200  1
  C  1219  1  0.07103700  0.60748600  0.14822700  1
  C  1220  1  0.05876900  0.60738100  0.13505300  1
  C  1221  1  0.10270800  0.62446200  0.17655900  1
  C  1222  1  0.10187200  0.62519800  0.19486700  1
  C  1227  1  0.60820900  0.70685400  0.10780800  1
  C  1228  1  0.60850100  0.72545500  0.10844600  1
  C  1229  1  0.60805300  0.76271800  0.11065500  1
  C  1230  1  0.61920800  0.75272200  0.12142200  1
  C  1231  1  0.61951100  0.73441700  0.12025400  1
  C  1234  1  0.60715400  0.78115800  0.11245800  1
  C  1236  1  0.59854100  0.90132700  0.10382100  1
  C  1237  1  0.58733500  0.87295900  0.11393900  1
  C  1238  1  0.58693900  0.89140800  0.11415500  1
  C  1240  1  0.59094100  0.81764000  0.11145600  1
  C  1241  1  0.58933100  0.83598000  0.11256500  1
  C  1242  1  0.57743600  0.84424200  0.12404200  1
  C  1243  1  0.57638700  0.86263900  0.12466800  1
  C  1251  1  0.60893100  0.00399902  0.10759700  1
  C  1252  1  0.60953300  0.98539200  0.10760600  1
  C  1253  1  0.62115600  0.97622500  0.11864400  1
  C  1254  1  0.62202100  0.95790100  0.11833000  1
  C  1255  1  0.61113700  0.94808800  0.10712100  1
  C  1258  1  0.61230200  0.92957600  0.10655400  1
  C  1260  1  0.59219900  0.03134100  0.10721200  1
  C  1261  1  0.59279400  0.01300600  0.10751000  1
  C  1264  1  0.60755600  0.09009900  0.14235400  1
  C  1266  1  0.60736900  0.06864000  0.12256600  1
  C  1267  1  0.60767000  0.06099200  0.13910600  1
  C  1268  1  0.60778000  0.07422600  0.15131000  1
  C  1269  1  0.60725900  0.05966800  0.10637300  1
  C  1270  1  0.60778400  0.04113100  0.10694800  1
  C  1271  1  0.62448000  0.01398000  0.10742000  1
  C  1272  1  0.62394000  0.03231000  0.10706700  1
  C  1279  1  0.60951500  0.10818300  0.20564700  1
  C  1280  1  0.61015400  0.10825700  0.22425600  1
  C  1281  1  0.61182000  0.10787200  0.26156700  1
  C  1282  1  0.62272200  0.11901900  0.25170200  1
  C  1283  1  0.62182900  0.11928000  0.23337200  1
  C  1286  1  0.61299800  0.10735000  0.28008600  1
  C  1288  1  0.11115500  0.60021300  0.23408700  1
  C  1289  1  0.11048100  0.60122900  0.25239600  1
  C  1294  1  0.10158800  0.60975600  0.20501100  1
  C  1295  1  0.10070600  0.61057300  0.22358100  1
  C  1296  1  0.09931800  0.61262700  0.26084600  1
  C  1297  1  0.08827100  0.62303200  0.25034800  1
  C  1298  1  0.08889000  0.62195500  0.23204400  1
  C  1301  1  0.09897200  0.61411100  0.27935400  1
  C  1303  1  0.59934600  0.09766600  0.23414900  1
  C  1304  1  0.60014400  0.09749200  0.25247700  1
  C  1307  1  0.59920500  0.10475700  0.30835100  1
  C  1308  1  0.58788700  0.11484000  0.33669600  1
  C  1309  1  0.58756100  0.11507400  0.31824100  1
  C  1311  1  0.59121400  0.11225300  0.39204100  1
  C  1312  1  0.58970100  0.11340000  0.37369000  1
  C  1313  1  0.57785100  0.12489300  0.36538800  1
  C  1314  1  0.57688900  0.12555000  0.34698400  1
  C  1320  1  0.10144700  0.60097400  0.30800700  1
  C  1321  1  0.10204900  0.60213200  0.34470200  1
  C  1322  1  0.09200900  0.58899600  0.33631900  1
  C  1323  1  0.09210800  0.58850000  0.31786600  1
  C  1325  1  0.10264000  0.60306600  0.36306100  1
  C  1326  1  0.09436500  0.59230300  0.39168000  1
  C  1327  1  0.09312300  0.59092600  0.37332400  1
  C  1328  1  0.08285600  0.57802700  0.36497300  1
  C  1329  1  0.08235000  0.57702900  0.34656500  1
  C  1335  1  0.11062500  0.61353600  0.31723000  1
  C  1337  1  0.11293300  0.61709500  0.38864300  1
  C  1338  1  0.10426000  0.60517700  0.39967900  1
  C  1342  1  0.59985600  0.10403400  0.34502900  1
  C  1343  1  0.60064500  0.10319400  0.36339000  1
  C  1344  1  0.60322000  0.10134500  0.39995200  1
  C  1345  1  0.61062900  0.09422300  0.31749800  1
  C  1347  1  0.61323800  0.09053200  0.38894300  1
  C  1351  1  0.60850300  0.10859000  0.50292400  1
  C  1352  1  0.60875400  0.10921400  0.48431200  1
  C  1353  1  0.61978400  0.12097900  0.47531900  1
  C  1354  1  0.61946000  0.12213500  0.45701000  1
  C  1355  1  0.60826900  0.11138600  0.44703000  1
  C  1358  1  0.60734500  0.11319500  0.42858500  1
  C  1360  1  0.10881600  0.60126900  0.50308100  1
  C  1361  1  0.10900700  0.59975500  0.48455400  1
  C  1362  1  0.11878000  0.58648900  0.47625500  1
  C  1363  1  0.11844900  0.58454700  0.45801300  1
  C  1364  1  0.10855100  0.59595000  0.44738000  1
  C  1367  1  0.10778600  0.59349600  0.42895100  1
  C  1371  1  0.09948600  0.60926600  0.45571900  1
  C  1372  1  0.09968000  0.61111700  0.47397400  1
  C  1375  1  0.59738500  0.10011600  0.45597900  1
  C  1376  1  0.59760300  0.09907500  0.47430000  1
  C  1381  1  0.10563200  0.17872200  0.59187600  1
  C  1382  1  0.10627900  0.19705000  0.59203500  1
  C  1385  1  0.23493100  0.11110600  0.59918400  1
  C  1386  1  0.25324400  0.11040200  0.60012300  1
  C  1389  1  0.48553100  0.10888000  0.59877200  1
  C  1390  1  0.47721400  0.11861000  0.58548200  1
  C  1391  1  0.45897400  0.11826900  0.58355100  1
  C  1392  1  0.44833900  0.10842200  0.59499700  1
  C  1395  1  0.42990400  0.10765800  0.59254300  1
  C  1397  1  0.50406800  0.10869700  0.60027400  1
  C  1398  1  0.59041000  0.10717400  0.56686000  1
  C  1400  1  0.56896800  0.10758900  0.58700500  1
  C  1401  1  0.56127400  0.10742400  0.57047100  1
  C  1402  1  0.57439500  0.10719500  0.55814300  1
  C  1403  1  0.55969200  0.10791100  0.60308300  1
  C  1404  1  0.54115100  0.10819200  0.60234400  1
  C  1405  1  0.53212700  0.12415900  0.60071800  1
  C  1406  1  0.51381300  0.12437900  0.59964000  1
  C  1412  1  0.64329000  0.10683100  0.58870800  1
  C  1414  1  0.62330600  0.10688000  0.56743100  1
  C  1415  1  0.63977800  0.10684300  0.55963100  1
  C  1416  1  0.65210300  0.10681300  0.57275300  1
  C  1417  1  0.60703200  0.10702600  0.55860800  1
  C  1418  1  0.60747500  0.10748200  0.54006000  1
  C  1419  1  0.60814700  0.12414600  0.51289600  1
  C  1420  1  0.60763000  0.12362700  0.53122200  1
  C  1425  1  0.90117700  0.10473400  0.59799300  1
  C  1426  1  0.87281900  0.11469000  0.58661900  1
  C  1427  1  0.89126800  0.11493300  0.58626200  1
  C  1429  1  0.81749600  0.11215400  0.59013500  1
  C  1430  1  0.83583700  0.11327600  0.58855100  1
  C  1431  1  0.84410700  0.12465200  0.57656300  1
  C  1432  1  0.86250400  0.12529700  0.57554700  1
  C  1440  1  0.03128600  0.10750900  0.59224800  1
  C  1441  1  0.01294800  0.10784800  0.59272200  1
  C  1444  1  0.09729100  0.23496900  0.59846600  1
  C  1445  1  0.09822000  0.25328700  0.59835900  1
  C  1448  1  0.11003200  0.31829000  0.59407200  1
  C  1450  1  0.11370800  0.38964200  0.59025500  1
  C  1454  1  0.10421100  0.40085300  0.60075700  1
  C  1455  1  0.10109300  0.36431800  0.60266800  1
  C  1456  1  0.10008900  0.34597800  0.60360400  1
  C  1459  1  0.09990500  0.45695500  0.59744500  1
  C  1460  1  0.10033600  0.47524700  0.59612900  1
  C  1463  1  0.10827600  0.56786700  0.58938800  1
  C  1465  1  0.10817300  0.58801200  0.56795500  1
  C  1466  1  0.10846000  0.57148800  0.56024800  1
  C  1467  1  0.10856800  0.55916100  0.57336500  1
  C  1468  1  0.12428100  0.60189900  0.53112700  1
  C  1469  1  0.12451000  0.60080300  0.51281200  1
  C  1475  1  0.10829500  0.60335700  0.54014500  1
  C  1477  1  0.09350700  0.60289200  0.51225800  1
  C  1478  1  0.09322100  0.60387400  0.53057200  1
  C  1480  1  0.10800000  0.60408500  0.55868300  1
  C  1481  1  0.10753100  0.62086300  0.56648000  1
  C  1483  1  0.10688100  0.64210000  0.58647500  1
  C  1484  1  0.10707400  0.64991600  0.57000700  1
  C  1485  1  0.10748600  0.63681500  0.55767300  1
  C  1486  1  0.10719000  0.66944000  0.60229300  1
  C  1487  1  0.12336900  0.67819000  0.60159100  1
  C  1488  1  0.12394600  0.69648300  0.60056900  1
  C  1493  1  0.10667100  0.65091000  0.60275800  1
  C  1495  1  0.09289400  0.69757000  0.60111000  1
  C  1496  1  0.09226100  0.67925700  0.60205300  1
  C  1498  1  0.10841300  0.70647900  0.60024400  1
  C  1499  1  0.10910200  0.72502700  0.59918900  1
  C  1500  1  0.11146300  0.76225300  0.59795300  1
  C  1501  1  0.12154000  0.75172700  0.58663200  1
  C  1502  1  0.12031300  0.73343800  0.58717600  1
  C  1505  1  0.11348600  0.78070200  0.59802200  1
  C  1510  1  0.09445400  0.89206300  0.59649400  1
  C  1512  1  0.09032900  0.82065500  0.59434200  1
  C  1513  1  0.10238700  0.80961300  0.60278200  1
  C  1517  1  0.10853700  0.95710000  0.59820400  1
  C  1518  1  0.11012200  0.97537500  0.59813600  1
  C  1521  1  0.19692800  0.10231400  0.59282000  1
  C  1522  1  0.17860500  0.10313100  0.59219300  1
  C  1528  1  0.30891500  0.10143800  0.59992300  1
  C  1529  1  0.34561700  0.10200500  0.60111000  1
  C  1530  1  0.33722900  0.09200500  0.58794200  1
  C  1531  1  0.31877900  0.09212000  0.58743600  1
  C  1533  1  0.36397800  0.10257300  0.60205400  1
  C  1534  1  0.39259200  0.09428700  0.59128000  1
  C  1535  1  0.37423500  0.09307400  0.58989300  1
  C  1536  1  0.36587600  0.08284800  0.57696200  1
  C  1537  1  0.34747100  0.08236300  0.57595600  1
  C  1543  1  0.51325300  0.09340900  0.60206900  1
  C  1544  1  0.53156800  0.09313000  0.60303400  1
  C  1546  1  0.60784500  0.09252700  0.53028600  1
  C  1547  1  0.60831200  0.09310400  0.51194700  1
  C  1550  1  0.73533100  0.09902400  0.59676200  1
  C  1551  1  0.75364200  0.10008700  0.59652500  1
  C  1555  1  0.86451600  0.10399300  0.59871400  1
  C  1556  1  0.84616300  0.10316700  0.59956600  1
  C  1557  1  0.80962300  0.10136800  0.60228500  1
  C  1558  1  0.95703900  0.09747500  0.59916500  1
  C  1559  1  0.97537000  0.09755900  0.59849100  1
  C  1562  1  0.10255000  0.01366600  0.59187700  1
  C  1563  1  0.10365000  0.03197300  0.59166300  1
  C  1565  1  0.13847700  0.14908000  0.60698900  1
  C  1566  1  0.15077700  0.13593300  0.60695400  1
  C  1567  1  0.14202900  0.11993800  0.60711300  1
  C  1569  1  0.12193000  0.14142000  0.60723300  1
  C  1570  1  0.10587400  0.15072300  0.60748900  1
  C  1571  1  0.10664100  0.16925800  0.60763700  1
  C  1572  1  0.10834500  0.17839800  0.62353400  1
  C  1573  1  0.10910400  0.19672700  0.62363500  1
  C  1579  1  0.31814300  0.11058500  0.61250800  1
  C  1581  1  0.38957200  0.11279300  0.61612000  1
  C  1582  1  0.40060500  0.10412800  0.60419000  1
  C  1588  1  0.56749200  0.10797600  0.61987300  1
  C  1590  1  0.58749100  0.10796300  0.64114000  1
  C  1591  1  0.57102100  0.10823300  0.64894300  1
  C  1592  1  0.55869000  0.10827400  0.63582900  1
  C  1593  1  0.60207900  0.12425700  0.67751600  1
  C  1594  1  0.60109200  0.12451400  0.69583600  1
  C  1599  1  0.60377000  0.10791000  0.64996100  1
  C  1600  1  0.60333600  0.10824900  0.66850700  1
  C  1601  1  0.64952000  0.10755700  0.63810700  1
  C  1602  1  0.63640200  0.10782600  0.65043500  1
  C  1603  1  0.62038800  0.10759900  0.64171900  1
  C  1605  1  0.64181600  0.10717500  0.62158100  1
  C  1606  1  0.65108000  0.10698600  0.60550300  1
  C  1607  1  0.66960900  0.10747700  0.60624000  1
  C  1608  1  0.67843000  0.12363100  0.60630800  1
  C  1609  1  0.69674700  0.12416700  0.60696100  1
  C  1615  1  0.70671500  0.10861900  0.60754900  1
  C  1616  1  0.72531600  0.10925100  0.60782700  1
  C  1617  1  0.76257900  0.11145500  0.60731300  1
  C  1618  1  0.75259700  0.12229700  0.61841000  1
  C  1619  1  0.73429300  0.12113000  0.61874700  1
  C  1622  1  0.78101600  0.11325700  0.60636400  1
  C  1624  1  0.00384102  0.10802700  0.60880500  1
  C  1625  1  0.98523400  0.10818600  0.60928700  1
  C  1626  1  0.97609000  0.11936700  0.62079000  1
  C  1627  1  0.95776200  0.11919200  0.62156200  1
  C  1628  1  0.94792400  0.10798500  0.61069900  1
  C  1631  1  0.92940600  0.10751700  0.61182000  1
  C  1633  1  0.08970100  0.14297600  0.60759600  1
  C  1635  1  0.06837900  0.12305100  0.60760800  1
  C  1636  1  0.06062100  0.13953500  0.60798200  1
  C  1637  1  0.07377300  0.15182400  0.60799700  1
  C  1638  1  0.05951600  0.10680100  0.60750100  1
  C  1639  1  0.04097300  0.10726200  0.60790300  1
  C  1640  1  0.01371900  0.10783100  0.62442300  1
  C  1641  1  0.03205000  0.10742700  0.62400400  1
  C  1646  1  0.10804500  0.20634800  0.60790200  1
  C  1647  1  0.10883700  0.22491300  0.60799300  1
  C  1648  1  0.11078900  0.26220200  0.60768100  1
  C  1649  1  0.12306500  0.25210600  0.61707800  1
  C  1650  1  0.12201700  0.23379200  0.61736600  1
  C  1653  1  0.11215100  0.28073600  0.60711900  1
  C  1657  1  0.09920300  0.30929900  0.60534300  1
  C  1658  1  0.08793500  0.33784100  0.61499200  1
  C  1659  1  0.08754700  0.31939700  0.61546200  1
  C  1661  1  0.09175300  0.39312000  0.61196100  1
  C  1662  1  0.09003500  0.37480000  0.61321500  1
  C  1663  1  0.07789400  0.36669700  0.62455100  1
  C  1664  1  0.07683800  0.34831100  0.62542200  1
  C  1670  1  0.10888600  0.50396500  0.60747900  1
  C  1671  1  0.10898300  0.48541400  0.60840700  1
  C  1672  1  0.11789300  0.47668100  0.62199800  1
  C  1673  1  0.11727200  0.45840300  0.62343200  1
  C  1674  1  0.10799700  0.44819600  0.61115500  1
  C  1677  1  0.10673800  0.42976000  0.61315100  1
  C  1679  1  0.10718500  0.58968100  0.64229100  1
  C  1681  1  0.10783600  0.56842200  0.62228900  1
  C  1682  1  0.10765300  0.56061400  0.63876000  1
  C  1683  1  0.10728200  0.57372400  0.65109400  1
  C  1684  1  0.10823600  0.55961000  0.60600800  1
  C  1685  1  0.10848200  0.54106100  0.60641400  1
  C  1686  1  0.12455800  0.51363500  0.60887100  1
  C  1687  1  0.12439000  0.53197000  0.60825900  1
  C  1692  1  0.09342900  0.53153800  0.60504400  1
  C  1693  1  0.09365800  0.51320700  0.60550300  1
  C  1695  1  0.10692200  0.63907200  0.64852200  1
  C  1696  1  0.10685100  0.65139700  0.63539600  1
  C  1697  1  0.10659600  0.64267400  0.61938300  1
  C  1699  1  0.10672900  0.62254200  0.64082500  1
  C  1700  1  0.10692800  0.60646900  0.65009400  1
  C  1701  1  0.10742300  0.60720800  0.66863000  1
  C  1702  1  0.12358000  0.60728800  0.67745000  1
  C  1703  1  0.12412500  0.60793800  0.69577200  1
  C  1709  1  0.09248400  0.60782200  0.67841700  1
  C  1710  1  0.09308700  0.60842000  0.69675100  1
  C  1713  1  0.09958900  0.73555000  0.61044300  1
  C  1714  1  0.10076700  0.75384700  0.60985100  1
  C  1717  1  0.10398600  0.84616800  0.60511200  1
  C  1718  1  0.10631800  0.90123400  0.60644900  1
  C  1719  1  0.10500900  0.86451700  0.60573400  1
  C  1720  1  0.11818700  0.87281500  0.61578400  1
  C  1721  1  0.11870200  0.89125800  0.61580400  1
  C  1723  1  0.11483400  0.81750900  0.61310900  1
  C  1724  1  0.11621900  0.83584700  0.61445200  1
  C  1725  1  0.12922400  0.84411100  0.62465400  1
  C  1726  1  0.13020000  0.86250700  0.62531900  1
  C  1734  1  0.09923800  0.98592600  0.60794500  1
  C  1735  1  0.08600000  0.97758200  0.61772300  1
  C  1736  1  0.08431700  0.95931600  0.61764400  1
  C  1737  1  0.09597900  0.94871400  0.60802500  1
  C  1740  1  0.09408200  0.93021100  0.60788200  1
  C  1742  1  0.15024400  0.10394200  0.60725000  1
  C  1743  1  0.16878600  0.10344900  0.60776600  1
  C  1744  1  0.12005400  0.06776400  0.60725200  1
  C  1746  1  0.14137700  0.08769100  0.60727600  1
  C  1747  1  0.14912900  0.07119800  0.60753900  1
  C  1748  1  0.13597700  0.05890800  0.60753500  1
  C  1749  1  0.17756500  0.10295500  0.62394000  1
  C  1750  1  0.19587200  0.10206600  0.62451200  1
  C  1755  1  0.20587600  0.10168700  0.60897700  1
  C  1756  1  0.22445000  0.10072400  0.60964100  1
  C  1757  1  0.26172700  0.09927800  0.61153800  1
  C  1758  1  0.25125000  0.08827500  0.62201300  1
  C  1759  1  0.23294600  0.08891600  0.62100800  1
  C  1762  1  0.28024000  0.09896300  0.61302200  1
  C  1764  1  0.45669100  0.09941300  0.60834900  1
  C  1765  1  0.47494700  0.09960800  0.61018400  1
  C  1769  1  0.60290600  0.09349600  0.69641500  1
  C  1770  1  0.60379600  0.09318200  0.67809600  1
  C  1772  1  0.67938000  0.09253100  0.60687500  1
  C  1773  1  0.69770700  0.09312500  0.60749200  1
  C  1778  1  0.89205800  0.09429000  0.60953000  1
  C  1780  1  0.82065500  0.09064300  0.61237100  1
  C  1784  1  0.10073200  0.00445002  0.60778700  1
  C  1785  1  0.10388400  0.06002300  0.60721100  1
  C  1786  1  0.06773300  0.09080900  0.60723600  1
  C  1788  1  0.08782900  0.06933100  0.60711200  1
  C  1789  1  0.07128000  0.06167000  0.60692500  1
  C  1790  1  0.05898300  0.07481400  0.60702100  1
  C  1791  1  0.10308100  0.04149200  0.60741300  1
  C  1792  1  0.10143000  0.03243000  0.62335800  1
  C  1793  1  0.10022200  0.01413000  0.62351300  1
  C  1799  1  0.60144700  0.10882700  0.70558300  1
  C  1800  1  0.59989900  0.10903600  0.72411000  1
  C  1801  1  0.59592600  0.10854800  0.76127000  1
  C  1802  1  0.58469200  0.11860500  0.75060900  1
  C  1803  1  0.58671700  0.11895300  0.73237800  1
  C  1806  1  0.59336900  0.10777200  0.77968600  1
  C  1810  1  0.09900100  0.59770600  0.73439200  1
  C  1811  1  0.10006600  0.59747100  0.75270800  1
  C  1814  1  0.10858400  0.60849400  0.70575700  1
  C  1815  1  0.10922700  0.60876200  0.72436600  1
  C  1816  1  0.11144400  0.60824600  0.76164700  1
  C  1817  1  0.12229200  0.61933000  0.75165500  1
  C  1818  1  0.12111700  0.61966900  0.73334600  1
  C  1821  1  0.11324900  0.60730400  0.78009200  1
  C  1825  1  0.61110300  0.09956400  0.73472000  1
  C  1826  1  0.60916800  0.09935000  0.75296700  1
  C  1829  1  0.61271300  0.11006900  0.89152600  1
  C  1831  1  0.61676100  0.11249500  0.82014100  1
  C  1832  1  0.60482400  0.10397500  0.80900800  1
  C  1836  1  0.10428700  0.59860100  0.90030600  1
  C  1837  1  0.11444800  0.58741200  0.87194100  1
  C  1838  1  0.11460200  0.58697700  0.89039400  1
  C  1840  1  0.11214600  0.59112700  0.81660500  1
  C  1841  1  0.11320000  0.58948400  0.83495100  1
  C  1842  1  0.12459900  0.57752600  0.84322900  1
  C  1843  1  0.12516200  0.57643900  0.86163100  1
  C  1849  1  0.10373100  0.59948000  0.86363100  1
  C  1850  1  0.10298900  0.60040200  0.84527200  1
  C  1851  1  0.10132500  0.60323500  0.80872000  1
  C  1852  1  0.09383400  0.61012200  0.89118000  1
  C  1854  1  0.09051300  0.61323100  0.81974900  1
  C  1858  1  0.59999000  0.10100000  0.90064400  1
  C  1859  1  0.60137900  0.10169100  0.86395900  1
  C  1860  1  0.58807500  0.09178300  0.87223400  1
  C  1861  1  0.58746800  0.09183600  0.89068400  1
  C  1863  1  0.60243900  0.10231300  0.84560600  1
  C  1864  1  0.59176800  0.09422200  0.81689900  1
  C  1865  1  0.59025500  0.09295900  0.83524400  1
  C  1866  1  0.57718300  0.08282600  0.84348900  1
  C  1867  1  0.57606100  0.08229000  0.86188900  1
  C  1873  1  0.60013100  0.10972100  0.95632000  1
  C  1874  1  0.59913800  0.11038100  0.97463300  1
  C  1879  1  0.09709700  0.59955300  0.95621600  1
  C  1880  1  0.09729700  0.59876900  0.97454700  1
  C  1883  1  0.10793900  0.60890800  0.00301863  1
  C  1884  1  0.10797800  0.60951000  0.98440800  1
  C  1885  1  0.11909600  0.62106900  0.97526100  1
  C  1886  1  0.11881700  0.62194100  0.95693400  1
  C  1887  1  0.10756200  0.61112600  0.94709700  1
  C  1890  1  0.10702600  0.61231100  0.92858100  1
  C  1894  1  0.60864700  0.10072300  0.00368463  1
  C  1895  1  0.60935500  0.09977500  0.98511400  1
  C  1896  1  0.62055900  0.08781100  0.97662400  1
  C  1897  1  0.62163400  0.08722600  0.95831800  1
  C  1898  1  0.61139100  0.09844500  0.94784400  1
  C  1901  1  0.61294200  0.09819300  0.92933900  1
  C  1903  1  0.59317300  0.19715400  0.10135000  1
  C  1904  1  0.59241500  0.17883700  0.10216200  1
  C  1906  1  0.60724200  0.15036400  0.10289900  1
  C  1907  1  0.60680000  0.11992800  0.06691360  1
  C  1909  1  0.60700800  0.14138700  0.08670460  1
  C  1910  1  0.60707400  0.14902800  0.07015660  1
  C  1911  1  0.60696100  0.13579500  0.05795060  1
  C  1912  1  0.60791000  0.16889700  0.10227900  1
  C  1913  1  0.62414100  0.17755200  0.10157700  1
  C  1914  1  0.62484300  0.19585700  0.10070700  1
  C  1922  1  0.60938700  0.20598300  0.10055000  1
  C  1923  1  0.61017300  0.22455800  0.09966360  1
  C  1924  1  0.61224300  0.26183200  0.09832660  1
  C  1925  1  0.62257300  0.25134100  0.08720060  1
  C  1926  1  0.62148200  0.23303900  0.08778860  1
  C  1929  1  0.61376800  0.28034200  0.09802860  1
  C  1931  1  0.60070200  0.30903700  0.10058800  1
  C  1932  1  0.60187500  0.34574100  0.10115500  1
  C  1933  1  0.58862700  0.33734800  0.09126860  1
  C  1934  1  0.58813000  0.31889800  0.09138560  1
  C  1936  1  0.60280800  0.36410200  0.10172500  1
  C  1937  1  0.59193900  0.39271100  0.09354360  1
  C  1938  1  0.59055600  0.37435300  0.09233560  1
  C  1939  1  0.57754700  0.36599000  0.08221760  1
  C  1940  1  0.57654700  0.34758400  0.08173760  1
  C  1946  1  0.60492400  0.40073400  0.10392700  1
  C  1947  1  0.60904800  0.45682800  0.09855060  1
  C  1948  1  0.61087200  0.47508500  0.09873060  1
  C  1951  1  0.10749700  0.59218500  0.03037060  1
  C  1952  1  0.10776800  0.59277400  0.01203160  1
  C  1955  1  0.23487900  0.59912200  0.09659860  1
  C  1956  1  0.25320400  0.59992700  0.09648660  1
  C  1959  1  0.34574600  0.59984900  0.10316100  1
  C  1960  1  0.36410400  0.60066500  0.10232800  1
  C  1961  1  0.40066100  0.60326900  0.10047500  1
  C  1962  1  0.45668700  0.59747300  0.09924660  1
  C  1963  1  0.47500400  0.59769900  0.09820160  1
  C  1966  1  0.60272500  0.51339200  0.09258760  1
  C  1967  1  0.60368600  0.53170900  0.09230660  1
  C  1970  1  0.69709800  0.60306500  0.09270260  1
  C  1971  1  0.67878100  0.60394700  0.09238760  1
  C  1973  1  0.90131600  0.60029100  0.10043800  1
  C  1974  1  0.86463300  0.60164600  0.10105700  1
  C  1975  1  0.87294000  0.58833900  0.09117860  1
  C  1976  1  0.89138700  0.58774800  0.09127060  1
  C  1978  1  0.84628300  0.60268900  0.10164100  1
  C  1979  1  0.81760600  0.59197800  0.09351260  1
  C  1980  1  0.83595000  0.59048500  0.09228060  1
  C  1981  1  0.84422700  0.57741100  0.08217460  1
  C  1982  1  0.86262600  0.57630600  0.08167460  1
  C  1990  1  0.01322100  0.59284500  0.10112600  1
  C  1991  1  0.03153500  0.59216000  0.10203100  1
  C  1994  1  0.14296000  0.60745500  0.08896360  1
  C  1996  1  0.12306900  0.60731300  0.06759760  1
  C  1997  1  0.13957000  0.60753100  0.05986760  1
  C  1998  1  0.15183700  0.60761300  0.07304560  1
  C  1999  1  0.10683500  0.60726100  0.05870060  1
  C  2000  1  0.10733000  0.60777300  0.04015860  1
  C  2001  1  0.10784300  0.62446100  0.01299960  1
  C  2002  1  0.10750900  0.62392800  0.03133160  1
  C  2007  1  0.31820700  0.61054800  0.09330160  1
  C  2009  1  0.38964300  0.61325400  0.08963960  1
  C  2015  1  0.53098900  0.60792900  0.09166860  1
  C  2016  1  0.51265300  0.60839400  0.09223760  1
  C  2019  1  0.60743300  0.67952300  0.09171160  1
  C  2020  1  0.60804300  0.69785200  0.09230860  1
  C  2023  1  0.73539800  0.61127500  0.09876060  1
  C  2024  1  0.75364100  0.60934300  0.09854560  1
  C  2027  1  0.80968200  0.60503100  0.10388700  1
  C  2028  1  0.98576800  0.60973900  0.09927560  1
  C  2029  1  0.97727400  0.62094000  0.08730760  1
  C  2030  1  0.95897000  0.62200000  0.08671760  1
  C  2031  1  0.94850000  0.61175200  0.09793760  1
  C  2034  1  0.92999700  0.61328100  0.09766860  1
  C  2036  1  0.00433902  0.60902200  0.10019700  1
  C  2037  1  0.09081800  0.60708700  0.06687560  1
  C  2039  1  0.06928700  0.60701400  0.08692060  1
  C  2040  1  0.06166500  0.60710700  0.07035360  1
  C  2041  1  0.07484200  0.60715800  0.05808560  1
  C  2042  1  0.05993800  0.60711100  0.10295400  1
  C  2043  1  0.04141200  0.60769500  0.10211900  1
  C  2044  1  0.03270400  0.62388900  0.10127700  1
  C  2045  1  0.01440300  0.62451700  0.10030200  1
  C  2051  1  0.59738200  0.73548500  0.09828960  1
  C  2052  1  0.59716600  0.75379600  0.09936760  1
  C  2058  1  0.59933900  0.86466500  0.10314200  1
  C  2059  1  0.60022200  0.84631100  0.10233700  1
  C  2060  1  0.60299600  0.80977200  0.10056700  1
  C  2061  1  0.60999800  0.89221700  0.09328860  1
  C  2063  1  0.61296200  0.82080800  0.08973460  1
  C  2067  1  0.59950600  0.95722700  0.09673160  1
  C  2068  1  0.59874200  0.97555300  0.09695260  1
  C  2071  1  0.59247700  0.10165700  0.01257960  1
  C  2072  1  0.59180900  0.10263000  0.03089460  1
  C  2075  1  0.60679600  0.10370500  0.05927960  1
  C  2076  1  0.60698000  0.06776900  0.09031960  1
  C  2078  1  0.60676800  0.08771700  0.06869860  1
  C  2079  1  0.60686500  0.07111800  0.06114560  1
  C  2080  1  0.60699800  0.05891200  0.07437760  1
  C  2081  1  0.60735500  0.10278700  0.04075460  1
  C  2082  1  0.62354200  0.10193100  0.03203260  1
  C  2083  1  0.62415400  0.10088700  0.01373160  1
  N  8  1  0.50278600  0.02071500  0.01872800  1
  N  24  1  0.50915400  0.23155800  0.00519200  1
  N  27  1  0.51104600  0.26777700  0.00622100  1
  N  37  1  0.50228500  0.31414800  0.00006100  1
  N  42  1  0.18686000  0.49428100  0.99986900  1
  N  60  1  0.48041700  0.48216400  0.00213000  1
  N  74  1  0.52007700  0.48045900  0.00261200  1
  N  106  1  0.01951900  0.50284900  0.01963900  1
  N  136  1  0.48114100  0.52186300  0.00160800  1
  N  151  1  0.52081300  0.52016000  0.00196500  1
  N  162  1  0.68754900  0.50248300  0.00005700  1
  N  165  1  0.77014300  0.50888600  0.00507100  1
  N  168  1  0.73396300  0.51099300  0.00612800  1
  N  173  1  0.98045000  0.50270600  0.01870400  1
  N  205  1  0.49369700  0.81480000  0.99984700  1
  N  221  1  0.50292400  0.98169000  0.02081400  1
  N  233  1  0.49438200  0.00078400  0.18611200  1
  N  248  1  0.99714800  0.49583900  0.18576100  1
  N  292  1  0.00624100  0.50930800  0.23049800  1
  N  296  1  0.00730900  0.51120300  0.26669300  1
  N  302  1  0.50618300  0.98953700  0.23076800  1
  N  305  1  0.50743400  0.98758400  0.26699200  1
  N  325  1  0.00110300  0.50251900  0.31306300  1
  N  335  1  0.50030600  0.99567000  0.31330100  1
  N  355  1  0.48203500  0.00300200  0.47969100  1
  N  369  1  0.52173700  0.00246800  0.48043600  1
  N  394  1  0.81464800  0.00082700  0.49317900  1
  N  405  1  0.00574200  0.23157300  0.48922500  1
  N  408  1  0.00761200  0.26774700  0.48727900  1
  N  413  1  0.00099500  0.31421300  0.49498100  1
  N  420  1  0.00370700  0.48071700  0.48100100  1
  N  438  1  0.00278300  0.52034600  0.47927600  1
  N  463  1  0.99639100  0.68750500  0.49720600  1
  N  467  1  0.98983300  0.77003900  0.49210700  1
  N  471  1  0.98758300  0.73383700  0.49119900  1
  N  482  1  0.18668900  0.99716400  0.49473900  1
  N  510  1  0.68752600  0.99570300  0.49940700  1
  N  524  1  0.02044700  0.01960900  0.50282400  1
  N  536  1  0.23143200  0.00617800  0.50827500  1
  N  540  1  0.26764400  0.00720000  0.51019400  1
  N  542  1  0.31401800  0.00094600  0.50152600  1
  N  545  1  0.48030900  0.00343600  0.51935400  1
  N  560  1  0.52001300  0.00277500  0.52010900  1
  N  590  1  0.98140800  0.02143600  0.50297600  1
  N  611  1  0.99424300  0.18706700  0.50162100  1
  N  636  1  0.00314400  0.48144300  0.52070900  1
  N  654  1  0.00203700  0.52108800  0.51899600  1
  N  688  1  0.00291600  0.81474100  0.50209800  1
  N  701  1  0.01961000  0.98056800  0.50268900  1
  N  735  1  0.77003300  0.98959600  0.50509500  1
  N  738  1  0.73383600  0.98766900  0.50647000  1
  N  743  1  0.98057700  0.98240200  0.50283600  1
  N  764  1  0.50229200  0.00084300  0.68685500  1
  N  779  1  0.99569500  0.50043100  0.68659400  1
  N  786  1  0.50859900  0.00572300  0.76947600  1
  N  790  1  0.51074000  0.00685200  0.73329400  1
  N  809  1  0.98922900  0.50578700  0.76912600  1
  N  812  1  0.98746800  0.50729600  0.73291000  1
  N  833  1  0.00028400  0.49373100  0.81376000  1
  N  848  1  0.49476000  0.99665800  0.81410300  1
  N  864  1  0.50243900  0.01960000  0.97967400  1
  N  876  1  0.49554500  0.18681000  0.99629400  1
  N  944  1  0.81479800  0.49508700  0.99609700  1
  N  951  1  0.02142500  0.50288300  0.98061400  1
  N  964  1  0.23149700  0.50613200  0.98860400  1
  N  967  1  0.26772000  0.50743600  0.98666800  1
  N  969  1  0.31403100  0.50035400  0.99476300  1
  N  994  1  0.98236700  0.50253800  0.97968800  1
  N  1012  1  0.50018100  0.68767700  0.99489300  1
  N  1018  1  0.50562400  0.77019100  0.98860300  1
  N  1021  1  0.50705700  0.73398800  0.98672100  1
  N  1033  1  0.50237000  0.98058300  0.98177100  1
  N  1052  1  0.60715500  0.12508400  0.12312000  1
  N  1068  1  0.61352300  0.33592700  0.10958400  1
  N  1071  1  0.61541500  0.37214600  0.11061300  1
  N  1081  1  0.60665400  0.41851700  0.10445300  1
  N  1086  1  0.29122900  0.59865000  0.10426100  1
  N  1104  1  0.58478600  0.58653300  0.10652200  1
  N  1118  1  0.62444600  0.58482800  0.10700400  1
  N  1150  1  0.12388800  0.60721800  0.12403100  1
  N  1180  1  0.58551000  0.62623200  0.10600000  1
  N  1195  1  0.62518200  0.62452900  0.10635700  1
  N  1206  1  0.79191800  0.60685200  0.10444900  1
  N  1209  1  0.87451200  0.61325500  0.10946300  1
  N  1212  1  0.83833200  0.61536200  0.11052000  1
  N  1217  1  0.08481900  0.60707500  0.12309600  1
  N  1249  1  0.59806600  0.91916900  0.10423900  1
  N  1265  1  0.60729300  0.08605900  0.12520600  1
  N  1277  1  0.59875100  0.10515300  0.29050400  1
  N  1292  1  0.10151700  0.60020800  0.29015300  1
  N  1336  1  0.11061000  0.61367700  0.33489000  1
  N  1340  1  0.11167800  0.61557200  0.37108500  1
  N  1346  1  0.61055200  0.09390600  0.33516000  1
  N  1349  1  0.61180300  0.09195300  0.37138400  1
  N  1369  1  0.10547200  0.60688800  0.41745500  1
  N  1379  1  0.60467500  0.10003900  0.41769300  1
  N  1399  1  0.58640400  0.10737100  0.58408300  1
  N  1413  1  0.62610600  0.10683700  0.58482800  1
  N  1438  1  0.91901700  0.10519600  0.59757100  1
  N  1449  1  0.11011100  0.33594200  0.59361700  1
  N  1452  1  0.11198100  0.37211600  0.59167100  1
  N  1457  1  0.10536400  0.41858200  0.59937300  1
  N  1464  1  0.10807600  0.58508600  0.58539300  1
  N  1482  1  0.10715200  0.62471500  0.58366800  1
  N  1507  1  0.10076000  0.79187400  0.60159800  1
  N  1511  1  0.09420200  0.87440800  0.59649900  1
  N  1515  1  0.09195200  0.83820600  0.59559100  1
  N  1526  1  0.29105800  0.10153300  0.59913100  1
  N  1554  1  0.79189500  0.10007200  0.60379900  1
  N  1568  1  0.12481600  0.12397800  0.60721600  1
  N  1580  1  0.33580100  0.11054700  0.61266700  1
  N  1584  1  0.37201300  0.11156900  0.61458600  1
  N  1586  1  0.41838700  0.10531500  0.60591800  1
  N  1589  1  0.58467800  0.10780500  0.62374600  1
  N  1604  1  0.62438200  0.10714400  0.62450100  1
  N  1634  1  0.08577700  0.12580500  0.60736800  1
  N  1655  1  0.09861200  0.29143600  0.60601300  1
  N  1680  1  0.10751300  0.58581200  0.62510100  1
  N  1698  1  0.10640600  0.62545700  0.62338800  1
  N  1732  1  0.10728500  0.91911000  0.60649000  1
  N  1745  1  0.12397900  0.08493700  0.60708100  1
  N  1779  1  0.87440200  0.09396500  0.60948700  1
  N  1782  1  0.83820500  0.09203800  0.61086200  1
  N  1787  1  0.08494600  0.08677100  0.60722800  1
  N  1808  1  0.60666100  0.10521200  0.79124700  1
  N  1823  1  0.10006400  0.60480000  0.79098600  1
  N  1830  1  0.61296800  0.11009200  0.87386800  1
  N  1834  1  0.61510900  0.11122100  0.83768600  1
  N  1853  1  0.09359800  0.61015600  0.87351800  1
  N  1856  1  0.09183700  0.61166500  0.83730200  1
  N  1877  1  0.10465300  0.59810000  0.91815200  1
  N  1892  1  0.59912900  0.10102700  0.91849500  1
  N  1908  1  0.60680800  0.12396900  0.08406560  1
  N  1920  1  0.59991400  0.29117900  0.10068600  1
  N  1988  1  0.91916700  0.59945600  0.10048900  1
  N  1995  1  0.12579400  0.60725200  0.08500560  1
  N  2008  1  0.33586600  0.61050100  0.09299560  1
  N  2011  1  0.37208900  0.61180500  0.09105960  1
  N  2013  1  0.41840000  0.60472300  0.09915460  1
  N  2038  1  0.08673600  0.60690700  0.08407960  1
  N  2056  1  0.60455000  0.79204600  0.09928460  1
  N  2062  1  0.60999300  0.87456000  0.09299460  1
  N  2065  1  0.61142600  0.83835700  0.09111260  1
  N  2077  1  0.60673900  0.08495200  0.08616260  1
  O  36  1  0.47264600  0.31945300  0.00550100  1
  O  54  1  0.27126700  0.46261800  0.02998300  1
  O  56  1  0.23580400  0.46072900  0.03124200  1
  O  94  1  0.68212900  0.47289100  0.00567900  1
  O  125  1  0.18367100  0.52434000  0.00500800  1
  O  134  1  0.31812100  0.50575100  0.02402400  1
  O  191  1  0.50541000  0.68359400  0.02418100  1
  O  201  1  0.46213300  0.73033500  0.02992200  1
  O  203  1  0.46012100  0.76579600  0.03113100  1
  O  215  1  0.52372000  0.81787200  0.00528500  1
  O  243  1  0.52442000  0.00611000  0.18301400  1
  O  258  1  0.99031800  0.52545600  0.18185200  1
  O  272  1  0.46250300  0.03077900  0.27050000  1
  O  274  1  0.46066000  0.03204700  0.23502600  1
  O  287  1  0.96944600  0.46162800  0.27004300  1
  O  289  1  0.96843900  0.45973500  0.23456800  1
  O  315  1  0.50562900  0.02493600  0.31739200  1
  O  324  1  0.00632100  0.47282600  0.31834100  1
  O  352  1  0.31932600  0.00616600  0.47183800  1
  O  390  1  0.73020700  0.03043800  0.46112400  1
  O  392  1  0.76567100  0.03168500  0.45917400  1
  O  462  1  0.02497000  0.68285500  0.48927600  1
  O  495  1  0.27096200  0.96945100  0.46052500  1
  O  497  1  0.23549600  0.96848800  0.45861100  1
  O  579  1  0.68345000  0.02502000  0.50447500  1
  O  588  1  0.81767800  0.00641100  0.52317700  1
  O  610  1  0.02386500  0.18346100  0.50466700  1
  O  622  1  0.96244300  0.27200800  0.53013300  1
  O  624  1  0.96039800  0.23656700  0.53179700  1
  O  634  1  0.00344500  0.31884200  0.52515800  1
  O  684  1  0.03695600  0.73021500  0.52913900  1
  O  686  1  0.03882300  0.76566800  0.53043900  1
  O  697  1  0.97357200  0.81923700  0.50642100  1
  O  719  1  0.18275800  0.99028100  0.52434000  1
  O  763  1  0.47269400  0.00644900  0.68142900  1
  O  778  1  0.02501000  0.50545300  0.68250300  1
  O  801  1  0.03048200  0.46219700  0.72931000  1
  O  803  1  0.03157100  0.46011200  0.76477700  1
  O  825  1  0.46074500  0.96957400  0.72953600  1
  O  827  1  0.45861100  0.96850900  0.76499600  1
  O  847  1  0.00587400  0.52372000  0.81687500  1
  O  858  1  0.52424200  0.98931800  0.81809200  1
  O  886  1  0.52508100  0.18283600  0.98919900  1
  O  898  1  0.46104400  0.27106900  0.96891200  1
  O  900  1  0.45914800  0.23560300  0.96795400  1
  O  940  1  0.73032900  0.46095200  0.96889400  1
  O  942  1  0.76578500  0.45885400  0.96789600  1
  O  991  1  0.81876200  0.52457000  0.98875200  1
  O  1080  1  0.57701500  0.42382200  0.10989300  1
  O  1098  1  0.37563600  0.56698700  0.13437500  1
  O  1100  1  0.34017300  0.56509800  0.13563400  1
  O  1138  1  0.78649800  0.57726000  0.11007100  1
  O  1169  1  0.28804000  0.62870900  0.10940000  1
  O  1178  1  0.42249000  0.61012000  0.12841600  1
  O  1235  1  0.60977900  0.78796300  0.12857300  1
  O  1245  1  0.56650200  0.83470400  0.13431400  1
  O  1247  1  0.56449000  0.87016500  0.13552300  1
  O  1259  1  0.62808900  0.92224100  0.10967700  1
  O  1287  1  0.62878900  0.11047900  0.28740600  1
  O  1302  1  0.09468700  0.62982500  0.28624400  1
  O  1316  1  0.56687200  0.13514800  0.37489200  1
  O  1318  1  0.56502900  0.13641600  0.33941800  1
  O  1331  1  0.07381500  0.56599700  0.37443500  1
  O  1333  1  0.07280800  0.56410400  0.33896000  1
  O  1359  1  0.60999800  0.12930500  0.42178400  1
  O  1368  1  0.11069000  0.57719500  0.42273300  1
  O  1396  1  0.42369500  0.11053500  0.57623000  1
  O  1434  1  0.83457600  0.13480700  0.56551600  1
  O  1436  1  0.87004000  0.13605400  0.56356600  1
  O  1506  1  0.12933900  0.78722400  0.59366800  1
  O  1539  1  0.37533100  0.07382000  0.56491700  1
  O  1541  1  0.33986500  0.07285700  0.56300300  1
  O  1623  1  0.78781900  0.12938900  0.60886700  1
  O  1632  1  0.92204700  0.11078000  0.62756900  1
  O  1654  1  0.12823400  0.28783000  0.60905900  1
  O  1666  1  0.06681200  0.37637700  0.63452500  1
  O  1668  1  0.06476700  0.34093600  0.63618900  1
  O  1678  1  0.10781400  0.42321100  0.62955000  1
  O  1728  1  0.14132500  0.83458400  0.63353100  1
  O  1730  1  0.14319200  0.87003700  0.63483100  1
  O  1741  1  0.07794100  0.92360600  0.61081300  1
  O  1763  1  0.28712700  0.09465000  0.62873200  1
  O  1807  1  0.57706300  0.11081800  0.78582100  1
  O  1822  1  0.12937900  0.60982200  0.78689500  1
  O  1845  1  0.13485100  0.56656600  0.83370200  1
  O  1847  1  0.13594000  0.56448100  0.86916900  1
  O  1869  1  0.56511400  0.07394300  0.83392800  1
  O  1871  1  0.56298000  0.07287800  0.86938800  1
  O  1891  1  0.11024300  0.62808900  0.92126700  1
  O  1902  1  0.62861100  0.09368700  0.92248400  1
  O  1930  1  0.62945000  0.28720500  0.09359060  1
  O  1942  1  0.56541300  0.37543800  0.07330360  1
  O  1944  1  0.56351700  0.33997200  0.07234560  1
  O  1984  1  0.83469800  0.56532100  0.07328560  1
  O  1986  1  0.87015400  0.56322300  0.07228760  1
  O  2035  1  0.92313100  0.62893900  0.09314360  1
