# generated using pymatgen
data_H11(C5N)4
_symmetry_space_group_name_H-M   'P 1'
_cell_length_a   39.04211582
_cell_length_b   39.04215798
_cell_length_c   39.04215798
_cell_angle_alpha   104.94360735
_cell_angle_beta   118.96433914
_cell_angle_gamma   104.94355983
_symmetry_Int_Tables_number   1
_chemical_formula_structural   H11(C5N)4
_chemical_formula_sum   'H264 C480 N96'
_cell_volume   44854.95965781
_cell_formula_units_Z   24
loop_
 _symmetry_equiv_pos_site_id
 _symmetry_equiv_pos_as_xyz
  1  'x, y, z'
loop_
 _atom_site_type_symbol
 _atom_site_label
 _atom_site_symmetry_multiplicity
 _atom_site_fract_x
 _atom_site_fract_y
 _atom_site_fract_z
 _atom_site_occupancy
  C  1  1  0.96485350  0.94405600  0.98486750  1
  C  2  1  0.97974500  0.94358300  0.02606800  1
  C  3  1  0.95154950  0.91505950  0.02910600  1
  C  4  1  0.90902500  0.88731600  0.99110800  1
  C  5  1  0.89381300  0.88726000  0.95019200  1
  C  6  1  0.92166850  0.91571500  0.94685150  1
  C  7  1  0.02255700  0.97220700  0.06322900  1
  C  8  1  0.90778650  0.91663350  0.90640300  1
  C  10  1  0.99303900  0.97276450  0.98163050  1
  C  11  1  0.03622150  0.00110250  0.01964500  1
  C  12  1  0.06407850  0.02955950  0.01630600  1
  C  13  1  0.04886800  0.02950350  0.97539150  1
  C  14  1  0.00634150  0.00176000  0.93739050  1
  C  15  1  0.97814800  0.97323750  0.94043050  1
  C  16  1  0.05010700  0.00018400  0.06009200  1
  C  18  1  0.93533400  0.94461000  0.90326700  1
  C  23  1  0.85153450  0.85941350  0.91477600  1
  C  24  1  0.99337650  0.00454650  0.89871700  1
  C  25  1  0.10635500  0.05740500  0.05172200  1
  C  26  1  0.96451700  0.91227650  0.06778250  1
  C  31  1  0.99491700  0.47275650  0.48349650  1
  C  32  1  0.03658350  0.47322300  0.49885450  1
  C  33  1  0.06814800  0.50174100  0.49917900  1
  C  34  1  0.05789800  0.52949200  0.48440900  1
  C  35  1  0.01704050  0.52955150  0.46925500  1
  C  36  1  0.98524250  0.50109700  0.46865250  1
  C  37  1  0.04511800  0.44459400  0.51303800  1
  C  38  1  0.94388100  0.50018500  0.45385700  1
  C  40  1  0.96297000  0.44405000  0.48297500  1
  C  41  1  0.97263950  0.41570750  0.49781500  1
  C  42  1  0.94084550  0.38725550  0.49721800  1
  C  43  1  0.89998950  0.38731850  0.48207200  1
  C  44  1  0.88973950  0.41506950  0.46729900  1
  C  45  1  0.92130050  0.44358550  0.46761900  1
  C  46  1  0.01400450  0.41662050  0.51261200  1
  C  48  1  0.91276550  0.47221150  0.45343200  1
  C  53  1  0.00946900  0.55739200  0.45480900  1
  C  54  1  0.84828200  0.41228750  0.45154950  1
  C  55  1  0.94841250  0.35941000  0.51165150  1
  C  56  1  0.10960800  0.50452950  0.51493650  1
  C  61  1  0.48057050  0.47411600  0.49922650  1
  C  62  1  0.52177200  0.50042450  0.54089750  1
  C  63  1  0.52481650  0.53165850  0.57246400  1
  C  64  1  0.48681750  0.53618700  0.56220950  1
  C  65  1  0.44590100  0.51048250  0.52135250  1
  C  66  1  0.44255650  0.47928650  0.48955400  1
  C  67  1  0.55893300  0.49476950  0.54943150  1
  C  68  1  0.40210850  0.45272550  0.44818900  1
  C  70  1  0.47733000  0.44269300  0.46727700  1
  C  71  1  0.51534200  0.43752000  0.47695000  1
  C  72  1  0.51199800  0.40632300  0.44515200  1
  C  73  1  0.47108250  0.38062300  0.40429150  1
  C  74  1  0.43308500  0.38515250  0.39403950  1
  C  75  1  0.43613000  0.41638700  0.42560500  1
  C  76  1  0.55579200  0.46408250  0.51831550  1
  C  78  1  0.39896900  0.42204100  0.41707300  1
  C  83  1  0.41048650  0.51734800  0.51378550  1
  C  84  1  0.39440800  0.35944400  0.35258100  1
  C  85  1  0.54741100  0.39945400  0.45272100  1
  C  86  1  0.56349450  0.55736700  0.61392250  1
  C  91  1  0.97921100  0.94269700  0.46915800  1
  C  92  1  0.99456800  0.91638450  0.48404450  1
  C  93  1  0.99489350  0.88514800  0.45584950  1
  C  94  1  0.98011650  0.88062600  0.41332650  1
  C  95  1  0.96496800  0.90633450  0.39811750  1
  C  96  1  0.96436850  0.93753000  0.42597550  1
  C  97  1  0.00875350  0.92203350  0.52685900  1
  C  98  1  0.94957300  0.96409900  0.41209500  1
  C  100  1  0.97869050  0.97412150  0.49734500  1
  C  101  1  0.99353200  0.97928900  0.54052900  1
  C  102  1  0.99293400  0.01048400  0.56838500  1
  C  103  1  0.97778550  0.03619250  0.55317600  1
  C  104  1  0.96301950  0.03167700  0.51065650  1
  C  105  1  0.96333600  0.00043550  0.48245850  1
  C  106  1  0.00832750  0.95271850  0.55440800  1
  C  108  1  0.94915000  0.99478750  0.43964550  1
  C  113  1  0.95052800  0.89946750  0.35583650  1
  C  114  1  0.94726500  0.05738350  0.49769050  1
  C  115  1  0.00736950  0.01734950  0.61066500  1
  C  116  1  0.01064800  0.85944250  0.46881650  1
  C  241  1  0.00764000  0.99964450  0.84497250  1
  C  242  1  0.04135600  0.00082850  0.84009450  1
  C  243  1  0.03741900  0.00131250  0.80246050  1
  C  244  1  0.99905950  0.00020200  0.76873250  1
  C  246  1  0.96977000  0.99827150  0.81044550  1
  C  247  1  0.99308250  0.00080650  0.72988800  1
  C  248  1  0.95337500  0.99638000  0.69450200  1
  C  249  1  0.94965150  0.99710650  0.65701700  1
  C  250  1  0.98538100  0.00291100  0.65452200  1
  C  251  1  0.02429800  0.00691450  0.69035450  1
  C  261  1  0.79944250  0.41719050  0.47071600  1
  C  262  1  0.79337400  0.41599750  0.50324150  1
  C  263  1  0.75525200  0.41550550  0.49881550  1
  C  264  1  0.72263350  0.41661300  0.46156550  1
  C  266  1  0.76628750  0.41856500  0.43421850  1
  C  267  1  0.68318100  0.41600050  0.45497850  1
  C  268  1  0.65221950  0.42042400  0.41969450  1
  C  269  1  0.61400350  0.41969150  0.41523900  1
  C  270  1  0.60569700  0.41387600  0.44515700  1
  C  271  1  0.63752650  0.40987250  0.48007100  1
  C  281  1  0.34067400  0.29143500  0.30373000  1
  C  282  1  0.33580600  0.25284350  0.29766250  1
  C  283  1  0.29817250  0.21914450  0.25954400  1
  C  284  1  0.26443800  0.22377500  0.22693300  1
  C  286  1  0.30614150  0.29477800  0.27058450  1
  C  287  1  0.22558900  0.19090650  0.18748950  1
  C  288  1  0.19018750  0.19522400  0.15654650  1
  C  289  1  0.15269550  0.16146250  0.11834200  1
  C  290  1  0.15021200  0.12324050  0.11003250  1
  C  291  1  0.18606000  0.12015900  0.14184100  1
  C  301  1  0.96641750  0.12538900  0.51195750  1
  C  302  1  0.99893700  0.16398450  0.54567950  1
  C  303  1  0.99451050  0.19767950  0.54174500  1
  C  304  1  0.95726650  0.19304600  0.50338050  1
  C  306  1  0.92992600  0.12204450  0.47408250  1
  C  307  1  0.95068150  0.22591050  0.49739900  1
  C  308  1  0.91541900  0.22158800  0.45767900  1
  C  309  1  0.91097000  0.25534650  0.45394350  1
  C  310  1  0.94087450  0.29357050  0.48968200  1
  C  311  1  0.97576750  0.29665450  0.52861400  1
  C  401  1  0.95025100  0.91716950  0.12152350  1
  C  402  1  0.91653050  0.91597700  0.12639750  1
  C  403  1  0.92046850  0.91549050  0.16403200  1
  C  404  1  0.95882550  0.91659950  0.19775600  1
  C  406  1  0.98812000  0.91854200  0.15604900  1
  C  407  1  0.96480550  0.91599750  0.23660300  1
  C  408  1  0.00451450  0.92042600  0.27199050  1
  C  409  1  0.00824000  0.91970000  0.30947600  1
  C  410  1  0.97251000  0.91389400  0.31197100  1
  C  411  1  0.93359300  0.90988800  0.27613900  1
  C  421  1  0.15846250  0.49964250  0.49578200  1
  C  422  1  0.16453500  0.50084150  0.46326050  1
  C  423  1  0.20265600  0.50133000  0.46768600  1
  C  424  1  0.23526900  0.50021400  0.50493300  1
  C  426  1  0.19161000  0.49826050  0.53227550  1
  C  427  1  0.27471750  0.50081650  0.51151500  1
  C  428  1  0.30566000  0.49636200  0.54678000  1
  C  429  1  0.34386750  0.49707700  0.55122750  1
  C  430  1  0.35218550  0.50291050  0.52132200  1
  C  431  1  0.32037750  0.50694750  0.48643000  1
  C  441  1  0.61723250  0.62537600  0.66276650  1
  C  442  1  0.62210300  0.66396850  0.66883050  1
  C  443  1  0.65973750  0.69766700  0.70694850  1
  C  444  1  0.69346850  0.69303850  0.73956200  1
  C  446  1  0.65176500  0.62203700  0.69591800  1
  C  447  1  0.73231550  0.72590700  0.77900850  1
  C  448  1  0.76770850  0.72158850  0.80996000  1
  C  449  1  0.80519550  0.75535100  0.84816950  1
  C  450  1  0.80768400  0.79357350  0.85647350  1
  C  451  1  0.77184150  0.79665300  0.82465150  1
  C  461  1  0.99148150  0.79143750  0.45456600  1
  C  462  1  0.95894550  0.75284200  0.42085450  1
  C  463  1  0.96337150  0.71914450  0.42479100  1
  C  464  1  0.00063250  0.72378050  0.46314000  1
  C  466  1  0.02798600  0.79478050  0.49242750  1
  C  467  1  0.00722450  0.69091400  0.46911250  1
  C  468  1  0.04253100  0.69524000  0.50880600  1
  C  469  1  0.04699550  0.66148200  0.51252450  1
  C  470  1  0.01706250  0.62325400  0.47680050  1
  C  471  1  0.98212550  0.62016800  0.43789850  1
  C  561  1  0.73787750  0.94405600  0.75789150  1
  C  562  1  0.75276900  0.94358300  0.79909200  1
  C  563  1  0.72457350  0.91505950  0.80213000  1
  C  564  1  0.68204900  0.88731600  0.76413200  1
  C  565  1  0.66683700  0.88726000  0.72321600  1
  C  566  1  0.69469250  0.91571500  0.71987550  1
  C  567  1  0.79558100  0.97220700  0.83625300  1
  C  568  1  0.68081050  0.91663350  0.67942700  1
  C  570  1  0.76606300  0.97276450  0.75465450  1
  C  571  1  0.80924550  0.00110250  0.79266900  1
  C  572  1  0.83710250  0.02955950  0.78933000  1
  C  573  1  0.82189200  0.02950350  0.74841550  1
  C  574  1  0.77936550  0.00176000  0.71041450  1
  C  575  1  0.75117200  0.97323750  0.71345450  1
  C  576  1  0.82313100  0.00018400  0.83311600  1
  C  578  1  0.70835800  0.94461000  0.67629100  1
  C  583  1  0.62455850  0.85941350  0.68780000  1
  C  584  1  0.76640050  0.00454650  0.67174100  1
  C  585  1  0.87937900  0.05740500  0.82474600  1
  C  586  1  0.73754100  0.91227650  0.84080650  1
  C  591  1  0.76794100  0.47275650  0.25652050  1
  C  592  1  0.80960750  0.47322300  0.27187850  1
  C  593  1  0.84117200  0.50174100  0.27220300  1
  C  594  1  0.83092200  0.52949200  0.25743300  1
  C  595  1  0.79006450  0.52955150  0.24227900  1
  C  596  1  0.75826650  0.50109700  0.24167650  1
  C  597  1  0.81814200  0.44459400  0.28606200  1
  C  598  1  0.71690500  0.50018500  0.22688100  1
  C  600  1  0.73599400  0.44405000  0.25599900  1
  C  601  1  0.74566350  0.41570750  0.27083900  1
  C  602  1  0.71386950  0.38725550  0.27024200  1
  C  603  1  0.67301350  0.38731850  0.25509600  1
  C  604  1  0.66276350  0.41506950  0.24032300  1
  C  605  1  0.69432450  0.44358550  0.24064300  1
  C  606  1  0.78702850  0.41662050  0.28563600  1
  C  608  1  0.68578950  0.47221150  0.22645600  1
  C  613  1  0.78249300  0.55739200  0.22783300  1
  C  614  1  0.62130600  0.41228750  0.22457350  1
  C  615  1  0.72143650  0.35941000  0.28467550  1
  C  616  1  0.88263200  0.50452950  0.28796050  1
  C  621  1  0.25359450  0.47411600  0.27225050  1
  C  622  1  0.29479600  0.50042450  0.31392150  1
  C  623  1  0.29784050  0.53165850  0.34548800  1
  C  624  1  0.25984150  0.53618700  0.33523350  1
  C  625  1  0.21892500  0.51048250  0.29437650  1
  C  626  1  0.21558030  0.47928650  0.26257780  1
  C  627  1  0.33195700  0.49476950  0.32245550  1
  C  628  1  0.17513230  0.45272550  0.22121280  1
  C  630  1  0.25035400  0.44269300  0.24030100  1
  C  631  1  0.28836600  0.43752000  0.24997400  1
  C  632  1  0.28502200  0.40632300  0.21817600  1
  C  633  1  0.24410650  0.38062300  0.17731550  1
  C  634  1  0.20610880  0.38515250  0.16706330  1
  C  635  1  0.20915380  0.41638700  0.19862880  1
  C  636  1  0.32881600  0.46408250  0.29133950  1
  C  638  1  0.17199280  0.42204100  0.19009680  1
  C  643  1  0.18351030  0.51734800  0.28680930  1
  C  644  1  0.16743180  0.35944400  0.12560480  1
  C  645  1  0.32043500  0.39945400  0.22574500  1
  C  646  1  0.33651850  0.55736700  0.38694650  1
  C  651  1  0.75223500  0.94269700  0.24218200  1
  C  652  1  0.76759200  0.91638450  0.25706850  1
  C  653  1  0.76791750  0.88514800  0.22887350  1
  C  654  1  0.75314050  0.88062600  0.18635050  1
  C  655  1  0.73799200  0.90633450  0.17114150  1
  C  656  1  0.73739230  0.93753000  0.19899930  1
  C  657  1  0.78177750  0.92203350  0.29988300  1
  C  658  1  0.72259680  0.96409900  0.18511880  1
  C  660  1  0.75171450  0.97412150  0.27036900  1
  C  661  1  0.76655600  0.97928900  0.31355300  1
  C  662  1  0.76595800  0.01048400  0.34140900  1
  C  663  1  0.75080950  0.03619250  0.32620000  1
  C  664  1  0.73604330  0.03167700  0.28368030  1
  C  665  1  0.73635980  0.00043550  0.25548230  1
  C  666  1  0.78135150  0.95271850  0.32743200  1
  C  668  1  0.72217380  0.99478750  0.21266930  1
  C  673  1  0.72355180  0.89946750  0.12886030  1
  C  674  1  0.72028880  0.05738350  0.27071430  1
  C  675  1  0.78039350  0.01734950  0.38368900  1
  C  676  1  0.78367200  0.85944250  0.24184050  1
  C  801  1  0.78066400  0.99964450  0.61799650  1
  C  802  1  0.81438000  0.00082850  0.61311850  1
  C  803  1  0.81044300  0.00131250  0.57548450  1
  C  804  1  0.77208350  0.00020200  0.54175650  1
  C  806  1  0.74279400  0.99827150  0.58346950  1
  C  807  1  0.76610650  0.00080650  0.50291200  1
  C  808  1  0.72639900  0.99638000  0.46752600  1
  C  809  1  0.72267550  0.99710650  0.43004100  1
  C  810  1  0.75840500  0.00291100  0.42754600  1
  C  811  1  0.79732200  0.00691450  0.46337850  1
  C  821  1  0.57246650  0.41719050  0.24374000  1
  C  822  1  0.56639800  0.41599750  0.27626550  1
  C  823  1  0.52827600  0.41550550  0.27183950  1
  C  824  1  0.49565750  0.41661300  0.23458950  1
  C  826  1  0.53931150  0.41856500  0.20724250  1
  C  827  1  0.45620500  0.41600050  0.22800250  1
  C  828  1  0.42524350  0.42042400  0.19271850  1
  C  829  1  0.38702750  0.41969150  0.18826300  1
  C  830  1  0.37872100  0.41387600  0.21818100  1
  C  831  1  0.41055050  0.40987250  0.25309500  1
  C  841  1  0.11369780  0.29143500  0.07675380  1
  C  842  1  0.10882980  0.25284350  0.07068630  1
  C  843  1  0.07119630  0.21914450  0.03256780  1
  C  844  1  0.03746180  0.22377500  0.99995680  1
  C  846  1  0.07916530  0.29477800  0.04360830  1
  C  847  1  0.99861300  0.19090650  0.96051350  1
  C  848  1  0.96321150  0.19522400  0.92957050  1
  C  849  1  0.92571950  0.16146250  0.89136600  1
  C  850  1  0.92323600  0.12324050  0.88305650  1
  C  851  1  0.95908400  0.12015900  0.91486500  1
  C  861  1  0.73944130  0.12538900  0.28498130  1
  C  862  1  0.77196080  0.16398450  0.31870330  1
  C  863  1  0.76753430  0.19767950  0.31476880  1
  C  864  1  0.73029030  0.19304600  0.27640430  1
  C  866  1  0.70294980  0.12204450  0.24710630  1
  C  867  1  0.72370550  0.22591050  0.27042300  1
  C  868  1  0.68844300  0.22158800  0.23070300  1
  C  869  1  0.68399400  0.25534650  0.22696750  1
  C  870  1  0.71389850  0.29357050  0.26270600  1
  C  871  1  0.74879150  0.29665450  0.30163800  1
  C  961  1  0.72327500  0.91716950  0.89454750  1
  C  962  1  0.68955450  0.91597700  0.89942150  1
  C  963  1  0.69349250  0.91549050  0.93705600  1
  C  964  1  0.73184950  0.91659950  0.97078000  1
  C  966  1  0.76114400  0.91854200  0.92907300  1
  C  967  1  0.73782930  0.91599750  0.00962680  1
  C  968  1  0.77753830  0.92042600  0.04501430  1
  C  969  1  0.78126380  0.91970000  0.08249980  1
  C  970  1  0.74553380  0.91389400  0.08499480  1
  C  971  1  0.70661680  0.90988800  0.04916280  1
  C  981  1  0.93148650  0.49964250  0.26880600  1
  C  982  1  0.93755900  0.50084150  0.23628450  1
  C  983  1  0.97568000  0.50133000  0.24071000  1
  C  984  1  0.00829300  0.50021400  0.27795700  1
  C  986  1  0.96463400  0.49826050  0.30529950  1
  C  987  1  0.04774130  0.50081650  0.28453880  1
  C  988  1  0.07868380  0.49636200  0.31980380  1
  C  989  1  0.11689130  0.49707700  0.32425130  1
  C  990  1  0.12520930  0.50291050  0.29434580  1
  C  991  1  0.09340130  0.50694750  0.25945380  1
  C  1001  1  0.39025650  0.62537600  0.43579050  1
  C  1002  1  0.39512700  0.66396850  0.44185450  1
  C  1003  1  0.43276150  0.69766700  0.47997250  1
  C  1004  1  0.46649250  0.69303850  0.51258600  1
  C  1006  1  0.42478900  0.62203700  0.46894200  1
  C  1007  1  0.50533950  0.72590700  0.55203250  1
  C  1008  1  0.54073250  0.72158850  0.58298400  1
  C  1009  1  0.57821950  0.75535100  0.62119350  1
  C  1010  1  0.58070800  0.79357350  0.62949750  1
  C  1011  1  0.54486550  0.79665300  0.59767550  1
  C  1021  1  0.76450550  0.79143750  0.22759000  1
  C  1022  1  0.73196950  0.75284200  0.19387850  1
  C  1023  1  0.73639550  0.71914450  0.19781500  1
  C  1024  1  0.77365650  0.72378050  0.23616400  1
  C  1026  1  0.80101000  0.79478050  0.26545150  1
  C  1027  1  0.78024850  0.69091400  0.24213650  1
  C  1028  1  0.81555500  0.69524000  0.28183000  1
  C  1029  1  0.82001950  0.66148200  0.28554850  1
  C  1030  1  0.79008650  0.62325400  0.24982450  1
  C  1031  1  0.75514950  0.62016800  0.21092250  1
  C  1121  1  0.51090050  0.94405600  0.53091450  1
  C  1122  1  0.52579200  0.94358300  0.57211500  1
  C  1123  1  0.49759650  0.91505950  0.57515300  1
  C  1124  1  0.45507200  0.88731600  0.53715500  1
  C  1125  1  0.43986000  0.88726000  0.49623900  1
  C  1126  1  0.46771550  0.91571500  0.49289850  1
  C  1127  1  0.56860400  0.97220700  0.60927600  1
  C  1128  1  0.45383361  0.91663350  0.45245011  1
  C  1130  1  0.53908600  0.97276450  0.52767750  1
  C  1131  1  0.58226850  0.00110250  0.56569200  1
  C  1132  1  0.61012550  0.02955950  0.56235300  1
  C  1133  1  0.59491500  0.02950350  0.52143850  1
  C  1134  1  0.55238850  0.00176000  0.48343750  1
  C  1135  1  0.52419500  0.97323750  0.48647750  1
  C  1136  1  0.59615400  0.00018400  0.60613900  1
  C  1138  1  0.48138110  0.94461000  0.44931411  1
  C  1143  1  0.39758160  0.85941350  0.46082310  1
  C  1144  1  0.53942360  0.00454650  0.44476410  1
  C  1145  1  0.65240200  0.05740500  0.59776900  1
  C  1146  1  0.51056400  0.91227650  0.61382950  1
  C  1151  1  0.54096400  0.47275650  0.02954350  1
  C  1152  1  0.58263050  0.47322300  0.04490150  1
  C  1153  1  0.61419500  0.50174100  0.04522600  1
  C  1154  1  0.60394500  0.52949200  0.03045600  1
  C  1155  1  0.56308750  0.52955150  0.01530200  1
  C  1156  1  0.53128950  0.50109700  0.01469950  1
  C  1157  1  0.59116500  0.44459400  0.05908500  1
  C  1158  1  0.48992811  0.50018500  0.99990411  1
  C  1160  1  0.50901700  0.44405000  0.02902200  1
  C  1161  1  0.51868650  0.41570750  0.04386200  1
  C  1162  1  0.48689250  0.38725550  0.04326500  1
  C  1163  1  0.44603650  0.38731850  0.02811900  1
  C  1164  1  0.43578650  0.41506950  0.01334600  1
  C  1165  1  0.46734750  0.44358550  0.01366600  1
  C  1166  1  0.56005150  0.41662050  0.05865900  1
  C  1168  1  0.45881260  0.47221150  0.99947910  1
  C  1173  1  0.55551610  0.55739200  0.00085610  1
  C  1174  1  0.39432910  0.41228750  0.99759660  1
  C  1175  1  0.49445950  0.35941000  0.05769850  1
  C  1176  1  0.65565500  0.50452950  0.06098350  1
  C  1181  1  0.02661750  0.47411600  0.04527350  1
  C  1182  1  0.06781900  0.50042450  0.08694450  1
  C  1183  1  0.07086350  0.53165850  0.11851100  1
  C  1184  1  0.03286450  0.53618700  0.10825650  1
  C  1185  1  0.99194800  0.51048250  0.06739950  1
  C  1186  1  0.98860350  0.47928650  0.03560100  1
  C  1187  1  0.10498000  0.49476950  0.09547850  1
  C  1188  1  0.94815550  0.45272550  0.99423600  1
  C  1190  1  0.02337700  0.44269300  0.01332400  1
  C  1191  1  0.06138900  0.43752000  0.02299700  1
  C  1192  1  0.05804500  0.40632300  0.99119900  1
  C  1193  1  0.01712950  0.38062300  0.95033850  1
  C  1194  1  0.97913200  0.38515250  0.94008650  1
  C  1195  1  0.98217700  0.41638700  0.97165200  1
  C  1196  1  0.10183900  0.46408250  0.06436250  1
  C  1198  1  0.94501600  0.42204100  0.96312000  1
  C  1203  1  0.95653350  0.51734800  0.05983250  1
  C  1204  1  0.94045500  0.35944400  0.89862800  1
  C  1205  1  0.09345800  0.39945400  0.99876800  1
  C  1206  1  0.10954150  0.55736700  0.15996950  1
  C  1211  1  0.52525800  0.94269700  0.01520500  1
  C  1212  1  0.54061500  0.91638450  0.03009150  1
  C  1213  1  0.54094050  0.88514800  0.00189650  1
  C  1214  1  0.52616350  0.88062600  0.95937350  1
  C  1215  1  0.51101500  0.90633450  0.94416450  1
  C  1216  1  0.51041550  0.93753000  0.97202250  1
  C  1217  1  0.55480050  0.92203350  0.07290600  1
  C  1218  1  0.49562000  0.96409900  0.95814200  1
  C  1220  1  0.52473750  0.97412150  0.04339200  1
  C  1221  1  0.53957900  0.97928900  0.08657600  1
  C  1222  1  0.53898100  0.01048400  0.11443200  1
  C  1223  1  0.52383250  0.03619250  0.09922300  1
  C  1224  1  0.50906650  0.03167700  0.05670350  1
  C  1225  1  0.50938300  0.00043550  0.02850550  1
  C  1226  1  0.55437450  0.95271850  0.10045500  1
  C  1228  1  0.49519700  0.99478750  0.98569250  1
  C  1233  1  0.49657500  0.89946750  0.90188350  1
  C  1234  1  0.49331200  0.05738350  0.04373750  1
  C  1235  1  0.55341650  0.01734950  0.15671200  1
  C  1236  1  0.55669500  0.85944250  0.01486350  1
  C  1361  1  0.55368710  0.99964450  0.39101960  1
  C  1362  1  0.58740310  0.00082850  0.38614160  1
  C  1363  1  0.58346610  0.00131250  0.34850760  1
  C  1364  1  0.54510660  0.00020200  0.31477960  1
  C  1366  1  0.51581710  0.99827150  0.35649260  1
  C  1367  1  0.53912960  0.00080650  0.27593510  1
  C  1368  1  0.49942200  0.99638000  0.24054900  1
  C  1369  1  0.49569850  0.99710650  0.20306400  1
  C  1370  1  0.53142800  0.00291100  0.20056900  1
  C  1371  1  0.57034500  0.00691450  0.23640150  1
  C  1381  1  0.34548960  0.41719050  0.01676310  1
  C  1382  1  0.33942110  0.41599750  0.04928860  1
  C  1383  1  0.30129910  0.41550550  0.04486260  1
  C  1384  1  0.26868060  0.41661300  0.00761260  1
  C  1386  1  0.31233460  0.41856500  0.98026560  1
  C  1387  1  0.22922810  0.41600050  0.00102560  1
  C  1388  1  0.19826650  0.42042400  0.96574150  1
  C  1389  1  0.16005050  0.41969150  0.96128600  1
  C  1390  1  0.15174400  0.41387600  0.99120400  1
  C  1391  1  0.18357350  0.40987250  0.02611800  1
  C  1401  1  0.88672100  0.29143500  0.84977700  1
  C  1402  1  0.88185300  0.25284350  0.84370950  1
  C  1403  1  0.84421950  0.21914450  0.80559100  1
  C  1404  1  0.81048500  0.22377500  0.77298000  1
  C  1406  1  0.85218850  0.29477800  0.81663150  1
  C  1407  1  0.77163600  0.19090650  0.73353650  1
  C  1408  1  0.73623450  0.19522400  0.70259350  1
  C  1409  1  0.69874250  0.16146250  0.66438900  1
  C  1410  1  0.69625900  0.12324050  0.65607950  1
  C  1411  1  0.73210700  0.12015900  0.68788800  1
  C  1421  1  0.51246450  0.12538900  0.05800450  1
  C  1422  1  0.54498400  0.16398450  0.09172650  1
  C  1423  1  0.54055750  0.19767950  0.08779200  1
  C  1424  1  0.50331350  0.19304600  0.04942750  1
  C  1426  1  0.47597300  0.12204450  0.02012950  1
  C  1427  1  0.49672850  0.22591050  0.04344600  1
  C  1428  1  0.46146600  0.22158800  0.00372600  1
  C  1429  1  0.45701700  0.25534650  0.99999050  1
  C  1430  1  0.48692150  0.29357050  0.03572900  1
  C  1431  1  0.52181450  0.29665450  0.07466100  1
  C  1521  1  0.49629800  0.91716950  0.66757050  1
  C  1522  1  0.46257750  0.91597700  0.67244450  1
  C  1523  1  0.46651550  0.91549050  0.71007900  1
  C  1524  1  0.50487250  0.91659950  0.74380300  1
  C  1526  1  0.53416700  0.91854200  0.70209600  1
  C  1527  1  0.51085250  0.91599750  0.78265000  1
  C  1528  1  0.55056150  0.92042600  0.81803750  1
  C  1529  1  0.55428700  0.91970000  0.85552300  1
  C  1530  1  0.51855700  0.91389400  0.85801800  1
  C  1531  1  0.47964000  0.90988800  0.82218600  1
  C  1541  1  0.70450950  0.49964250  0.04182900  1
  C  1542  1  0.71058200  0.50084150  0.00930750  1
  C  1543  1  0.74870300  0.50133000  0.01373300  1
  C  1544  1  0.78131600  0.50021400  0.05098000  1
  C  1546  1  0.73765700  0.49826050  0.07832250  1
  C  1547  1  0.82076450  0.50081650  0.05756200  1
  C  1548  1  0.85170700  0.49636200  0.09282700  1
  C  1549  1  0.88991450  0.49707700  0.09727450  1
  C  1550  1  0.89823250  0.50291050  0.06736900  1
  C  1551  1  0.86642450  0.50694750  0.03247700  1
  C  1561  1  0.16327950  0.62537600  0.20881350  1
  C  1562  1  0.16815000  0.66396850  0.21487750  1
  C  1563  1  0.20578450  0.69766700  0.25299550  1
  C  1564  1  0.23951560  0.69303850  0.28560910  1
  C  1566  1  0.19781210  0.62203700  0.24196510  1
  C  1567  1  0.27836260  0.72590700  0.32505560  1
  C  1568  1  0.31375560  0.72158850  0.35600710  1
  C  1569  1  0.35124261  0.75535100  0.39421660  1
  C  1570  1  0.35373110  0.79357350  0.40252060  1
  C  1571  1  0.31788860  0.79665300  0.37069860  1
  C  1581  1  0.53752850  0.79143750  0.00061300  1
  C  1582  1  0.50499250  0.75284200  0.96690150  1
  C  1583  1  0.50941850  0.71914450  0.97083800  1
  C  1584  1  0.54667960  0.72378050  0.00918710  1
  C  1586  1  0.57403310  0.79478050  0.03847460  1
  C  1587  1  0.55327160  0.69091400  0.01515960  1
  C  1588  1  0.58857810  0.69524000  0.05485310  1
  C  1589  1  0.59304260  0.66148200  0.05857160  1
  C  1590  1  0.56310960  0.62325400  0.02284760  1
  C  1591  1  0.52817260  0.62016800  0.98394560  1
  H  9  1  0.88879800  0.86653000  0.99321700  1
  H  17  1  0.06909500  0.05028750  0.97328250  1
  H  19  1  0.08067000  0.02007550  0.08822150  1
  H  20  1  0.03451700  0.97335350  0.09351650  1
  H  21  1  0.92337750  0.94346200  0.87297950  1
  H  22  1  0.87722350  0.89674050  0.87827500  1
  H  27  1  0.82762250  0.86749800  0.90630450  1
  H  28  1  0.96794600  0.01024850  0.88458450  1
  H  29  1  0.13027900  0.04933550  0.06016050  1
  H  30  1  0.98992850  0.90654900  0.08189950  1
  H  39  1  0.08079250  0.55027650  0.48496600  1
  H  47  1  0.87709700  0.36653950  0.48152050  1
  H  49  1  0.02223800  0.39672800  0.52328400  1
  H  50  1  0.07425650  0.44344500  0.52384850  1
  H  51  1  0.88362950  0.47336400  0.44262750  1
  H  52  1  0.93564850  0.52008150  0.44319200  1
  H  57  1  0.99276900  0.54925250  0.42279450  1
  H  58  1  0.82843700  0.40655950  0.42040950  1
  H  59  1  0.96490950  0.36748250  0.54364400  1
  H  60  1  0.12944300  0.51023800  0.54607200  1
  H  69  1  0.48892850  0.55852200  0.58510550  1
  H  77  1  0.46897200  0.35828650  0.38139750  1
  H  79  1  0.58391900  0.46164500  0.52654900  1
  H  80  1  0.58922050  0.51309700  0.57857050  1
  H  81  1  0.36867950  0.40371250  0.38793100  1
  H  82  1  0.37398200  0.45516300  0.43995600  1
  H  87  1  0.40206350  0.53284550  0.49729200  1
  H  88  1  0.38028350  0.37074100  0.33274350  1
  H  89  1  0.55590450  0.38404750  0.46931700  1
  H  90  1  0.57762450  0.54607050  0.63375700  1
  H  99  1  0.98067200  0.85828950  0.39309850  1
  H  107  1  0.97723400  0.05853250  0.57340650  1
  H  109  1  0.01899750  0.95515350  0.58497100  1
  H  110  1  0.01956050  0.90370100  0.53881350  1
  H  111  1  0.93834550  0.01311900  0.42769050  1
  H  112  1  0.93890600  0.96166600  0.38153200  1
  H  117  1  0.91852100  0.88407200  0.33194000  1
  H  118  1  0.91612300  0.04608650  0.47227950  1
  H  119  1  0.03937300  0.03274700  0.63456300  1
  H  120  1  0.04178200  0.87073900  0.49423900  1
  H  253  1  0.05091550  0.01010750  0.69003800  1
  H  254  1  0.92689350  0.99223350  0.69534600  1
  H  255  1  0.92062250  0.99354100  0.63155650  1
  H  256  1  0.94388650  0.99676850  0.81158800  1
  H  257  1  0.06929600  0.00161950  0.86414850  1
  H  258  1  0.06256400  0.00231250  0.80005050  1
  H  273  1  0.63402500  0.40669600  0.50350500  1
  H  274  1  0.65721400  0.42457850  0.39736450  1
  H  275  1  0.59211300  0.42326100  0.38978000  1
  H  276  1  0.76893300  0.42006550  0.40983650  1
  H  277  1  0.81663550  0.41520600  0.53039050  1
  H  278  1  0.75183850  0.41450000  0.52295750  1
  H  293  1  0.18575000  0.09322500  0.13832300  1
  H  294  1  0.19102250  0.22254900  0.16154850  1
  H  295  1  0.12722350  0.16502750  0.09646300  1
  H  296  1  0.30727550  0.32180150  0.27323400  1
  H  297  1  0.35986450  0.24895650  0.32092100  1
  H  298  1  0.29576750  0.19159050  0.25613100  1
  H  313  1  0.99919300  0.32359300  0.55522800  1
  H  314  1  0.89310000  0.19426200  0.43118800  1
  H  315  1  0.88552750  0.25177900  0.42490450  1
  H  316  1  0.90554850  0.09501600  0.44819550  1
  H  317  1  0.02608500  0.16787300  0.57362400  1
  H  318  1  0.01864950  0.22523500  0.56689350  1
  H  413  1  0.90697400  0.90669300  0.27645400  1
  H  414  1  0.03099500  0.92457350  0.27114450  1
  H  415  1  0.03726850  0.92326650  0.33493500  1
  H  416  1  0.01400650  0.92005050  0.15490900  1
  H  417  1  0.88859150  0.91518750  0.10234600  1
  H  418  1  0.89532100  0.91448750  0.16643950  1
  H  433  1  0.32388600  0.51013550  0.46300150  1
  H  434  1  0.30065400  0.49219300  0.56909900  1
  H  435  1  0.36574350  0.49348250  0.57667100  1
  H  436  1  0.18896300  0.49675500  0.55665400  1
  H  437  1  0.14127500  0.50163650  0.43611350  1
  H  438  1  0.20607200  0.50233900  0.44354700  1
  H  453  1  0.77215400  0.82358800  0.82816700  1
  H  454  1  0.76687050  0.69426400  0.80496550  1
  H  455  1  0.83066250  0.75178450  0.87005700  1
  H  456  1  0.65062500  0.59501000  0.69327000  1
  H  457  1  0.59804750  0.66785350  0.64557000  1
  H  458  1  0.66214350  0.72522150  0.71035900  1
  H  473  1  0.95868000  0.59323050  0.41129350  1
  H  474  1  0.06487350  0.72256800  0.53528350  1
  H  475  1  0.07247350  0.66505500  0.54154350  1
  H  476  1  0.05237700  0.82181000  0.51830400  1
  H  477  1  0.93179050  0.74895200  0.39291950  1
  H  478  1  0.93922450  0.69158850  0.39964900  1
  H  569  1  0.66182200  0.86653000  0.76624100  1
  H  577  1  0.84211900  0.05028750  0.74630650  1
  H  579  1  0.85369400  0.02007550  0.86124550  1
  H  580  1  0.80754100  0.97335350  0.86654050  1
  H  581  1  0.69640150  0.94346200  0.64600350  1
  H  582  1  0.65024750  0.89674050  0.65129900  1
  H  587  1  0.60064650  0.86749800  0.67932850  1
  H  588  1  0.74097000  0.01024850  0.65760850  1
  H  589  1  0.90330300  0.04933550  0.83318450  1
  H  590  1  0.76295250  0.90654900  0.85492350  1
  H  599  1  0.85381650  0.55027650  0.25799000  1
  H  607  1  0.65012100  0.36653950  0.25454450  1
  H  609  1  0.79526200  0.39672800  0.29630800  1
  H  610  1  0.84728050  0.44344500  0.29687250  1
  H  611  1  0.65665350  0.47336400  0.21565150  1
  H  612  1  0.70867250  0.52008150  0.21621600  1
  H  617  1  0.76579300  0.54925250  0.19581850  1
  H  618  1  0.60146100  0.40655950  0.19343350  1
  H  619  1  0.73793350  0.36748250  0.31666800  1
  H  620  1  0.90246700  0.51023800  0.31909600  1
  H  629  1  0.26195250  0.55852200  0.35812950  1
  H  637  1  0.24199600  0.35828650  0.15442150  1
  H  639  1  0.35694300  0.46164500  0.29957300  1
  H  640  1  0.36224450  0.51309700  0.35159450  1
  H  641  1  0.14170330  0.40371250  0.16095480  1
  H  642  1  0.14700580  0.45516300  0.21297980  1
  H  647  1  0.17508730  0.53284550  0.27031580  1
  H  648  1  0.15330730  0.37074100  0.10576730  1
  H  649  1  0.32892850  0.38404750  0.24234100  1
  H  650  1  0.35064850  0.54607050  0.40678100  1
  H  659  1  0.75369600  0.85828950  0.16612250  1
  H  667  1  0.75025800  0.05853250  0.34643050  1
  H  669  1  0.79202150  0.95515350  0.35799500  1
  H  670  1  0.79258450  0.90370100  0.31183750  1
  H  671  1  0.71136930  0.01311900  0.20071430  1
  H  672  1  0.71192980  0.96166600  0.15455580  1
  H  677  1  0.69154480  0.88407200  0.10496380  1
  H  678  1  0.68914680  0.04608650  0.24530330  1
  H  679  1  0.81239700  0.03274700  0.40758700  1
  H  680  1  0.81480600  0.87073900  0.26726300  1
  H  813  1  0.82393950  0.01010750  0.46306200  1
  H  814  1  0.69991750  0.99223350  0.46837000  1
  H  815  1  0.69364650  0.99354100  0.40458050  1
  H  816  1  0.71691050  0.99676850  0.58461200  1
  H  817  1  0.84232000  0.00161950  0.63717250  1
  H  818  1  0.83558800  0.00231250  0.57307450  1
  H  833  1  0.40704900  0.40669600  0.27652900  1
  H  834  1  0.43023800  0.42457850  0.17038850  1
  H  835  1  0.36513700  0.42326100  0.16280400  1
  H  836  1  0.54195700  0.42006550  0.18286050  1
  H  837  1  0.58965950  0.41520600  0.30341450  1
  H  838  1  0.52486250  0.41450000  0.29598150  1
  H  853  1  0.95877400  0.09322500  0.91134700  1
  H  854  1  0.96404650  0.22254900  0.93457250  1
  H  855  1  0.90024750  0.16502750  0.86948700  1
  H  856  1  0.08029930  0.32180150  0.04625780  1
  H  857  1  0.13288830  0.24895650  0.09394480  1
  H  858  1  0.06879130  0.19159050  0.02915480  1
  H  873  1  0.77221700  0.32359300  0.32825200  1
  H  874  1  0.66612400  0.19426200  0.20421200  1
  H  875  1  0.65855150  0.25177900  0.19792850  1
  H  876  1  0.67857230  0.09501600  0.22121930  1
  H  877  1  0.79910880  0.16787300  0.34664780  1
  H  878  1  0.79167330  0.22523500  0.33991730  1
  H  973  1  0.67999780  0.90669300  0.04947780  1
  H  974  1  0.80401880  0.92457350  0.04416830  1
  H  975  1  0.81029230  0.92326650  0.10795880  1
  H  976  1  0.78703050  0.92005050  0.92793300  1
  H  977  1  0.66161550  0.91518750  0.87537000  1
  H  978  1  0.66834500  0.91448750  0.93946350  1
  H  993  1  0.09690980  0.51013550  0.23602530  1
  H  994  1  0.07367780  0.49219300  0.34212280  1
  H  995  1  0.13876730  0.49348250  0.34969480  1
  H  996  1  0.96198700  0.49675500  0.32967800  1
  H  997  1  0.91429900  0.50163650  0.20913750  1
  H  998  1  0.97909600  0.50233900  0.21657100  1
  H  1013  1  0.54517800  0.82358800  0.60119100  1
  H  1014  1  0.53989450  0.69426400  0.57798950  1
  H  1015  1  0.60368650  0.75178450  0.64308100  1
  H  1016  1  0.42364900  0.59501000  0.46629400  1
  H  1017  1  0.37107150  0.66785350  0.41859400  1
  H  1018  1  0.43516750  0.72522150  0.48338300  1
  H  1033  1  0.73170400  0.59323050  0.18431750  1
  H  1034  1  0.83789750  0.72256800  0.30830750  1
  H  1035  1  0.84549750  0.66505500  0.31456750  1
  H  1036  1  0.82540100  0.82181000  0.29132800  1
  H  1037  1  0.70481450  0.74895200  0.16594350  1
  H  1038  1  0.71224850  0.69158850  0.17267300  1
  H  1129  1  0.43484500  0.86653000  0.53926400  1
  H  1137  1  0.61514200  0.05028750  0.51932950  1
  H  1139  1  0.62671700  0.02007550  0.63426850  1
  H  1140  1  0.58056400  0.97335350  0.63956350  1
  H  1141  1  0.46942460  0.94346200  0.41902660  1
  H  1142  1  0.42327060  0.89674050  0.42432210  1
  H  1147  1  0.37366960  0.86749800  0.45235160  1
  H  1148  1  0.51399310  0.01024850  0.43063160  1
  H  1149  1  0.67632600  0.04933550  0.60620750  1
  H  1150  1  0.53597550  0.90654900  0.62794650  1
  H  1159  1  0.62683950  0.55027650  0.03101300  1
  H  1167  1  0.42314400  0.36653950  0.02756750  1
  H  1169  1  0.56828500  0.39672800  0.06933100  1
  H  1170  1  0.62030350  0.44344500  0.06989550  1
  H  1171  1  0.42967660  0.47336400  0.98867460  1
  H  1172  1  0.48169560  0.52008150  0.98923910  1
  H  1177  1  0.53881610  0.54925250  0.96884160  1
  H  1178  1  0.37448410  0.40655950  0.96645660  1
  H  1179  1  0.51095650  0.36748250  0.08969100  1
  H  1180  1  0.67549000  0.51023800  0.09211900  1
  H  1189  1  0.03497550  0.55852200  0.13115250  1
  H  1197  1  0.01501900  0.35828650  0.92744450  1
  H  1199  1  0.12996600  0.46164500  0.07259600  1
  H  1200  1  0.13526750  0.51309700  0.12461750  1
  H  1201  1  0.91472650  0.40371250  0.93397800  1
  H  1202  1  0.92002900  0.45516300  0.98600300  1
  H  1207  1  0.94811050  0.53284550  0.04333900  1
  H  1208  1  0.92633050  0.37074100  0.87879050  1
  H  1209  1  0.10195150  0.38404750  0.01536400  1
  H  1210  1  0.12367150  0.54607050  0.17980400  1
  H  1219  1  0.52671900  0.85828950  0.93914550  1
  H  1227  1  0.52328100  0.05853250  0.11945350  1
  H  1229  1  0.56504450  0.95515350  0.13101800  1
  H  1230  1  0.56560750  0.90370100  0.08486050  1
  H  1231  1  0.48439250  0.01311900  0.97373750  1
  H  1232  1  0.48495300  0.96166600  0.92757900  1
  H  1237  1  0.46456800  0.88407200  0.87798700  1
  H  1238  1  0.46217000  0.04608650  0.01832650  1
  H  1239  1  0.58542000  0.03274700  0.18061000  1
  H  1240  1  0.58782900  0.87073900  0.04028600  1
  H  1373  1  0.59696260  0.01010750  0.23608510  1
  H  1374  1  0.47294050  0.99223350  0.24139300  1
  H  1375  1  0.46666950  0.99354100  0.17760350  1
  H  1376  1  0.48993360  0.99676850  0.35763510  1
  H  1377  1  0.61534300  0.00161950  0.41019550  1
  H  1378  1  0.60861110  0.00231250  0.34609760  1
  H  1393  1  0.18007210  0.40669600  0.04955210  1
  H  1394  1  0.20326100  0.42457850  0.94341150  1
  H  1395  1  0.13816000  0.42326100  0.93582700  1
  H  1396  1  0.31498010  0.42006550  0.95588360  1
  H  1397  1  0.36268250  0.41520600  0.07643750  1
  H  1398  1  0.29788560  0.41450000  0.06900460  1
  H  1413  1  0.73179700  0.09322500  0.68437000  1
  H  1414  1  0.73706950  0.22254900  0.70759550  1
  H  1415  1  0.67327050  0.16502750  0.64251000  1
  H  1416  1  0.85332250  0.32180150  0.81928100  1
  H  1417  1  0.90591150  0.24895650  0.86696800  1
  H  1418  1  0.84181450  0.19159050  0.80217800  1
  H  1433  1  0.54524000  0.32359300  0.10127500  1
  H  1434  1  0.43914700  0.19426200  0.97723500  1
  H  1435  1  0.43157450  0.25177900  0.97095150  1
  H  1436  1  0.45159550  0.09501600  0.99424250  1
  H  1437  1  0.57213200  0.16787300  0.11967100  1
  H  1438  1  0.56469650  0.22523500  0.11294050  1
  H  1533  1  0.45302100  0.90669300  0.82250100  1
  H  1534  1  0.57704200  0.92457350  0.81719150  1
  H  1535  1  0.58331550  0.92326650  0.88098200  1
  H  1536  1  0.56005350  0.92005050  0.70095600  1
  H  1537  1  0.43463850  0.91518750  0.64839300  1
  H  1538  1  0.44136800  0.91448750  0.71248650  1
  H  1553  1  0.86993300  0.51013550  0.00904850  1
  H  1554  1  0.84670100  0.49219300  0.11514600  1
  H  1555  1  0.91179050  0.49348250  0.12271800  1
  H  1556  1  0.73501000  0.49675500  0.10270100  1
  H  1557  1  0.68732200  0.50163650  0.98216050  1
  H  1558  1  0.75211900  0.50233900  0.98959400  1
  H  1573  1  0.31820110  0.82358800  0.37421410  1
  H  1574  1  0.31291760  0.69426400  0.35101260  1
  H  1575  1  0.37670950  0.75178450  0.41610400  1
  H  1576  1  0.19667210  0.59501000  0.23931710  1
  H  1577  1  0.14409450  0.66785350  0.19161700  1
  H  1578  1  0.20819050  0.72522150  0.25640600  1
  H  1593  1  0.50472710  0.59323050  0.95734060  1
  H  1594  1  0.61092060  0.72256800  0.08133060  1
  H  1595  1  0.61852050  0.66505500  0.08759050  1
  H  1596  1  0.59842410  0.82181000  0.06435110  1
  H  1597  1  0.47783750  0.74895200  0.93896650  1
  H  1598  1  0.48527150  0.69158850  0.94569600  1
  N  245  1  0.96710500  0.99862150  0.77459150  1
  N  252  1  0.02649950  0.00572650  0.72574200  1
  N  259  1  0.01353100  0.99921650  0.88134550  1
  N  260  1  0.97966200  0.00222150  0.61787450  1
  N  265  1  0.73007850  0.41820300  0.43119650  1
  N  272  1  0.67411150  0.41107600  0.48347150  1
  N  279  1  0.83624600  0.41762400  0.47703800  1
  N  280  1  0.56974750  0.41457700  0.44013750  1
  N  285  1  0.27028700  0.26158700  0.23437900  1
  N  292  1  0.22145350  0.15334650  0.17841200  1
  N  299  1  0.37704300  0.32191800  0.34053600  1
  N  300  1  0.11355700  0.09230800  0.07408900  1
  N  305  1  0.92690250  0.15523050  0.47141800  1
  N  312  1  0.97916200  0.26347350  0.53082050  1
  N  319  1  0.97274550  0.09490900  0.51784450  1
  N  320  1  0.93587300  0.32450450  0.48395350  1
  N  405  1  0.99078450  0.91818800  0.19190250  1
  N  412  1  0.93138750  0.91107350  0.24074800  1
  N  419  1  0.94436350  0.91760800  0.08515450  1
  N  420  1  0.97823350  0.91458700  0.34862150  1
  N  425  1  0.22781950  0.49861800  0.53529750  1
  N  432  1  0.28379850  0.50575750  0.48303500  1
  N  439  1  0.12165900  0.49920750  0.48945850  1
  N  440  1  0.38812050  0.50218450  0.52632400  1
  N  445  1  0.68761550  0.65522550  0.73212000  1
  N  452  1  0.73645350  0.76346700  0.78807950  1
  N  459  1  0.58085850  0.59489200  0.62596350  1
  N  460  1  0.84433300  0.82450450  0.89242450  1
  N  465  1  0.03101000  0.76159500  0.49509000  1
  N  472  1  0.97871900  0.65335050  0.43570450  1
  N  479  1  0.98515950  0.82191600  0.44866950  1
  N  480  1  0.02210400  0.59232900  0.48252000  1
  N  805  1  0.74012900  0.99862150  0.54761550  1
  N  812  1  0.79952350  0.00572650  0.49876600  1
  N  819  1  0.78655500  0.99921650  0.65436950  1
  N  820  1  0.75268600  0.00222150  0.39089850  1
  N  825  1  0.50310250  0.41820300  0.20422050  1
  N  832  1  0.44713550  0.41107600  0.25649550  1
  N  839  1  0.60927000  0.41762400  0.25006200  1
  N  840  1  0.34277150  0.41457700  0.21316150  1
  N  845  1  0.04331100  0.26158700  0.00740300  1
  N  852  1  0.99447750  0.15334650  0.95143600  1
  N  859  1  0.15006680  0.32191800  0.11355980  1
  N  860  1  0.88658100  0.09230800  0.84711300  1
  N  865  1  0.69992650  0.15523050  0.24444200  1
  N  872  1  0.75218600  0.26347350  0.30384450  1
  N  879  1  0.74576930  0.09490900  0.29086830  1
  N  880  1  0.70889700  0.32450450  0.25697750  1
  N  965  1  0.76380830  0.91818800  0.96492630  1
  N  972  1  0.70441130  0.91107350  0.01377180  1
  N  979  1  0.71738750  0.91760800  0.85817850  1
  N  980  1  0.75125730  0.91458700  0.12164530  1
  N  985  1  0.00084330  0.49861800  0.30832130  1
  N  992  1  0.05682230  0.50575750  0.25605880  1
  N  999  1  0.89468300  0.49920750  0.26248250  1
  N  1000  1  0.16114430  0.50218450  0.29934780  1
  N  1005  1  0.46063950  0.65522550  0.50514400  1
  N  1012  1  0.50947750  0.76346700  0.56110350  1
  N  1019  1  0.35388250  0.59489200  0.39898750  1
  N  1020  1  0.61735700  0.82450450  0.66544850  1
  N  1025  1  0.80403400  0.76159500  0.26811400  1
  N  1032  1  0.75174300  0.65335050  0.20872850  1
  N  1039  1  0.75818350  0.82191600  0.22169350  1
  N  1040  1  0.79512800  0.59232900  0.25554400  1
  N  1365  1  0.51315210  0.99862150  0.32063860  1
  N  1372  1  0.57254660  0.00572650  0.27178910  1
  N  1379  1  0.55957811  0.99921650  0.42739260  1
  N  1380  1  0.52570900  0.00222150  0.16392150  1
  N  1385  1  0.27612560  0.41820300  0.97724360  1
  N  1392  1  0.22015860  0.41107600  0.02951860  1
  N  1399  1  0.38229311  0.41762400  0.02308511  1
  N  1400  1  0.11579450  0.41457700  0.98618450  1
  N  1405  1  0.81633400  0.26158700  0.78042600  1
  N  1412  1  0.76750050  0.15334650  0.72445900  1
  N  1419  1  0.92309000  0.32191800  0.88658300  1
  N  1420  1  0.65960400  0.09230800  0.62013600  1
  N  1425  1  0.47294950  0.15523050  0.01746500  1
  N  1432  1  0.52520900  0.26347350  0.07686750  1
  N  1439  1  0.51879250  0.09490900  0.06389150  1
  N  1440  1  0.48192000  0.32450450  0.03000050  1
  N  1525  1  0.53683150  0.91818800  0.73794950  1
  N  1532  1  0.47743450  0.91107350  0.78679500  1
  N  1539  1  0.49041050  0.91760800  0.63120150  1
  N  1540  1  0.52428050  0.91458700  0.89466850  1
  N  1545  1  0.77386650  0.49861800  0.08134450  1
  N  1552  1  0.82984550  0.50575750  0.02908200  1
  N  1559  1  0.66770600  0.49920750  0.03550550  1
  N  1560  1  0.93416750  0.50218450  0.07237100  1
  N  1565  1  0.23366260  0.65522550  0.27816710  1
  N  1572  1  0.28250060  0.76346700  0.33412660  1
  N  1579  1  0.12690550  0.59489200  0.17201050  1
  N  1580  1  0.39038000  0.82450450  0.43847150  1
  N  1585  1  0.57705710  0.76159500  0.04113710  1
  N  1592  1  0.52476610  0.65335050  0.98175160  1
  N  1599  1  0.53120650  0.82191600  0.99471650  1
  N  1600  1  0.56815100  0.59232900  0.02856700  1
