# generated using pymatgen
data_H11(C7N2)2
_symmetry_space_group_name_H-M   'P 1'
_cell_length_a   39.34430000
_cell_length_b   39.34430000
_cell_length_c   56.36050000
_cell_angle_alpha   90.00000000
_cell_angle_beta   90.00000000
_cell_angle_gamma   90.00000000
_symmetry_Int_Tables_number   1
_chemical_formula_structural   H11(C7N2)2
_chemical_formula_sum   'H352 C448 N128'
_cell_volume   87244.58538571
_cell_formula_units_Z   32
loop_
 _symmetry_equiv_pos_site_id
 _symmetry_equiv_pos_as_xyz
  1  'x, y, z'
loop_
 _atom_site_type_symbol
 _atom_site_label
 _atom_site_symmetry_multiplicity
 _atom_site_fract_x
 _atom_site_fract_y
 _atom_site_fract_z
 _atom_site_occupancy
  H  7  1  0.20201500  0.45753500  0.91310600  1
  H  8  1  0.19888800  0.36809200  0.87272300  1
  H  9  1  0.22157700  0.36300300  0.94547600  1
  H  16  1  0.13706300  0.42686000  0.88557400  1
  H  17  1  0.13587000  0.45686400  0.81395000  1
  H  18  1  0.22887400  0.43605800  0.84815600  1
  H  23  1  0.19882500  0.47949300  0.80016200  1
  H  24  1  0.19448400  0.31570000  0.89405700  1
  H  25  1  0.23306300  0.41617200  0.96666900  1
  H  26  1  0.08725800  0.41927300  0.85978300  1
  H  33  1  0.30299500  0.51738200  0.41296100  1
  H  34  1  0.30716800  0.60692400  0.37270300  1
  H  35  1  0.28420700  0.61202600  0.44541500  1
  H  42  1  0.36836600  0.54788200  0.38549700  1
  H  43  1  0.36946400  0.51783900  0.31389000  1
  H  44  1  0.27651500  0.53889200  0.34810600  1
  H  49  1  0.30655800  0.49538900  0.30005100  1
  H  50  1  0.31281800  0.65911500  0.39460500  1
  H  51  1  0.27196800  0.55876800  0.46646000  1
  H  52  1  0.41812700  0.55542500  0.35970800  1
  H  59  1  0.78132600  0.92454400  0.16264200  1
  H  60  1  0.87062700  0.91324400  0.12254700  1
  H  61  1  0.87721500  0.93434400  0.19550800  1
  H  68  1  0.80037800  0.85853400  0.12910600  1
  H  69  1  0.76855200  0.87929200  0.05922000  1
  H  70  1  0.80808200  0.95779400  0.10190200  1
  H  75  1  0.76171200  0.95901900  0.05955000  1
  H  76  1  0.92221800  0.90008500  0.14786600  1
  H  77  1  0.82445500  0.95082700  0.21637700  1
  H  78  1  0.75524800  0.82318500  0.08077300  1
  H  85  1  0.72375000  0.05030000  0.66261900  1
  H  86  1  0.63454000  0.06141600  0.62239000  1
  H  87  1  0.62777100  0.04086600  0.69541600  1
  H  94  1  0.70491600  0.11605800  0.62897600  1
  H  95  1  0.73684700  0.09505300  0.55914700  1
  H  96  1  0.69703900  0.01674300  0.60188300  1
  H  101  1  0.74369400  0.01556600  0.55947200  1
  H  102  1  0.58293100  0.07510500  0.64792900  1
  H  103  1  0.68044700  0.02456700  0.71643600  1
  H  104  1  0.75001000  0.15125200  0.58049000  1
  H  111  1  0.30397300  0.45936000  0.59636300  1
  H  112  1  0.30549600  0.36873500  0.63552900  1
  H  113  1  0.27541700  0.36728900  0.56387200  1
  H  120  1  0.36902500  0.42810600  0.62089300  1
  H  121  1  0.37653500  0.45221100  0.69330500  1
  H  122  1  0.28067600  0.43413700  0.66235200  1
  H  127  1  0.32400400  0.46518100  0.71509700  1
  H  128  1  0.29602800  0.31650100  0.61687000  1
  H  129  1  0.25893500  0.42828300  0.54787900  1
  H  130  1  0.42125600  0.41934900  0.64401700  1
  H  137  1  0.20091800  0.51564300  0.09646300  1
  H  138  1  0.19965800  0.60627900  0.13563400  1
  H  139  1  0.22998900  0.60759500  0.06402100  1
  H  146  1  0.13593800  0.54694900  0.12101400  1
  H  147  1  0.12850800  0.52277000  0.19341200  1
  H  148  1  0.22434200  0.54084100  0.16241600  1
  H  153  1  0.18105700  0.50980700  0.21519200  1
  H  154  1  0.20988000  0.65848200  0.11707200  1
  H  155  1  0.24625000  0.54654500  0.04806500  1
  H  156  1  0.08375200  0.55581400  0.14427000  1
  H  163  1  0.72693700  0.92437300  0.34809300  1
  H  164  1  0.63537300  0.91627300  0.38602100  1
  H  165  1  0.63376700  0.94420100  0.31391900  1
  H  172  1  0.71199400  0.86007700  0.37536900  1
  H  173  1  0.73441700  0.86667000  0.44806800  1
  H  174  1  0.68985400  0.94989900  0.41275200  1
  H  179  1  0.71602500  0.91438200  0.47020700  1
  H  180  1  0.58379500  0.91268200  0.36268900  1
  H  181  1  0.69602800  0.96624500  0.29967600  1
  H  182  1  0.75775700  0.81852600  0.41780000  1
  H  189  1  0.77789000  0.05029900  0.84824000  1
  H  190  1  0.86958000  0.05885500  0.88598600  1
  H  191  1  0.87104900  0.03130300  0.81381100  1
  H  198  1  0.79284200  0.11464900  0.87554400  1
  H  199  1  0.77049800  0.10779500  0.94824400  1
  H  200  1  0.81508200  0.02471500  0.91276600  1
  H  205  1  0.78877600  0.05993200  0.97028800  1
  H  206  1  0.92099300  0.06333100  0.86222800  1
  H  207  1  0.80838200  0.00870200  0.79988300  1
  H  208  1  0.74758300  0.15615000  0.91894000  1
  H  215  1  0.81649500  0.51518300  0.09292400  1
  H  216  1  0.82590900  0.60381900  0.13397700  1
  H  217  1  0.80521500  0.61154300  0.06100700  1
  H  224  1  0.88104800  0.53130500  0.12657400  1
  H  225  1  0.85903200  0.49831100  0.19601900  1
  H  226  1  0.78226900  0.54260500  0.15409300  1
  H  231  1  0.78081500  0.49372100  0.19634000  1
  H  232  1  0.83758100  0.65648700  0.10948400  1
  H  233  1  0.79027000  0.55926300  0.03940700  1
  H  234  1  0.91427300  0.48293700  0.17404800  1
  H  241  1  0.68849400  0.45921800  0.59297400  1
  H  242  1  0.67914800  0.37061800  0.63407400  1
  H  243  1  0.69992900  0.36284100  0.56111300  1
  H  250  1  0.62396100  0.44319000  0.62659700  1
  H  251  1  0.64600800  0.47644000  0.69597700  1
  H  252  1  0.72272500  0.43187200  0.65414800  1
  H  257  1  0.72410300  0.48101000  0.69636700  1
  H  258  1  0.66782800  0.31784300  0.60977500  1
  H  259  1  0.71481800  0.41510200  0.53949500  1
  H  260  1  0.59078700  0.49176400  0.67400600  1
  H  267  1  0.21865000  0.05227200  0.84249100  1
  H  268  1  0.13112100  0.03877400  0.88411100  1
  H  269  1  0.12788500  0.01737300  0.81114500  1
  H  276  1  0.20038800  0.10857400  0.87062400  1
  H  277  1  0.23104500  0.10405600  0.94207000  1
  H  278  1  0.19024700  0.01726100  0.90881100  1
  H  283  1  0.24046900  0.04009100  0.95607800  1
  H  284  1  0.08129700  0.00962900  0.86494500  1
  H  285  1  0.17774200  0.02165600  0.78764900  1
  H  286  1  0.23438000  0.15524100  0.89025200  1
  H  293  1  0.28610000  0.92183400  0.34245500  1
  H  294  1  0.37361000  0.93543700  0.38407400  1
  H  295  1  0.37693400  0.95645200  0.31105700  1
  H  302  1  0.30342200  0.86583900  0.37084100  1
  H  303  1  0.27309900  0.87135400  0.44231700  1
  H  304  1  0.31500100  0.95733100  0.40868000  1
  H  309  1  0.26441500  0.93577500  0.45589700  1
  H  310  1  0.42349200  0.96408200  0.36502000  1
  H  311  1  0.32706700  0.95221700  0.28757900  1
  H  312  1  0.26689800  0.82029700  0.39135600  1
  H  319  1  0.68994300  0.51109600  0.40709900  1
  H  320  1  0.67840600  0.60272100  0.36957600  1
  H  321  1  0.70697700  0.60474400  0.44151500  1
  H  328  1  0.62545100  0.52307200  0.37974100  1
  H  329  1  0.63285500  0.50334900  0.30666000  1
  H  330  1  0.71394900  0.55070000  0.34255400  1
  H  335  1  0.67880000  0.52933200  0.28493900  1
  H  336  1  0.66938800  0.65318300  0.39656900  1
  H  337  1  0.73104900  0.54204800  0.45529100  1
  H  338  1  0.58607500  0.47621400  0.33777600  1
  H  345  1  0.81541500  0.46349600  0.90692100  1
  H  346  1  0.82716500  0.37188600  0.86939500  1
  H  347  1  0.79841100  0.36981000  0.94130000  1
  H  354  1  0.88000400  0.45154200  0.87955800  1
  H  355  1  0.87240100  0.47162600  0.80653700  1
  H  356  1  0.79142700  0.42403600  0.84241800  1
  H  361  1  0.82640200  0.44594500  0.78479100  1
  H  362  1  0.83647000  0.32143200  0.89687300  1
  H  363  1  0.77423000  0.43255600  0.95503300  1
  H  364  1  0.91930300  0.49850500  0.83741300  1
  H  371  1  0.28046500  0.04775600  0.65557100  1
  H  372  1  0.37756700  0.03947100  0.62462400  1
  H  373  1  0.36165600  0.00683600  0.69492800  1
  H  380  1  0.30570400  0.10785900  0.63319700  1
  H  381  1  0.28690600  0.10969800  0.55987100  1
  H  382  1  0.32272600  0.02011900  0.59242900  1
  H  387  1  0.29445700  0.06039100  0.53657100  1
  H  388  1  0.41521700  0.99183200  0.66988600  1
  H  389  1  0.29103300  0.99678600  0.70115100  1
  H  390  1  0.27709500  0.15661400  0.61389800  1
  H  397  1  0.22452100  0.92673500  0.15566900  1
  H  398  1  0.12768300  0.93537400  0.12434500  1
  H  399  1  0.14312700  0.96780300  0.19474500  1
  H  406  1  0.19974500  0.86688600  0.13311500  1
  H  407  1  0.21927700  0.86532500  0.05988200  1
  H  408  1  0.18264900  0.95464000  0.09236400  1
  H  413  1  0.21179200  0.91467700  0.03661600  1
  H  414  1  0.08987100  0.98332500  0.16906100  1
  H  415  1  0.21349400  0.97761600  0.20138800  1
  H  416  1  0.22896100  0.81838900  0.11385900  1
  H  419  1  0.23105400  0.35394700  0.76214200  1
  H  420  1  0.23179900  0.36983000  0.79146200  1
  H  421  1  0.27035400  0.35963300  0.77705000  1
  H  426  1  0.28333200  0.50956800  0.72910800  1
  H  427  1  0.24323500  0.52027100  0.74102600  1
  H  428  1  0.24564400  0.50034700  0.71294300  1
  H  435  1  0.27409800  0.62093200  0.26221000  1
  H  436  1  0.27341500  0.60500800  0.29152200  1
  H  437  1  0.23483000  0.61521500  0.27715200  1
  H  442  1  0.22178900  0.46535600  0.22911300  1
  H  443  1  0.26190100  0.45463000  0.24099500  1
  H  444  1  0.25945600  0.47459300  0.21292800  1
  H  451  1  0.87845600  0.94513100  0.00283100  1
  H  452  1  0.86754200  0.94825700  0.03317600  1
  H  453  1  0.88197800  0.98463400  0.01780600  1
  H  458  1  0.73077700  0.02532500  0.98178600  1
  H  459  1  0.71431200  0.98834000  0.99539800  1
  H  460  1  0.72929000  0.98639500  0.96582400  1
  H  467  1  0.62684100  0.02965500  0.50279700  1
  H  468  1  0.63760200  0.02634400  0.53316300  1
  H  469  1  0.62297000  0.99012600  0.51770000  1
  H  474  1  0.77402400  0.94841800  0.48198000  1
  H  475  1  0.79070200  0.98524900  0.49566300  1
  H  476  1  0.77588700  0.98736100  0.46605500  1
  H  483  1  0.79424300  0.61102400  0.25275500  1
  H  484  1  0.79068400  0.60045600  0.22237200  1
  H  485  1  0.75457000  0.61488700  0.23804400  1
  H  490  1  0.71317400  0.46399900  0.27352700  1
  H  491  1  0.74940500  0.44698500  0.25922400  1
  H  492  1  0.75249800  0.46126200  0.28892600  1
  H  499  1  0.71095700  0.36361600  0.75274000  1
  H  500  1  0.71445200  0.37418700  0.72235200  1
  H  501  1  0.75060500  0.35977500  0.73799100  1
  H  506  1  0.79196000  0.51071500  0.77343200  1
  H  507  1  0.75566500  0.52768000  0.75918400  1
  H  508  1  0.75267600  0.51338400  0.78888600  1
  H  515  1  0.11322500  0.01847600  0.99541700  1
  H  516  1  0.12832400  0.01666500  0.96591400  1
  H  517  1  0.11573100  0.97890500  0.98043200  1
  H  522  1  0.26477300  0.95396400  0.02645900  1
  H  523  1  0.27905700  0.99255100  0.01387800  1
  H  524  1  0.26009400  0.99270400  0.04234500  1
  H  531  1  0.39191700  0.95563800  0.49556500  1
  H  532  1  0.37690100  0.95759800  0.46604600  1
  H  533  1  0.38979500  0.99523800  0.48058700  1
  H  538  1  0.24087600  0.02146400  0.52646500  1
  H  539  1  0.22627000  0.98302500  0.51383500  1
  H  540  1  0.24516500  0.98265400  0.54232300  1
  H  547  1  0.72982900  0.84105500  0.26250000  1
  H  548  1  0.73011100  0.85706800  0.29178800  1
  H  549  1  0.76888700  0.84676400  0.27770900  1
  H  554  1  0.78318100  0.99621400  0.22944100  1
  H  555  1  0.74305900  0.00735900  0.24113900  1
  H  556  1  0.74557500  0.98726700  0.21311400  1
  H  563  1  0.77573700  0.13403200  0.76218700  1
  H  564  1  0.77534000  0.11820300  0.79152300  1
  H  565  1  0.73663600  0.12865900  0.77740300  1
  H  570  1  0.72147500  0.97898900  0.72957900  1
  H  571  1  0.76152400  0.96768300  0.74132400  1
  H  572  1  0.75914500  0.98762000  0.71323900  1
  H  579  1  0.38366400  0.46637000  0.51278000  1
  H  580  1  0.36715400  0.46581400  0.54193300  1
  H  581  1  0.37679900  0.50504200  0.52823500  1
  H  586  1  0.22769000  0.51645900  0.47899900  1
  H  587  1  0.21747500  0.47584600  0.49026600  1
  H  588  1  0.23784800  0.47940700  0.46239800  1
  H  595  1  0.12149200  0.50871200  0.01279000  1
  H  596  1  0.13794600  0.50923300  0.04196000  1
  H  597  1  0.12829700  0.47002300  0.02823800  1
  H  602  1  0.27747900  0.45851400  0.97913300  1
  H  603  1  0.28772700  0.49909700  0.99044100  1
  H  604  1  0.26740400  0.49560500  0.96255000  1
  H  611  1  0.28233100  0.12357000  0.74680300  1
  H  612  1  0.28018800  0.10949400  0.71706300  1
  H  613  1  0.24271800  0.12242800  0.73179100  1
  H  618  1  0.21561300  0.97167900  0.77544800  1
  H  619  1  0.25441600  0.95787500  0.76297400  1
  H  620  1  0.25412500  0.97622900  0.79162700  1
  H  627  1  0.22275400  0.85046700  0.24643700  1
  H  628  1  0.22489500  0.86476400  0.21674600  1
  H  629  1  0.26238400  0.85182900  0.23145300  1
  H  634  1  0.28900000  0.00233100  0.27565200  1
  H  635  1  0.25018800  0.01613200  0.26318600  1
  H  636  1  0.25046900  0.99758900  0.29178100  1
  H  643  1  0.60575000  0.51026200  0.49343300  1
  H  644  1  0.62149100  0.50942400  0.46407500  1
  H  645  1  0.61093500  0.47094500  0.47845800  1
  H  650  1  0.76066700  0.45575900  0.52613100  1
  H  651  1  0.77214000  0.49560200  0.51412100  1
  H  652  1  0.75228700  0.49367500  0.54225200  1
  H  659  1  0.89948300  0.46422800  0.99338900  1
  H  660  1  0.88379600  0.46509400  0.96402000  1
  H  661  1  0.89429800  0.50356000  0.97843600  1
  H  666  1  0.74447400  0.51857400  0.02599700  1
  H  667  1  0.73305500  0.47874100  0.01395200  1
  H  668  1  0.75285900  0.48064200  0.04210000  1
  H  675  1  0.13801300  0.21766000  0.90409800  1
  H  676  1  0.15902400  0.17937000  0.89692300  1
  H  677  1  0.16253000  0.21476800  0.87776000  1
  H  682  1  0.29043900  0.27879800  0.93467600  1
  H  683  1  0.28981100  0.24413100  0.95469400  1
  H  684  1  0.26517200  0.28075500  0.96078000  1
  H  691  1  0.36846800  0.75773700  0.40598500  1
  H  692  1  0.34751700  0.79566300  0.39777200  1
  H  693  1  0.34555200  0.75982100  0.37891600  1
  H  698  1  0.21419000  0.69631500  0.43189300  1
  H  699  1  0.21346600  0.73111000  0.45179700  1
  H  700  1  0.23766300  0.69453100  0.45880700  1
  H  707  1  0.02617500  0.85784800  0.15312300  1
  H  708  1  0.06116000  0.87941400  0.14048700  1
  H  709  1  0.02283000  0.87579700  0.12434500  1
  H  714  1  0.95713000  0.01155100  0.16977500  1
  H  715  1  0.99409100  0.01795000  0.18711700  1
  H  716  1  0.96027200  0.99315600  0.19849200  1
  H  723  1  0.47884500  0.11665900  0.65245500  1
  H  724  1  0.44383100  0.09497800  0.63995400  1
  H  725  1  0.48209300  0.09852900  0.62372800  1
  H  730  1  0.54810300  0.96310600  0.66929700  1
  H  731  1  0.51122300  0.95669800  0.68672200  1
  H  732  1  0.54506800  0.98154600  0.69800700  1
  H  739  1  0.36748900  0.22328900  0.60502300  1
  H  740  1  0.34749400  0.18386100  0.61023300  1
  H  741  1  0.34032700  0.21814600  0.62988300  1
  H  746  1  0.21756500  0.28041400  0.56639200  1
  H  747  1  0.22174600  0.24642600  0.54601600  1
  H  748  1  0.24598600  0.28389900  0.54200200  1
  H  755  1  0.13826400  0.75194700  0.10529200  1
  H  756  1  0.15845400  0.79128900  0.11046100  1
  H  757  1  0.16557000  0.75696700  0.13009000  1
  H  762  1  0.28777000  0.69422800  0.06628900  1
  H  763  1  0.28359900  0.72821800  0.04591400  1
  H  764  1  0.25919700  0.69083500  0.04198000  1
  H  771  1  0.48317800  0.86458300  0.35287300  1
  H  772  1  0.44559700  0.88722200  0.35945200  1
  H  773  1  0.48038000  0.88899600  0.37926400  1
  H  778  1  0.55208500  0.01446100  0.32414700  1
  H  779  1  0.51823600  0.01542800  0.30347000  1
  H  780  1  0.55399900  0.98927500  0.29800500  1
  H  787  1  0.02206900  0.11038000  0.85254200  1
  H  788  1  0.05947900  0.08758700  0.85935900  1
  H  789  1  0.02459200  0.08630500  0.87909700  1
  H  794  1  0.95250000  0.96038400  0.82480000  1
  H  795  1  0.98637700  0.95897300  0.80415600  1
  H  796  1  0.95072800  0.98518300  0.79847300  1
  H  803  1  0.87765000  0.76112200  0.10513500  1
  H  804  1  0.85467300  0.79611600  0.11648000  1
  H  805  1  0.85774100  0.75834900  0.13330700  1
  H  810  1  0.72631200  0.68899000  0.08495400  1
  H  811  1  0.72016300  0.72526400  0.06688000  1
  H  812  1  0.74609300  0.69153700  0.05665900  1
  H  819  1  0.62771800  0.21317300  0.60531200  1
  H  820  1  0.65084200  0.17820200  0.61654200  1
  H  821  1  0.64785000  0.21594000  0.63340700  1
  H  826  1  0.77876400  0.28559200  0.58457800  1
  H  827  1  0.78483300  0.24935000  0.56645700  1
  H  828  1  0.75875800  0.28304200  0.55636000  1
  H  835  1  0.63008900  0.75718000  0.40529500  1
  H  836  1  0.65142400  0.79234400  0.39270800  1
  H  837  1  0.64593400  0.75486200  0.37587300  1
  H  842  1  0.78336900  0.68458300  0.41520100  1
  H  843  1  0.79164000  0.72057500  0.43314000  1
  H  844  1  0.76693200  0.68670500  0.44453700  1
  H  851  1  0.87453600  0.21718300  0.90473500  1
  H  852  1  0.85315300  0.18204200  0.89215700  1
  H  853  1  0.85887500  0.21943400  0.87526400  1
  H  858  1  0.72145700  0.29036000  0.91384100  1
  H  859  1  0.71282600  0.25448200  0.93181100  1
  H  860  1  0.73751300  0.28831600  0.94328200  1
  H  867  1  0.52269900  0.37160400  0.65104000  1
  H  868  1  0.55881800  0.39274100  0.63967700  1
  H  869  1  0.52093700  0.39159700  0.62285800  1
  H  874  1  0.45832800  0.52638200  0.67137300  1
  H  875  1  0.49485700  0.53058300  0.68947300  1
  H  876  1  0.45985600  0.50632300  0.69960700  1
  H  883  1  0.98219600  0.60319800  0.15115700  1
  H  884  1  0.94611200  0.58203400  0.13976900  1
  H  885  1  0.98399300  0.58327200  0.12295300  1
  H  890  1  0.04679200  0.44846900  0.17131300  1
  H  891  1  0.01026500  0.44416600  0.18940400  1
  H  892  1  0.04522800  0.46844900  0.19957400  1
  H  899  1  0.98617400  0.37272000  0.84752700  1
  H  900  1  0.95011800  0.39238500  0.86020400  1
  H  901  1  0.98784600  0.38848100  0.87699000  1
  H  906  1  0.05185600  0.52915700  0.83793500  1
  H  907  1  0.01552200  0.53586200  0.82000900  1
  H  908  1  0.05045200  0.51270700  0.80858100  1
  H  915  1  0.51914500  0.60213800  0.34720600  1
  H  916  1  0.55519100  0.58257000  0.35996700  1
  H  917  1  0.51743500  0.58654500  0.37671300  1
  H  922  1  0.45358600  0.44560200  0.33799200  1
  H  923  1  0.48995400  0.43882600  0.32011100  1
  H  924  1  0.45502400  0.46189400  0.30859700  1
  C  1  1  0.20163800  0.41572500  0.88968600  1
  C  2  1  0.20586300  0.43185200  0.91192600  1
  C  3  1  0.21437400  0.41301600  0.93255600  1
  C  4  1  0.21723200  0.37718600  0.93053000  1
  C  5  1  0.21175700  0.36021300  0.90871700  1
  C  6  1  0.20454200  0.38003000  0.88843100  1
  C  10  1  0.18567600  0.43234800  0.87031200  1
  C  11  1  0.14987200  0.43429200  0.87057500  1
  C  12  1  0.13123100  0.44305300  0.85005700  1
  C  13  1  0.14918000  0.45127000  0.82909200  1
  C  14  1  0.18509400  0.44924200  0.82821900  1
  C  15  1  0.20303400  0.43907500  0.84883100  1
  C  19  1  0.20179900  0.45650100  0.80718300  1
  C  20  1  0.20893600  0.32505600  0.90702900  1
  C  21  1  0.21875000  0.42818400  0.95474400  1
  C  22  1  0.09630100  0.43881400  0.85047400  1
  C  27  1  0.30393500  0.55927800  0.38960300  1
  C  28  1  0.29937500  0.54310100  0.41179900  1
  C  29  1  0.29097200  0.56197000  0.43243800  1
  C  30  1  0.28844900  0.59783000  0.43045800  1
  C  31  1  0.29420800  0.61478800  0.40867800  1
  C  32  1  0.30130900  0.59498600  0.38837300  1
  C  36  1  0.31972100  0.54242700  0.37025400  1
  C  37  1  0.35553100  0.54045700  0.37050400  1
  C  38  1  0.37415400  0.53164500  0.34998800  1
  C  39  1  0.35616600  0.52348400  0.32902700  1
  C  40  1  0.32025200  0.52556300  0.32816300  1
  C  41  1  0.30234400  0.53578300  0.34877500  1
  C  45  1  0.30353100  0.51834000  0.30712700  1
  C  46  1  0.29741800  0.64989900  0.40708300  1
  C  47  1  0.28641300  0.54678600  0.45459900  1
  C  48  1  0.40908100  0.53589500  0.35038600  1
  C  53  1  0.82324300  0.91941700  0.13954600  1
  C  54  1  0.80730900  0.92507500  0.16169600  1
  C  55  1  0.82673500  0.93128900  0.18246500  1
  C  56  1  0.86269000  0.93111100  0.18057500  1
  C  57  1  0.87910600  0.92455400  0.15873900  1
  C  58  1  0.85903500  0.91892200  0.13837200  1
  C  62  1  0.80470900  0.91002800  0.11899300  1
  C  63  1  0.79597400  0.87553300  0.11566500  1
  C  64  1  0.78272400  0.86383400  0.09379800  1
  C  65  1  0.77797300  0.88746300  0.07520200  1
  C  66  1  0.78704000  0.92197900  0.07800800  1
  C  67  1  0.80057700  0.93301800  0.09992200  1
  C  71  1  0.78231700  0.94439400  0.05947900  1
  C  72  1  0.91388100  0.91999200  0.15709900  1
  C  73  1  0.81182800  0.93685300  0.20456900  1
  C  74  1  0.77571400  0.82974000  0.09007000  1
  C  79  1  0.68189100  0.05522900  0.63945200  1
  C  80  1  0.69776600  0.04977600  0.66164600  1
  C  81  1  0.67829200  0.04375500  0.68242100  1
  C  82  1  0.64234300  0.04397900  0.68049500  1
  C  83  1  0.62599500  0.05038300  0.65861400  1
  C  84  1  0.64609900  0.05582000  0.63824300  1
  C  88  1  0.70045500  0.06456700  0.61890400  1
  C  89  1  0.70929500  0.09902500  0.61555200  1
  C  90  1  0.72262400  0.11063900  0.59368700  1
  C  91  1  0.72737400  0.08694400  0.57513000  1
  C  92  1  0.71822700  0.05245400  0.57797400  1
  C  93  1  0.70459600  0.04150300  0.59988000  1
  C  97  1  0.72294900  0.02999200  0.55948100  1
  C  98  1  0.59123500  0.05498000  0.65693900  1
  C  99  1  0.69313800  0.03838000  0.70456800  1
  C  100  1  0.72967200  0.14472100  0.58992800  1
  C  105  1  0.30420400  0.41683300  0.61924600  1
  C  106  1  0.29906300  0.43384000  0.59743800  1
  C  107  1  0.28752100  0.41605000  0.57713700  1
  C  108  1  0.28259300  0.38045400  0.57873400  1
  C  109  1  0.28910400  0.36244900  0.60003400  1
  C  110  1  0.29931400  0.38132900  0.62017600  1
  C  114  1  0.32185600  0.43224300  0.63839900  1
  C  115  1  0.35754400  0.43437100  0.63665400  1
  C  116  1  0.37791500  0.44163500  0.65662900  1
  C  117  1  0.36178100  0.44795800  0.67861000  1
  C  118  1  0.32596400  0.44585100  0.68111700  1
  C  119  1  0.30640800  0.43734400  0.66080700  1
  C  123  1  0.31151700  0.45076700  0.70347900  1
  C  124  1  0.28903300  0.32705700  0.60154000  1
  C  125  1  0.28107300  0.43258600  0.55585200  1
  C  126  1  0.41279700  0.43774600  0.65463400  1
  C  131  1  0.20069600  0.55820800  0.11932600  1
  C  132  1  0.20590000  0.54114900  0.09754100  1
  C  133  1  0.21758000  0.55889500  0.07725700  1
  C  134  1  0.22266700  0.59446500  0.07886400  1
  C  135  1  0.21615500  0.61250100  0.10015300  1
  C  136  1  0.20580600  0.59367000  0.12028300  1
  C  140  1  0.18314100  0.54270700  0.13849000  1
  C  141  1  0.14744100  0.54066300  0.13676600  1
  C  142  1  0.12708700  0.53336600  0.15674400  1
  C  143  1  0.14325100  0.52705300  0.17871700  1
  C  144  1  0.17907300  0.52912700  0.18120700  1
  C  145  1  0.19860900  0.53763600  0.16088800  1
  C  149  1  0.19354000  0.52420300  0.20355900  1
  C  150  1  0.21652300  0.64789100  0.10167900  1
  C  151  1  0.22406000  0.54232800  0.05599200  1
  C  152  1  0.09221200  0.53729300  0.15478300  1
  C  157  1  0.68378700  0.92028600  0.37027500  1
  C  158  1  0.70100400  0.92652900  0.34866800  1
  C  159  1  0.68294100  0.93612900  0.32799600  1
  C  160  1  0.64706800  0.93839800  0.32902100  1
  C  161  1  0.62913900  0.93103000  0.35018000  1
  C  162  1  0.64799000  0.92245700  0.37068500  1
  C  166  1  0.70090500  0.90788600  0.39073300  1
  C  167  1  0.71343800  0.87423900  0.39060900  1
  C  168  1  0.72583100  0.85906800  0.41158500  1
  C  169  1  0.72597100  0.87808500  0.43279600  1
  C  170  1  0.71314600  0.91169300  0.43371400  1
  C  171  1  0.70040400  0.92611500  0.41242700  1
  C  175  1  0.71204300  0.92821400  0.45562600  1
  C  176  1  0.59393100  0.92880100  0.35103300  1
  C  177  1  0.69959400  0.94349900  0.30695800  1
  C  178  1  0.73471700  0.82518000  0.41224500  1
  C  183  1  0.82110600  0.05450000  0.87035100  1
  C  184  1  0.80383700  0.04829100  0.84876000  1
  C  185  1  0.82187800  0.03896100  0.82802000  1
  C  186  1  0.85776700  0.03694700  0.82895100  1
  C  187  1  0.87572300  0.04432400  0.85009600  1
  C  188  1  0.85692500  0.05264500  0.87066900  1
  C  192  1  0.80403600  0.06683600  0.89084400  1
  C  193  1  0.79147700  0.10046400  0.89077700  1
  C  194  1  0.77908700  0.11557400  0.91177700  1
  C  195  1  0.77895500  0.09645300  0.93295200  1
  C  196  1  0.79176500  0.06282700  0.93380500  1
  C  197  1  0.80453600  0.04850400  0.91249200  1
  C  201  1  0.79284700  0.04618700  0.95568000  1
  C  202  1  0.91090800  0.04676400  0.85086400  1
  C  203  1  0.80517900  0.03160100  0.80700700  1
  C  204  1  0.77010400  0.14946300  0.91245000  1
  C  209  1  0.82084900  0.55669600  0.11643700  1
  C  210  1  0.81563300  0.54113900  0.09411000  1
  C  211  1  0.80918000  0.56087200  0.07352600  1
  C  212  1  0.80867700  0.59677000  0.07579400  1
  C  213  1  0.81476900  0.61284400  0.09782000  1
  C  214  1  0.82066100  0.59246200  0.11799900  1
  C  218  1  0.82985400  0.53778400  0.13689400  1
  C  219  1  0.86391700  0.52734200  0.13999800  1
  C  220  1  0.87503700  0.51290800  0.16164700  1
  C  221  1  0.85126800  0.50861800  0.18020100  1
  C  222  1  0.81722700  0.51937700  0.17759400  1
  C  223  1  0.80674800  0.53411100  0.15594200  1
  C  227  1  0.79469800  0.51483200  0.19603300  1
  C  228  1  0.81830000  0.64770000  0.09982000  1
  C  229  1  0.80388800  0.54634400  0.05126700  1
  C  230  1  0.90872700  0.50412200  0.16523100  1
  C  235  1  0.68410700  0.41772000  0.61649900  1
  C  236  1  0.68936300  0.43326300  0.59417200  1
  C  237  1  0.69587000  0.41351400  0.57360400  1
  C  238  1  0.69641100  0.37762000  0.57588900  1
  C  239  1  0.69029900  0.36156000  0.59792100  1
  C  240  1  0.68437700  0.38195900  0.61808700  1
  C  244  1  0.67514800  0.43668400  0.63694300  1
  C  245  1  0.64109200  0.44717600  0.64001800  1
  C  246  1  0.62998800  0.46171700  0.66163700  1
  C  247  1  0.65376000  0.46604200  0.68018600  1
  C  248  1  0.68779000  0.45523800  0.67760200  1
  C  249  1  0.69825400  0.44039400  0.65598300  1
  C  253  1  0.71031700  0.45983800  0.69603000  1
  C  254  1  0.68690800  0.32668800  0.59994200  1
  C  255  1  0.70119500  0.42802900  0.55134700  1
  C  256  1  0.59631000  0.47055600  0.66520400  1
  C  261  1  0.17781500  0.04595600  0.86636200  1
  C  262  1  0.19377900  0.04486700  0.84383400  1
  C  263  1  0.17612500  0.03385600  0.82327000  1
  C  264  1  0.14145200  0.02476500  0.82579100  1
  C  265  1  0.12464100  0.02622500  0.84793500  1
  C  266  1  0.14331800  0.03639700  0.86811400  1
  C  270  1  0.19423800  0.06035900  0.88651300  1
  C  271  1  0.20421800  0.09484400  0.88586200  1
  C  272  1  0.21726200  0.11134400  0.90618300  1
  C  273  1  0.22123100  0.09239300  0.92731500  1
  C  274  1  0.21150500  0.05783300  0.92853400  1
  C  275  1  0.19753500  0.04223600  0.90811200  1
  C  279  1  0.21711600  0.03990000  0.94931200  1
  C  280  1  0.09006700  0.02015900  0.85006700  1
  C  281  1  0.19112600  0.03202800  0.80081100  1
  C  282  1  0.22437800  0.14578500  0.90510600  1
  C  287  1  0.32692400  0.92819600  0.36632600  1
  C  288  1  0.31099600  0.92916500  0.34378500  1
  C  289  1  0.32868600  0.94004300  0.32320200  1
  C  290  1  0.36336400  0.94911100  0.32571400  1
  C  291  1  0.38016000  0.94775200  0.34786800  1
  C  292  1  0.36144000  0.93770500  0.36805900  1
  C  296  1  0.31043400  0.91409000  0.38655600  1
  C  297  1  0.29992200  0.87975500  0.38603500  1
  C  298  1  0.28668700  0.86365600  0.40644100  1
  C  299  1  0.28306300  0.88277900  0.42751600  1
  C  300  1  0.29328000  0.91720100  0.42858900  1
  C  301  1  0.30740400  0.93244100  0.40808700  1
  C  305  1  0.28784900  0.93539400  0.44927400  1
  C  306  1  0.41472900  0.95388700  0.35002500  1
  C  307  1  0.31368700  0.94184200  0.30074300  1
  C  308  1  0.27888700  0.82939900  0.40557900  1
  C  313  1  0.68431300  0.55424600  0.38507300  1
  C  314  1  0.69127200  0.53709000  0.40659900  1
  C  315  1  0.70039700  0.55533100  0.42730300  1
  C  316  1  0.70159900  0.59126000  0.42640900  1
  C  317  1  0.69345300  0.60893500  0.40532500  1
  C  318  1  0.68520800  0.59010100  0.38478900  1
  C  322  1  0.67263400  0.53690400  0.36451300  1
  C  323  1  0.63966900  0.52266300  0.36449800  1
  C  324  1  0.62506700  0.51019400  0.34334300  1
  C  325  1  0.64390300  0.51171400  0.32208600  1
  C  326  1  0.67681500  0.52617100  0.32139900  1
  C  327  1  0.69075600  0.53888400  0.34282200  1
  C  331  1  0.69309500  0.52918500  0.29957000  1
  C  332  1  0.68981800  0.64386800  0.40472700  1
  C  333  1  0.70808500  0.53876700  0.44828900  1
  C  334  1  0.59163100  0.49988200  0.34256800  1
  C  339  1  0.82119700  0.42035300  0.88490200  1
  C  340  1  0.81414600  0.43750000  0.90641900  1
  C  341  1  0.80499600  0.41924000  0.92711200  1
  C  342  1  0.80382700  0.38331100  0.92620800  1
  C  343  1  0.81205000  0.36566700  0.90512700  1
  C  344  1  0.82032500  0.38449800  0.88460000  1
  C  348  1  0.83278700  0.43776400  0.86434700  1
  C  349  1  0.86575200  0.45200700  0.86432900  1
  C  350  1  0.88030100  0.46460100  0.84318800  1
  C  351  1  0.86140400  0.46315800  0.82195200  1
  C  352  1  0.82848900  0.44870100  0.82126900  1
  C  353  1  0.81461700  0.43586300  0.84267700  1
  C  357  1  0.81216100  0.44579300  0.79944900  1
  C  358  1  0.81566400  0.33074400  0.90454900  1
  C  359  1  0.79723700  0.43578900  0.94809300  1
  C  360  1  0.91373700  0.47491800  0.84239200  1
  C  365  1  0.32697000  0.04486200  0.63672600  1
  C  366  1  0.30549000  0.04072600  0.65669600  1
  C  367  1  0.31791400  0.02650300  0.67802700  1
  C  368  1  0.35241700  0.01685000  0.67940500  1
  C  369  1  0.37465200  0.02176900  0.66002600  1
  C  370  1  0.36155500  0.03546500  0.63869200  1
  C  374  1  0.31503200  0.06128200  0.61581800  1
  C  375  1  0.30467500  0.09558100  0.61715900  1
  C  376  1  0.29471400  0.11379300  0.59672500  1
  C  377  1  0.29443200  0.09661000  0.57469200  1
  C  378  1  0.30436200  0.06209400  0.57254800  1
  C  379  1  0.31511300  0.04495900  0.59341100  1
  C  383  1  0.30309600  0.04668500  0.55018300  1
  C  384  1  0.40872000  0.01387200  0.66252500  1
  C  385  1  0.29693500  0.02070900  0.69723700  1
  C  386  1  0.28685200  0.14807400  0.59869600  1
  C  391  1  0.17818400  0.92981000  0.13663500  1
  C  392  1  0.19950800  0.93383100  0.15669900  1
  C  393  1  0.18694900  0.94802600  0.17800100  1
  C  394  1  0.15246800  0.95778600  0.17925100  1
  C  395  1  0.13039600  0.95299300  0.15977400  1
  C  396  1  0.14360700  0.93929800  0.13847400  1
  C  400  1  0.19027800  0.91344900  0.11574100  1
  C  401  1  0.20081700  0.87920600  0.11709300  1
  C  402  1  0.21109400  0.86110400  0.09668700  1
  C  403  1  0.21151600  0.87833900  0.07467800  1
  C  404  1  0.20141100  0.91280400  0.07252400  1
  C  405  1  0.19035400  0.92983000  0.09335300  1
  C  409  1  0.20280300  0.92826000  0.05017900  1
  C  410  1  0.09634900  0.96097300  0.16216600  1
  C  411  1  0.20776000  0.95370400  0.19731200  1
  C  412  1  0.21919500  0.82688000  0.09864900  1
  C  417  1  0.24498900  0.37020100  0.77444900  1
  C  418  1  0.24782700  0.40478300  0.76437800  1
  C  423  1  0.26869700  0.43759400  0.73134900  1
  C  424  1  0.25527000  0.46746600  0.74184600  1
  C  425  1  0.25696500  0.50133300  0.73060100  1
  C  430  1  0.23477400  0.43462700  0.77510000  1
  C  433  1  0.26019300  0.60465700  0.27451900  1
  C  434  1  0.25734400  0.57008800  0.26442600  1
  C  439  1  0.23642200  0.53731800  0.23139600  1
  C  440  1  0.24987600  0.50743600  0.24185900  1
  C  441  1  0.24816000  0.47358400  0.23059200  1
  C  446  1  0.27042800  0.54023400  0.27511500  1
  C  449  1  0.86685000  0.96150500  0.01618700  1
  C  450  1  0.83193300  0.97040000  0.00876700  1
  C  455  1  0.79803200  0.99740300  0.97869500  1
  C  456  1  0.76820600  0.98936400  0.99159000  1
  C  457  1  0.73366200  0.99783000  0.98319400  1
  C  462  1  0.80220100  0.96290800  0.02195800  1
  C  465  1  0.63827100  0.01315300  0.51615100  1
  C  466  1  0.67315800  0.00402900  0.50879100  1
  C  471  1  0.70699200  0.97689200  0.47874700  1
  C  472  1  0.73681900  0.98464700  0.49172400  1
  C  473  1  0.77134000  0.97592900  0.48340400  1
  C  478  1  0.70288800  0.01128700  0.52204700  1
  C  481  1  0.77765100  0.59963700  0.23943900  1
  C  482  1  0.76869100  0.56467700  0.24672300  1
  C  487  1  0.74206500  0.53047600  0.27674900  1
  C  488  1  0.74968000  0.50079700  0.26362100  1
  C  489  1  0.74069200  0.46626100  0.27176000  1
  C  494  1  0.77594000  0.53505900  0.23334100  1
  C  497  1  0.72751900  0.37501000  0.73940600  1
  C  498  1  0.73647100  0.40997600  0.74668300  1
  C  503  1  0.76314000  0.44418900  0.77668600  1
  C  504  1  0.75548000  0.47386800  0.76356900  1
  C  505  1  0.76444200  0.50840900  0.77170400  1
  C  510  1  0.72918600  0.43959400  0.73330800  1
  C  513  1  0.12814400  0.00344500  0.98291900  1
  C  514  1  0.16266400  0.99811700  0.99258400  1
  C  519  1  0.19480700  0.97491400  0.02510600  1
  C  520  1  0.22528500  0.98593500  0.01416800  1
  C  521  1  0.25925000  0.98102000  0.02480000  1
  C  526  1  0.19309000  0.00898000  0.98146100  1
  C  529  1  0.37715800  0.97080700  0.48305500  1
  C  530  1  0.34266700  0.97643900  0.49268200  1
  C  535  1  0.31064500  0.99991400  0.52516400  1
  C  536  1  0.28009900  0.98915500  0.51419200  1
  C  537  1  0.24615600  0.99436100  0.52478800  1
  C  542  1  0.31217300  0.96584600  0.48151800  1
  C  545  1  0.74358000  0.85735000  0.27487900  1
  C  546  1  0.74662700  0.89187800  0.26475100  1
  C  551  1  0.76807100  0.92447800  0.23183100  1
  C  552  1  0.75459300  0.95444900  0.24214300  1
  C  553  1  0.75671800  0.98824300  0.23082700  1
  C  558  1  0.73346900  0.92180400  0.27528500  1
  C  561  1  0.76187700  0.11790100  0.77461200  1
  C  562  1  0.75862400  0.08332800  0.76458900  1
  C  567  1  0.73699700  0.05065100  0.73176500  1
  C  568  1  0.75029500  0.02066500  0.74217100  1
  C  569  1  0.74798200  0.98681500  0.73095200  1
  C  574  1  0.77159400  0.05338600  0.77521900  1
  C  577  1  0.36685100  0.47954400  0.52512700  1
  C  578  1  0.33243000  0.48195100  0.51474200  1
  C  583  1  0.29982000  0.50313000  0.48171300  1
  C  584  1  0.27004700  0.48876000  0.49171500  1
  C  585  1  0.23635100  0.49019600  0.48020000  1
  C  590  1  0.30267200  0.46789000  0.52495300  1
  C  593  1  0.13827200  0.49551600  0.02515000  1
  C  594  1  0.17271100  0.49309100  0.01479500  1
  C  599  1  0.20537100  0.47191100  0.98179300  1
  C  600  1  0.23513600  0.48624900  0.99183000  1
  C  601  1  0.26885200  0.48478700  0.98034700  1
  C  606  1  0.20245900  0.50711800  0.02504200  1
  C  609  1  0.26698200  0.10940100  0.73407300  1
  C  610  1  0.26089700  0.07469300  0.74317300  1
  C  615  1  0.23684300  0.04193000  0.77508900  1
  C  616  1  0.24754500  0.01161000  0.76376900  1
  C  617  1  0.24264800  0.97739800  0.77402300  1
  C  622  1  0.27105100  0.04442100  0.73154300  1
  C  625  1  0.23808100  0.86477100  0.23376500  1
  C  626  1  0.24405400  0.89943000  0.24299100  1
  C  631  1  0.26795800  0.93203900  0.27503700  1
  C  632  1  0.25718400  0.96240700  0.26381600  1
  C  633  1  0.26198000  0.99656200  0.27418300  1
  C  638  1  0.23382200  0.92975400  0.23146200  1
  C  641  1  0.62179300  0.49618200  0.48107100  1
  C  642  1  0.65638500  0.49293100  0.49106600  1
  C  647  1  0.68908100  0.47161600  0.52395800  1
  C  648  1  0.71909800  0.48463500  0.51343100  1
  C  649  1  0.75297600  0.48228900  0.52460700  1
  C  654  1  0.68634900  0.50564700  0.48032400  1
  C  657  1  0.88345300  0.47831100  0.98102400  1
  C  658  1  0.84884300  0.48152600  0.99099100  1
  C  663  1  0.81607600  0.50278000  0.02387100  1
  C  664  1  0.78608600  0.48974900  0.01331000  1
  C  665  1  0.75219100  0.49205100  0.02446300  1
  C  670  1  0.81890400  0.46880500  0.98021300  1
  C  673  1  0.16105300  0.20698700  0.89631200  1
  C  674  1  0.19108200  0.21990800  0.90924500  1
  C  679  1  0.22140600  0.27023000  0.92134800  1
  C  680  1  0.24529900  0.24974600  0.93349500  1
  C  681  1  0.27437000  0.26412500  0.94668100  1
  C  686  1  0.21556000  0.19956600  0.92094300  1
  C  689  1  0.34582400  0.76800800  0.39741100  1
  C  690  1  0.31515900  0.75506500  0.40958000  1
  C  695  1  0.28406900  0.70480700  0.42084100  1
  C  696  1  0.25936400  0.72536100  0.43210800  1
  C  697  1  0.22943000  0.71106700  0.44436600  1
  C  702  1  0.28995300  0.77545200  0.42042900  1
  C  705  1  0.03353500  0.87935300  0.14203000  1
  C  706  1  0.02010300  0.91112100  0.15245600  1
  C  711  1  0.96919600  0.94072400  0.16434000  1
  C  712  1  0.98916800  0.96854000  0.17197000  1
  C  713  1  0.97437100  0.99961200  0.18244200  1
  C  718  1  0.03998800  0.93918600  0.15976000  1
  C  721  1  0.47146400  0.09507600  0.64144600  1
  C  722  1  0.48496800  0.06338800  0.65194300  1
  C  727  1  0.53594300  0.03391100  0.66382900  1
  C  728  1  0.51603200  0.00608800  0.67152200  1
  C  729  1  0.53090600  0.97504900  0.68199200  1
  C  734  1  0.46513300  0.03537100  0.65940700  1
  C  737  1  0.34415400  0.21131400  0.61131500  1
  C  738  1  0.31508500  0.22360300  0.59707800  1
  C  743  1  0.28474000  0.27329500  0.58389900  1
  C  744  1  0.26318400  0.25256300  0.56998100  1
  C  745  1  0.23551600  0.26657500  0.55523500  1
  C  750  1  0.29274400  0.20288600  0.58370900  1
  C  753  1  0.16167900  0.76382100  0.11153100  1
  C  754  1  0.19062900  0.75141300  0.09722400  1
  C  759  1  0.22072200  0.70160900  0.08398100  1
  C  760  1  0.24227500  0.72225300  0.06999500  1
  C  761  1  0.26980500  0.70812900  0.05517700  1
  C  766  1  0.21296400  0.77204100  0.08378400  1
  C  769  1  0.47324600  0.88801000  0.36057000  1
  C  770  1  0.48797200  0.91753900  0.34802200  1
  C  775  1  0.54003800  0.94571300  0.33702900  1
  C  776  1  0.52110000  0.97059600  0.32461900  1
  C  777  1  0.53722700  0.99909800  0.31181200  1
  C  782  1  0.46920900  0.94290700  0.33598700  1
  C  785  1  0.03181900  0.08699500  0.86041300  1
  C  786  1  0.01696600  0.05739500  0.84802300  1
  C  791  1  0.96480100  0.02928200  0.83718200  1
  C  792  1  0.98366000  0.00413000  0.82497500  1
  C  793  1  0.96743900  0.97550200  0.81236500  1
  C  798  1  0.03563900  0.03178200  0.83617800  1
  C  801  1  0.85527100  0.76845200  0.11536200  1
  C  802  1  0.82449100  0.75417100  0.10407000  1
  C  807  1  0.79655800  0.70247100  0.09197600  1
  C  808  1  0.76884600  0.72170900  0.08330400  1
  C  809  1  0.73859000  0.70602900  0.07231000  1
  C  814  1  0.79669500  0.77333500  0.09544100  1
  C  817  1  0.65019100  0.20586500  0.61544500  1
  C  818  1  0.68085600  0.22021400  0.60404000  1
  C  823  1  0.70860400  0.27197400  0.59187400  1
  C  824  1  0.73627700  0.25279600  0.58307500  1
  C  825  1  0.76641400  0.26854500  0.57197200  1
  C  830  1  0.70862200  0.20111400  0.59529800  1
  C  833  1  0.65093300  0.76466800  0.39364100  1
  C  834  1  0.68312900  0.75018000  0.40265500  1
  C  839  1  0.71250800  0.69822100  0.41235500  1
  C  840  1  0.74120800  0.71729600  0.41949800  1
  C  841  1  0.77262100  0.70143400  0.42862000  1
  C  846  1  0.71206000  0.76914900  0.40946100  1
  C  849  1  0.85373500  0.20972100  0.89303900  1
  C  850  1  0.82153500  0.22435900  0.90192600  1
  C  855  1  0.79229600  0.27646000  0.91145800  1
  C  856  1  0.76344000  0.25751700  0.91847000  1
  C  857  1  0.73197400  0.27353400  0.92736400  1
  C  862  1  0.79252500  0.20551300  0.90873800  1
  C  865  1  0.53116200  0.39356700  0.64080000  1
  C  866  1  0.51848200  0.42505300  0.65208100  1
  C  871  1  0.46824600  0.45562700  0.66413200  1
  C  872  1  0.48886400  0.48224800  0.67290800  1
  C  873  1  0.47472200  0.51318500  0.68398300  1
  C  878  1  0.53900600  0.45189300  0.66063300  1
  C  881  1  0.97376800  0.58124900  0.14089300  1
  C  882  1  0.98649400  0.54975500  0.15214100  1
  C  887  1  0.03677400  0.51922900  0.16416500  1
  C  888  1  0.01619200  0.49255500  0.17290100  1
  C  889  1  0.03037700  0.46160700  0.18393700  1
  C  894  1  0.96600600  0.52286400  0.16066000  1
  C  897  1  0.97778900  0.39314200  0.85924600  1
  C  898  1  0.99080000  0.42600600  0.85030700  1
  C  903  1  0.04139300  0.45779500  0.84072700  1
  C  904  1  0.02104100  0.48559800  0.83358600  1
  C  905  1  0.03549300  0.51770400  0.82450700  1
  C  910  1  0.97057800  0.45418800  0.84374900  1
  C  913  1  0.52752500  0.58179000  0.35898900  1
  C  914  1  0.51455000  0.54886500  0.35013000  1
  C  919  1  0.46399400  0.51698500  0.34060600  1
  C  920  1  0.48437500  0.48915900  0.33355300  1
  C  921  1  0.46996200  0.45699400  0.32454800  1
  C  926  1  0.53480000  0.52065300  0.34368100  1
  N  422  1  0.26385300  0.40783600  0.74307400  1
  N  429  1  0.23906800  0.46437000  0.76309100  1
  N  431  1  0.28411000  0.43581400  0.71034200  1
  N  432  1  0.21841200  0.43348900  0.79583600  1
  N  438  1  0.24128200  0.56706300  0.24313500  1
  N  445  1  0.26611800  0.51050600  0.26309000  1
  N  447  1  0.22097900  0.53911800  0.21039900  1
  N  448  1  0.28682700  0.54134700  0.29583700  1
  N  454  1  0.82833700  0.98738400  0.98786600  1
  N  461  1  0.77185100  0.97245700  0.01247500  1
  N  463  1  0.79790000  0.01406000  0.95817300  1
  N  464  1  0.80322200  0.94494100  0.04194500  1
  N  470  1  0.67672100  0.98709700  0.48786700  1
  N  477  1  0.73320700  0.00152800  0.51261800  1
  N  479  1  0.70710200  0.96034600  0.45818500  1
  N  480  1  0.70190900  0.02925600  0.54203100  1
  N  486  1  0.75197200  0.56090800  0.26771400  1
  N  493  1  0.76632200  0.50463000  0.24267000  1
  N  495  1  0.72561800  0.52961700  0.29729000  1
  N  496  1  0.79375200  0.53616400  0.21330000  1
  N  502  1  0.75322800  0.41375500  0.76765900  1
  N  509  1  0.73880100  0.47002500  0.74263200  1
  N  511  1  0.77963600  0.44501800  0.79720800  1
  N  512  1  0.71136400  0.43846800  0.71327300  1
  N  518  1  0.16509200  0.98180000  0.01383000  1
  N  525  1  0.22278400  0.00236400  0.99300400  1
  N  527  1  0.19344200  0.95902900  0.04593400  1
  N  528  1  0.19272500  0.02567100  0.96083500  1
  N  534  1  0.34032900  0.99277700  0.51392600  1
  N  541  1  0.28251400  0.97271100  0.49303300  1
  N  543  1  0.31203300  0.01577300  0.54600100  1
  N  544  1  0.31242700  0.94908900  0.46091700  1
  N  550  1  0.76299300  0.89478800  0.24357500  1
  N  557  1  0.73804100  0.95150800  0.26327300  1
  N  559  1  0.78391300  0.92249800  0.21101100  1
  N  560  1  0.71691800  0.92071600  0.29592700  1
  N  566  1  0.74224800  0.08038300  0.74342000  1
  N  573  1  0.76685100  0.02363900  0.76329200  1
  N  575  1  0.72117200  0.05257400  0.71093800  1
  N  576  1  0.78816000  0.05449300  0.79585600  1
  N  582  1  0.32945600  0.49856600  0.49364900  1
  N  589  1  0.27307700  0.47197700  0.51273900  1
  N  591  1  0.30152800  0.51921400  0.46094900  1
  N  592  1  0.30363500  0.45111800  0.54554200  1
  N  598  1  0.17571400  0.47648600  0.99370000  1
  N  605  1  0.23207600  0.50301600  0.01285400  1
  N  607  1  0.20372300  0.45583800  0.96102300  1
  N  608  1  0.20147100  0.52388600  0.04563200  1
  N  614  1  0.24439800  0.07186800  0.76432100  1
  N  621  1  0.26409900  0.01450500  0.74268500  1
  N  623  1  0.22110700  0.04315900  0.79596600  1
  N  624  1  0.28850500  0.04507200  0.71126800  1
  N  630  1  0.26051600  0.90215400  0.26416000  1
  N  637  1  0.24066800  0.95961100  0.24271400  1
  N  639  1  0.28368600  0.93075300  0.29591100  1
  N  640  1  0.21640300  0.92921300  0.21117100  1
  N  646  1  0.65932600  0.47681900  0.51232900  1
  N  653  1  0.71612700  0.50094200  0.49221700  1
  N  655  1  0.68716200  0.45608700  0.54487700  1
  N  656  1  0.68520800  0.52199500  0.45962400  1
  N  662  1  0.84585100  0.49760700  0.01226100  1
  N  669  1  0.78910300  0.47347200  0.99208700  1
  N  671  1  0.81795400  0.51829900  0.04479800  1
  N  672  1  0.82009700  0.45248800  0.95950000  1
  N  678  1  0.19542500  0.25408900  0.91005300  1
  N  685  1  0.24125700  0.21538400  0.93266400  1
  N  687  1  0.22346500  0.30405700  0.92130500  1
  N  688  1  0.21377900  0.16602200  0.92141500  1
  N  694  1  0.31076400  0.72088300  0.41033200  1
  N  701  1  0.26345900  0.75971700  0.43131600  1
  N  703  1  0.28192700  0.67098700  0.42078600  1
  N  704  1  0.29192600  0.80896400  0.42085700  1
  N  710  1  0.98588400  0.91350000  0.15503500  1
  N  717  1  0.02347300  0.96640200  0.16925700  1
  N  719  1  0.93536400  0.94141000  0.16561000  1
  N  720  1  0.07356800  0.93851000  0.15764800  1
  N  726  1  0.51919900  0.06106700  0.65447500  1
  N  733  1  0.48171400  0.00819900  0.66890300  1
  N  735  1  0.56976800  0.03330600  0.66514000  1
  N  736  1  0.43153900  0.03603800  0.65741600  1
  N  742  1  0.30981600  0.25766100  0.59644300  1
  N  749  1  0.26818900  0.21831800  0.57061300  1
  N  751  1  0.28257200  0.30706900  0.58402100  1
  N  752  1  0.29571800  0.16944900  0.58257800  1
  N  758  1  0.19577100  0.71733700  0.09658700  1
  N  765  1  0.23739100  0.75651400  0.07062500  1
  N  767  1  0.22272400  0.66783000  0.08408900  1
  N  768  1  0.21005600  0.80547900  0.08262400  1
  N  774  1  0.52231700  0.92041900  0.34791800  1
  N  781  1  0.48657900  0.96798100  0.32468700  1
  N  783  1  0.57390800  0.94632800  0.33774200  1
  N  784  1  0.43571000  0.94220100  0.33456100  1
  N  790  1  0.98260600  0.05465300  0.84791900  1
  N  797  1  0.01818900  0.00660900  0.82504800  1
  N  799  1  0.93093400  0.02873100  0.83791300  1
  N  800  1  0.06913600  0.03237100  0.83476900  1
  N  806  1  0.82288500  0.71986100  0.10188000  1
  N  813  1  0.77027000  0.75612300  0.08549600  1
  N  815  1  0.79679200  0.66865400  0.09079900  1
  N  816  1  0.79664700  0.80690000  0.09724800  1
  N  822  1  0.68238400  0.25452500  0.60186500  1
  N  829  1  0.73493800  0.21837500  0.58525900  1
  N  831  1  0.70829100  0.30578800  0.59071900  1
  N  832  1  0.70876100  0.16756100  0.59713700  1
  N  838  1  0.68502000  0.71584200  0.40436700  1
  N  845  1  0.73956900  0.75175100  0.41767700  1
  N  847  1  0.71251000  0.66434300  0.41283000  1
  N  848  1  0.71167700  0.80276500  0.40838400  1
  N  854  1  0.81977100  0.25871100  0.90358500  1
  N  861  1  0.76499100  0.22304500  0.91676500  1
  N  863  1  0.79246900  0.31033200  0.91200400  1
  N  864  1  0.79282700  0.17188600  0.90776400  1
  N  870  1  0.48431700  0.42843600  0.65426500  1
  N  877  1  0.52316100  0.47911400  0.67065100  1
  N  879  1  0.43442200  0.45708100  0.66516600  1
  N  880  1  0.57250500  0.45028400  0.65868300  1
  N  886  1  0.02066500  0.54641800  0.15432500  1
  N  893  1  0.98188900  0.49564300  0.17064500  1
  N  895  1  0.07059900  0.51781100  0.16519400  1
  N  896  1  0.93250400  0.52442200  0.15870300  1
  N  902  1  0.02500500  0.42947000  0.84859100  1
  N  909  1  0.98670300  0.48246900  0.83553900  1
  N  911  1  0.07526000  0.45941600  0.84055000  1
  N  912  1  0.93705100  0.45248500  0.84522900  1
  N  918  1  0.48034900  0.54536800  0.34840000  1
  N  925  1  0.51870800  0.49231800  0.33553300  1
  N  927  1  0.43012600  0.51532500  0.34043400  1
  N  928  1  0.56832400  0.52237600  0.34519800  1
