# generated using pymatgen
data_H20C43N12
_symmetry_space_group_name_H-M   'P 1'
_cell_length_a   34.38360000
_cell_length_b   62.37880000
_cell_length_c   62.37880000
_cell_angle_alpha   90.00000000
_cell_angle_beta   90.00000000
_cell_angle_gamma   90.00000000
_symmetry_Int_Tables_number   1
_chemical_formula_structural   H20C43N12
_chemical_formula_sum   'H320 C688 N192'
_cell_volume   133790.53103583
_cell_formula_units_Z   16
loop_
 _symmetry_equiv_pos_site_id
 _symmetry_equiv_pos_as_xyz
  1  'x, y, z'
loop_
 _atom_site_type_symbol
 _atom_site_label
 _atom_site_symmetry_multiplicity
 _atom_site_fract_x
 _atom_site_fract_y
 _atom_site_fract_z
 _atom_site_occupancy
  H  25  1  0.99919500  0.08744700  0.37698900  1
  H  26  1  0.00504900  0.12556500  0.37481600  1
  H  27  1  0.94882500  0.19876000  0.38089500  1
  H  28  1  0.89488300  0.22214000  0.38638300  1
  H  29  1  0.82672000  0.17012700  0.40659200  1
  H  30  1  0.88649800  0.09394200  0.40208700  1
  H  31  1  0.87516500  0.13868600  0.35747700  1
  H  32  1  0.76383200  0.11207600  0.34975800  1
  H  33  1  0.75701200  0.10940500  0.38776800  1
  H  34  1  0.93170000  0.14405300  0.43468600  1
  H  35  1  0.80976100  0.11624700  0.46151600  1
  H  36  1  0.86161200  0.12325200  0.48573900  1
  H  39  1  0.97840600  0.16112700  0.39486000  1
  H  40  1  0.96151400  0.15949200  0.36808200  1
  H  42  1  0.78147200  0.12938200  0.42367100  1
  H  43  1  0.79984700  0.10290200  0.42197800  1
  H  72  1  0.49920600  0.42548700  0.66412300  1
  H  73  1  0.50505200  0.38736900  0.66629700  1
  H  74  1  0.44881900  0.31417400  0.66021600  1
  H  75  1  0.39487100  0.29079600  0.65473500  1
  H  76  1  0.32670200  0.34281700  0.63454100  1
  H  77  1  0.38650100  0.41899800  0.63903800  1
  H  78  1  0.37515600  0.37425500  0.68365200  1
  H  79  1  0.26382600  0.40087200  0.69136900  1
  H  80  1  0.25700800  0.40354100  0.65336000  1
  H  81  1  0.43169100  0.36888500  0.60644300  1
  H  82  1  0.30976100  0.39670200  0.57961400  1
  H  83  1  0.36161100  0.38969500  0.55539100  1
  H  86  1  0.47839100  0.35180900  0.64625200  1
  H  87  1  0.46152500  0.35344200  0.67303500  1
  H  89  1  0.28146400  0.38356500  0.61745500  1
  H  90  1  0.29984700  0.41004500  0.61915100  1
  H  119  1  0.24781100  0.89724700  0.85021200  1
  H  120  1  0.25411500  0.90047700  0.88814000  1
  H  121  1  0.19869600  0.89645500  0.96184600  1
  H  122  1  0.14520500  0.89126100  0.98562800  1
  H  123  1  0.07609300  0.87033100  0.93429000  1
  H  124  1  0.13407900  0.87392000  0.85764700  1
  H  125  1  0.12387100  0.91914200  0.90220100  1
  H  126  1  0.01179900  0.92668500  0.87652700  1
  H  127  1  0.00498200  0.88864800  0.87409200  1
  H  128  1  0.18062600  0.84209200  0.90783700  1
  H  129  1  0.05833000  0.81487000  0.88094500  1
  H  130  1  0.11049800  0.79078600  0.88774700  1
  H  133  1  0.22748500  0.88182400  0.92419100  1
  H  134  1  0.21086900  0.90863100  0.92225400  1
  H  136  1  0.03006700  0.85282500  0.89406300  1
  H  137  1  0.04780800  0.85434800  0.86744700  1
  H  166  1  0.74780700  0.61567400  0.19090800  1
  H  167  1  0.75410400  0.61244500  0.15297900  1
  H  168  1  0.69866200  0.61646300  0.07927500  1
  H  169  1  0.64517100  0.62166800  0.05550100  1
  H  170  1  0.57608900  0.64261400  0.10683900  1
  H  171  1  0.63408200  0.63901200  0.18347900  1
  H  172  1  0.62385000  0.59379500  0.13891600  1
  H  173  1  0.51178800  0.58625700  0.16460400  1
  H  174  1  0.50498200  0.62429400  0.16704400  1
  H  175  1  0.68062400  0.67084200  0.13328500  1
  H  176  1  0.55835400  0.69806700  0.16020400  1
  H  177  1  0.61052100  0.72214800  0.15339800  1
  H  180  1  0.72747800  0.63110100  0.11693300  1
  H  181  1  0.71084500  0.60429700  0.11886400  1
  H  183  1  0.53007000  0.66011700  0.14707400  1
  H  184  1  0.54781900  0.65858900  0.17368900  1
  H  213  1  0.51376000  0.42704600  0.37582300  1
  H  214  1  0.50680300  0.38903900  0.37309900  1
  H  215  1  0.55944700  0.31522700  0.37986500  1
  H  216  1  0.61129400  0.29099000  0.38686500  1
  H  217  1  0.68130800  0.34200900  0.40782900  1
  H  218  1  0.62498700  0.41916000  0.40251700  1
  H  219  1  0.63636200  0.37463800  0.35767400  1
  H  220  1  0.74912800  0.39969300  0.35136600  1
  H  221  1  0.75481400  0.40181600  0.38948600  1
  H  222  1  0.57630400  0.37010000  0.43390100  1
  H  223  1  0.69841500  0.39570200  0.46259900  1
  H  224  1  0.64445300  0.39023200  0.48595200  1
  H  227  1  0.53112800  0.35306700  0.39303900  1
  H  228  1  0.54958800  0.35479400  0.36657600  1
  H  230  1  0.72802800  0.38175600  0.42497900  1
  H  231  1  0.71118200  0.40854400  0.42336000  1
  H  260  1  0.01375400  0.08589400  0.66528500  1
  H  261  1  0.00679500  0.12390100  0.66800100  1
  H  262  1  0.05944300  0.19771500  0.66123100  1
  H  263  1  0.11130000  0.22194900  0.65423700  1
  H  264  1  0.18132600  0.17092500  0.63330200  1
  H  265  1  0.12499900  0.09377500  0.63861300  1
  H  266  1  0.13635300  0.13829000  0.68345000  1
  H  267  1  0.24912100  0.11324100  0.68977100  1
  H  268  1  0.25482600  0.11112400  0.65165100  1
  H  269  1  0.07633400  0.14283900  0.60721600  1
  H  270  1  0.19845300  0.11723400  0.57853100  1
  H  271  1  0.14450400  0.12271100  0.55517300  1
  H  274  1  0.03113600  0.15987000  0.64805800  1
  H  275  1  0.04957200  0.15814900  0.67452600  1
  H  277  1  0.22804900  0.13119100  0.61615800  1
  H  278  1  0.21121800  0.10440000  0.61776900  1
  H  307  1  0.26505300  0.61465300  0.84866600  1
  H  308  1  0.25766600  0.61087300  0.88647300  1
  H  309  1  0.30968600  0.61540000  0.96075900  1
  H  310  1  0.36108500  0.62204600  0.98538900  1
  H  311  1  0.43192700  0.64386100  0.93509200  1
  H  312  1  0.37744500  0.63945800  0.85750900  1
  H  313  1  0.38761200  0.59403000  0.90178900  1
  H  314  1  0.50111100  0.58786000  0.87775800  1
  H  315  1  0.50683800  0.62600300  0.87588400  1
  H  316  1  0.32745900  0.67014100  0.90660300  1
  H  317  1  0.45000000  0.69916500  0.88204800  1
  H  318  1  0.39580200  0.72241500  0.88729500  1
  H  321  1  0.28208300  0.62937400  0.92293400  1
  H  322  1  0.30022500  0.60287300  0.92087400  1
  H  324  1  0.47943800  0.66139900  0.89594100  1
  H  325  1  0.46329700  0.65999200  0.86901500  1
  H  354  1  0.76507400  0.89829400  0.19245800  1
  H  355  1  0.75767800  0.90207200  0.15465100  1
  H  356  1  0.80968300  0.89754400  0.08036300  1
  H  357  1  0.86107900  0.89089400  0.05573000  1
  H  358  1  0.93192700  0.86907400  0.10602300  1
  H  359  1  0.87745600  0.87348300  0.18360900  1
  H  360  1  0.88761500  0.91890700  0.13933500  1
  H  361  1  0.00111400  0.92507400  0.16337000  1
  H  362  1  0.00684200  0.88693100  0.16523400  1
  H  363  1  0.82745900  0.84279900  0.13451600  1
  H  364  1  0.94999700  0.81376800  0.15906700  1
  H  365  1  0.89579400  0.79052200  0.15382100  1
  H  368  1  0.78208500  0.88356900  0.11818900  1
  H  369  1  0.80023300  0.91006900  0.12024900  1
  H  371  1  0.97944400  0.85153400  0.14517900  1
  H  372  1  0.96329400  0.85294000  0.17210300  1
  H  401  1  0.01523800  0.92666400  0.66108000  1
  H  402  1  0.00880000  0.88873100  0.66425600  1
  H  403  1  0.06405400  0.81500000  0.66021800  1
  H  404  1  0.11752500  0.79119200  0.65502900  1
  H  405  1  0.18677300  0.84250900  0.63419800  1
  H  406  1  0.12897600  0.91914600  0.63778200  1
  H  407  1  0.13896800  0.87465900  0.68296000  1
  H  408  1  0.25102900  0.90032700  0.69059200  1
  H  409  1  0.25800200  0.90269100  0.65255500  1
  H  410  1  0.08243200  0.86898400  0.60592700  1
  H  411  1  0.20482700  0.89579800  0.57874600  1
  H  412  1  0.15266400  0.88901400  0.55464400  1
  H  415  1  0.03537800  0.85267700  0.64558500  1
  H  416  1  0.05192900  0.85458800  0.67240600  1
  H  418  1  0.23299500  0.88267600  0.61672700  1
  H  419  1  0.21530300  0.90930600  0.61822000  1
  H  448  1  0.51523100  0.58627400  0.38005700  1
  H  449  1  0.50879500  0.62420700  0.37688300  1
  H  450  1  0.56405100  0.69794100  0.38092900  1
  H  451  1  0.61753300  0.72174700  0.38610100  1
  H  452  1  0.68679300  0.67042200  0.40691500  1
  H  453  1  0.62898000  0.59379000  0.40334100  1
  H  454  1  0.63897300  0.63827300  0.35816300  1
  H  455  1  0.75102700  0.61259600  0.35052900  1
  H  456  1  0.75800100  0.61023500  0.38856600  1
  H  457  1  0.58244600  0.64395900  0.43519800  1
  H  458  1  0.70483300  0.61712800  0.46237500  1
  H  459  1  0.65267200  0.62391500  0.48648100  1
  H  462  1  0.53539200  0.66026000  0.39556100  1
  H  463  1  0.55191400  0.65835200  0.36873300  1
  H  465  1  0.73300400  0.63024900  0.42439600  1
  H  466  1  0.71530300  0.60362200  0.42290300  1
  H  495  1  0.76341100  0.11627400  0.19018600  1
  H  496  1  0.75692800  0.11333400  0.15223400  1
  H  497  1  0.81256800  0.11747900  0.07842900  1
  H  498  1  0.86627400  0.12246900  0.05473300  1
  H  499  1  0.93565900  0.14254300  0.10628700  1
  H  500  1  0.87774100  0.13869600  0.18279600  1
  H  501  1  0.88651900  0.09372500  0.13771000  1
  H  502  1  0.99962200  0.08510100  0.16157400  1
  H  503  1  0.00706600  0.12293900  0.16500000  1
  H  504  1  0.83184200  0.17118800  0.13295800  1
  H  505  1  0.95461500  0.19725600  0.16030800  1
  H  506  1  0.90291300  0.22175800  0.15386700  1
  H  509  1  0.78401100  0.13203100  0.11625100  1
  H  510  1  0.79996000  0.10509100  0.11796700  1
  H  512  1  0.98206400  0.15927900  0.14640600  1
  H  513  1  0.96464000  0.15745400  0.17306400  1
  H  542  1  0.26340800  0.39667800  0.85094600  1
  H  543  1  0.25693300  0.39961300  0.88890000  1
  H  544  1  0.31260600  0.39547200  0.96270000  1
  H  545  1  0.36631400  0.39047400  0.98638600  1
  H  546  1  0.43566700  0.37038500  0.93482900  1
  H  547  1  0.37773300  0.37424600  0.85832500  1
  H  548  1  0.38653000  0.41921100  0.90342200  1
  H  549  1  0.49961600  0.42783600  0.87953400  1
  H  550  1  0.50705600  0.38999800  0.87610200  1
  H  551  1  0.33185000  0.34174600  0.90817400  1
  H  552  1  0.45459500  0.31568400  0.88078000  1
  H  553  1  0.40289900  0.29118100  0.88722900  1
  H  556  1  0.28401800  0.38091300  0.92487800  1
  H  557  1  0.29998600  0.40785200  0.92316600  1
  H  559  1  0.48206100  0.35365400  0.89469300  1
  H  560  1  0.46462000  0.35548600  0.86803800  1
  H  589  1  0.49784500  0.58477900  0.66217000  1
  H  590  1  0.50536300  0.62259000  0.66589100  1
  H  591  1  0.45349800  0.69689500  0.66134500  1
  H  592  1  0.40209900  0.72154300  0.65472400  1
  H  593  1  0.33115200  0.67126500  0.63296700  1
  H  594  1  0.38546600  0.59369700  0.63736700  1
  H  595  1  0.37550200  0.63792700  0.68274000  1
  H  596  1  0.26203000  0.61387400  0.68900500  1
  H  597  1  0.25616400  0.61205400  0.65086200  1
  H  598  1  0.43544600  0.64276200  0.60665000  1
  H  599  1  0.31283200  0.61826000  0.57766600  1
  H  600  1  0.36701200  0.62350800  0.55439500  1
  H  603  1  0.48100900  0.65905400  0.64736600  1
  H  604  1  0.46290700  0.65701500  0.67387800  1
  H  606  1  0.28346600  0.63213800  0.61545100  1
  H  607  1  0.29960800  0.60521000  0.61683900  1
  H  636  1  0.99784800  0.92815700  0.37896700  1
  H  637  1  0.00536300  0.89034600  0.37524600  1
  H  638  1  0.95349600  0.81604000  0.37979900  1
  H  639  1  0.90209300  0.79139400  0.38641700  1
  H  640  1  0.83113800  0.84167700  0.40815600  1
  H  641  1  0.88546000  0.91924200  0.40375700  1
  H  642  1  0.87550500  0.87501800  0.35838500  1
  H  643  1  0.76203200  0.89906800  0.35211000  1
  H  644  1  0.75615400  0.90088300  0.39025300  1
  H  645  1  0.93542000  0.87017200  0.43448100  1
  H  646  1  0.81280300  0.89468100  0.46345600  1
  H  647  1  0.86696900  0.88941900  0.48672900  1
  H  650  1  0.98100000  0.85388500  0.39377300  1
  H  651  1  0.96291000  0.85592100  0.36725900  1
  H  653  1  0.78344900  0.88079000  0.42566400  1
  H  654  1  0.79957300  0.90772200  0.42428200  1
  H  683  1  0.74975000  0.39778400  0.19170100  1
  H  684  1  0.75728600  0.40126800  0.15386600  1
  H  685  1  0.70489100  0.39665600  0.07950400  1
  H  686  1  0.65317800  0.39022100  0.05499800  1
  H  687  1  0.58219300  0.36916200  0.10554200  1
  H  688  1  0.63672800  0.37384300  0.18295300  1
  H  689  1  0.62794500  0.41904500  0.13811000  1
  H  690  1  0.51353300  0.42630500  0.16044200  1
  H  691  1  0.50714000  0.38835000  0.16331000  1
  H  692  1  0.68601000  0.34248200  0.13417800  1
  H  693  1  0.56286400  0.31459600  0.15911300  1
  H  694  1  0.61657600  0.29090800  0.15413900  1
  H  697  1  0.73237800  0.38270900  0.11747000  1
  H  698  1  0.71489000  0.40935200  0.11933300  1
  H  700  1  0.53433600  0.35242400  0.14458100  1
  H  701  1  0.55020100  0.35410400  0.17153900  1
  H  730  1  0.24973700  0.11514300  0.84942600  1
  H  731  1  0.25727700  0.11166100  0.88726300  1
  H  732  1  0.20488800  0.11627800  0.96162500  1
  H  733  1  0.15317600  0.12271600  0.98613300  1
  H  734  1  0.08219200  0.14377600  0.93559000  1
  H  735  1  0.13672300  0.13909200  0.85817800  1
  H  736  1  0.12793800  0.09389200  0.90302300  1
  H  737  1  0.01353600  0.08663400  0.88067400  1
  H  738  1  0.00714800  0.12458900  0.87780100  1
  H  739  1  0.18600700  0.17045200  0.90695900  1
  H  740  1  0.06288200  0.19834300  0.88199700  1
  H  741  1  0.11659000  0.22202600  0.88697600  1
  H  744  1  0.23237500  0.13022200  0.92366000  1
  H  745  1  0.21488200  0.10357900  0.92179500  1
  H  747  1  0.03433400  0.16051400  0.89653500  1
  H  748  1  0.05021700  0.15883400  0.86958100  1
  H  764  1  0.84368700  0.23744300  0.41200900  1
  H  766  1  0.67558400  0.28059200  0.37669700  1
  H  778  1  0.34368100  0.27549700  0.62911800  1
  H  780  1  0.17558000  0.23235600  0.66441500  1
  H  792  1  0.09425200  0.86618700  0.00177000  1
  H  794  1  0.92481300  0.90032300  0.04438600  1
  H  806  1  0.59420800  0.64681600  0.03938000  1
  H  808  1  0.42482500  0.61261000  0.99672800  1
  H  820  1  0.16863500  0.77510300  0.62989000  1
  H  822  1  0.33828900  0.73283700  0.66423200  1
  H  834  1  0.66862400  0.73783600  0.41121200  1
  H  836  1  0.83828400  0.78010200  0.37689700  1
  H  848  1  0.91807700  0.14676700  0.03860100  1
  H  850  1  0.08965600  0.11336700  0.99776700  1
  H  862  1  0.41812700  0.36610500  0.00249800  1
  H  864  1  0.58965600  0.39957200  0.04336400  1
  H  876  1  0.34398700  0.73773900  0.91204900  1
  H  878  1  0.17440000  0.78002600  0.87762800  1
  H  890  1  0.84397500  0.77520400  0.12905000  1
  H  892  1  0.67441800  0.73291600  0.16349900  1
  H  904  1  0.59339400  0.36460300  0.50124100  1
  H  906  1  0.42580500  0.39990500  0.54494200  1
  H  918  1  0.09341600  0.14831600  0.53987600  1
  H  920  1  0.92579300  0.11304300  0.49619400  1
  H  932  1  0.66830100  0.27478200  0.12989200  1
  H  934  1  0.83947600  0.23342100  0.16326900  1
  H  946  1  0.16830200  0.23815500  0.91123300  1
  H  948  1  0.33945600  0.27952000  0.87783800  1
  H  960  1  0.41892100  0.64836900  0.53911600  1
  H  962  1  0.58867600  0.61372800  0.49719600  1
  H  974  1  0.91891200  0.86456800  0.50200900  1
  H  976  1  0.08868800  0.89919600  0.54391400  1
  H  988  1  0.86570700  0.14374900  0.31882300  1
  H  990  1  0.79294200  0.10712000  0.22355000  1
  H  1002  1  0.36568600  0.36918800  0.72230600  1
  H  1004  1  0.29294500  0.40583500  0.81757900  1
  H  1016  1  0.11410600  0.95761500  0.90769800  1
  H  1018  1  0.04307200  0.05334100  0.87127500  1
  H  1030  1  0.61407200  0.55532500  0.13341300  1
  H  1032  1  0.54306100  0.45959800  0.16984600  1
  H  1044  1  0.64757900  0.36882900  0.31951100  1
  H  1046  1  0.71744100  0.40717700  0.22437300  1
  H  1058  1  0.14757200  0.14410700  0.72161700  1
  H  1060  1  0.21742400  0.10575200  0.81675700  1
  H  1072  1  0.39912400  0.55602900  0.90808100  1
  H  1074  1  0.46737400  0.46045800  0.86997200  1
  H  1086  1  0.89912900  0.95690500  0.13304300  1
  H  1088  1  0.96741500  0.05247500  0.17113500  1
  H  1100  1  0.14870300  0.86905300  0.72135400  1
  H  1102  1  0.21718600  0.90670900  0.81711900  1
  H  1114  1  0.64872800  0.64389000  0.31976900  1
  H  1116  1  0.71718200  0.60621200  0.22400600  1
  H  1128  1  0.36395600  0.64437600  0.72065700  1
  H  1130  1  0.29847700  0.60504800  0.81626800  1
  H  1142  1  0.86395300  0.86855800  0.32046600  1
  H  1144  1  0.79849400  0.90789300  0.22485500  1
  H  1156  1  0.61548500  0.45762800  0.40793800  1
  H  1158  1  0.54620200  0.55327100  0.37040800  1
  H  1170  1  0.11548200  0.05530800  0.63318100  1
  H  1172  1  0.04622800  0.95966600  0.67073300  1
  H  1184  1  0.89786700  0.05597000  0.40835800  1
  H  1186  1  0.96404100  0.96044500  0.36916500  1
  H  1198  1  0.39787600  0.45696900  0.63276300  1
  H  1200  1  0.46403200  0.55249100  0.67196900  1
  C  1  1  0.87498700  0.13419800  0.42529000  1
  C  2  1  0.83961000  0.12567500  0.43327700  1
  C  3  1  0.81234700  0.12233900  0.39553000  1
  C  4  1  0.84705800  0.13091500  0.38677100  1
  C  5  1  0.85014700  0.13272100  0.36400500  1
  C  6  1  0.82010000  0.12588200  0.35006900  1
  C  7  1  0.78612500  0.11731300  0.35930000  1
  C  8  1  0.78211700  0.11575300  0.38165400  1
  C  9  1  0.83528200  0.12220700  0.45553100  1
  C  10  1  0.86603200  0.12616800  0.46979600  1
  C  11  1  0.90243900  0.13367800  0.46241500  1
  C  12  1  0.90570200  0.13833700  0.44023600  1
  C  13  1  0.91410200  0.12353100  0.39500800  1
  C  14  1  0.94892100  0.13271400  0.38704300  1
  C  15  1  0.92013900  0.17014800  0.39030700  1
  C  16  1  0.88461400  0.16162900  0.39811100  1
  C  17  1  0.92352500  0.19246800  0.38681900  1
  C  18  1  0.89184700  0.20628000  0.39020300  1
  C  19  1  0.85585300  0.19837800  0.39768200  1
  C  20  1  0.85294200  0.17607700  0.40163500  1
  C  21  1  0.91163800  0.10074000  0.39659900  1
  C  22  1  0.94236500  0.08713600  0.39006500  1
  C  23  1  0.97642200  0.09674900  0.38202400  1
  C  24  1  0.97985400  0.11916300  0.38075800  1
  C  37  1  0.88016400  0.13765800  0.40136900  1
  C  38  1  0.95388200  0.15627700  0.38480500  1
  C  41  1  0.80669000  0.11977300  0.41899800  1
  C  48  1  0.37497800  0.37874400  0.61583700  1
  C  49  1  0.33960400  0.38727100  0.60785200  1
  C  50  1  0.31234100  0.39060200  0.64559800  1
  C  51  1  0.34704900  0.38202600  0.65435700  1
  C  52  1  0.35013800  0.38022000  0.67712400  1
  C  53  1  0.32009500  0.38706100  0.69106000  1
  C  54  1  0.28611900  0.39563100  0.68182800  1
  C  55  1  0.28211100  0.39719100  0.65947400  1
  C  56  1  0.33527900  0.39074000  0.58559800  1
  C  57  1  0.36602900  0.38677700  0.57133300  1
  C  58  1  0.40243300  0.37926300  0.57871400  1
  C  59  1  0.40569400  0.37460300  0.60089300  1
  C  60  1  0.41409300  0.38940800  0.64612200  1
  C  61  1  0.44891800  0.38022400  0.65408000  1
  C  62  1  0.42012800  0.34279000  0.65082000  1
  C  63  1  0.38460200  0.35131200  0.64301800  1
  C  64  1  0.42351600  0.32046900  0.65429900  1
  C  65  1  0.39183500  0.30665700  0.65092000  1
  C  66  1  0.35583500  0.31456500  0.64346100  1
  C  67  1  0.35292700  0.33686300  0.63949100  1
  C  68  1  0.41162700  0.41219900  0.64453900  1
  C  69  1  0.44236800  0.42580200  0.65105900  1
  C  70  1  0.47642800  0.41618600  0.65909600  1
  C  71  1  0.47985400  0.39377200  0.66036200  1
  C  84  1  0.38015500  0.37528100  0.63975900  1
  C  85  1  0.45387900  0.35666000  0.65631400  1
  C  88  1  0.30668400  0.39317200  0.62213000  1
  C  95  1  0.12365600  0.85130800  0.89827000  1
  C  96  1  0.08815000  0.84322700  0.89001700  1
  C  97  1  0.06066800  0.88096400  0.88659600  1
  C  98  1  0.09557700  0.88980700  0.89481800  1
  C  99  1  0.09869700  0.91258600  0.89647400  1
  C  100  1  0.06844300  0.92648900  0.88985200  1
  C  101  1  0.03426400  0.91718000  0.88160600  1
  C  102  1  0.03026100  0.89480700  0.88017700  1
  C  103  1  0.08393100  0.82093800  0.88670800  1
  C  104  1  0.11487000  0.80675000  0.89056100  1
  C  105  1  0.15138100  0.81422800  0.89782300  1
  C  106  1  0.15454600  0.83644400  0.90233200  1
  C  107  1  0.16235300  0.88146900  0.88697400  1
  C  108  1  0.19750900  0.88933300  0.89582700  1
  C  109  1  0.16947600  0.88668300  0.93352500  1
  C  110  1  0.13378500  0.87876300  0.92534300  1
  C  111  1  0.17326700  0.89046300  0.95578300  1
  C  112  1  0.14186200  0.88723400  0.96983900  1
  C  113  1  0.10570400  0.87966400  0.96225000  1
  C  114  1  0.10241000  0.87538700  0.94002800  1
  C  115  1  0.15936000  0.87956000  0.86422100  1
  C  116  1  0.18968400  0.88574800  0.85024900  1
  C  117  1  0.22461700  0.89316400  0.85961100  1
  C  118  1  0.22843700  0.89492700  0.88197900  1
  C  131  1  0.12881600  0.87526500  0.90144400  1
  C  132  1  0.20297800  0.89188900  0.91934100  1
  C  135  1  0.05504200  0.85745500  0.88424400  1
  C  142  1  0.62366100  0.66162700  0.14286100  1
  C  143  1  0.58815800  0.66971100  0.15111700  1
  C  144  1  0.56066300  0.63197600  0.15453400  1
  C  145  1  0.59556900  0.62313000  0.14630600  1
  C  146  1  0.59868100  0.60035300  0.14464500  1
  C  147  1  0.56842500  0.58644900  0.15127000  1
  C  148  1  0.53425200  0.59576000  0.15952200  1
  C  149  1  0.53025600  0.61813300  0.16095500  1
  C  150  1  0.58394100  0.69199900  0.15442200  1
  C  151  1  0.61488900  0.70618500  0.15058000  1
  C  152  1  0.65139800  0.69870500  0.14331500  1
  C  153  1  0.65456200  0.67648800  0.13881500  1
  C  154  1  0.66234800  0.63145800  0.15415000  1
  C  155  1  0.69749800  0.62359200  0.14529500  1
  C  156  1  0.66946500  0.62625600  0.10759800  1
  C  157  1  0.63377900  0.63417900  0.11578200  1
  C  158  1  0.67325700  0.62248500  0.08534000  1
  C  159  1  0.64184100  0.62570300  0.07128700  1
  C  160  1  0.60569000  0.63329400  0.07887500  1
  C  161  1  0.60240400  0.63756000  0.10110000  1
  C  162  1  0.65935200  0.63335800  0.17690300  1
  C  163  1  0.68967500  0.62717000  0.19087600  1
  C  164  1  0.72461000  0.61975700  0.18151000  1
  C  165  1  0.72842600  0.61799200  0.15914200  1
  C  178  1  0.62881200  0.63767000  0.13968300  1
  C  179  1  0.70296300  0.62103800  0.12178100  1
  C  182  1  0.55504700  0.65548500  0.15689100  1
  C  189  1  0.63423300  0.37854700  0.42542300  1
  C  190  1  0.66975300  0.38632800  0.43396600  1
  C  191  1  0.69863300  0.38962000  0.39655000  1
  C  192  1  0.66383100  0.38168100  0.38731900  1
  C  193  1  0.66145500  0.38013700  0.36451300  1
  C  194  1  0.69225800  0.38667300  0.35094900  1
  C  195  1  0.72629100  0.39466900  0.36062700  1
  C  196  1  0.72962400  0.39591200  0.38304500  1
  C  197  1  0.67310600  0.38980500  0.45629000  1
  C  198  1  0.64142800  0.38639900  0.47009600  1
  C  199  1  0.60540800  0.37897200  0.46217600  1
  C  200  1  0.60253200  0.37502800  0.43986600  1
  C  201  1  0.59678800  0.38991900  0.39468700  1
  C  202  1  0.56207600  0.38120300  0.38606900  1
  C  203  1  0.58926900  0.34344700  0.38936900  1
  C  204  1  0.62462600  0.35141300  0.39794300  1
  C  205  1  0.58495100  0.32119900  0.38585700  1
  C  206  1  0.61568300  0.30692600  0.38983100  1
  C  207  1  0.65205500  0.31430400  0.39738800  1
  C  208  1  0.65531500  0.33646500  0.40209800  1
  C  209  1  0.59995200  0.41267100  0.39653400  1
  C  210  1  0.56998100  0.42664200  0.38968700  1
  C  211  1  0.53599400  0.41746700  0.38107000  1
  C  212  1  0.53191400  0.39512000  0.37947000  1
  C  225  1  0.62985300  0.37531500  0.40143400  1
  C  226  1  0.55638200  0.35774300  0.38345900  1
  C  229  1  0.70353000  0.39182700  0.42012000  1
  C  236  1  0.13425600  0.13438900  0.61570100  1
  C  237  1  0.16978100  0.12661000  0.60716100  1
  C  238  1  0.19864300  0.12331700  0.64458100  1
  C  239  1  0.16383900  0.13125500  0.65380900  1
  C  240  1  0.16145400  0.13280000  0.67661300  1
  C  241  1  0.19224900  0.12625900  0.69018000  1
  C  242  1  0.22628800  0.11826500  0.68050700  1
  C  243  1  0.22963200  0.11702600  0.65808900  1
  C  244  1  0.17315500  0.12314600  0.58483800  1
  C  245  1  0.14146100  0.12651900  0.57103500  1
  C  246  1  0.10545100  0.13397500  0.57894000  1
  C  247  1  0.10256300  0.13791000  0.60125200  1
  C  248  1  0.09679600  0.12301700  0.64643300  1
  C  249  1  0.06207900  0.13173500  0.65504100  1
  C  250  1  0.08927500  0.16949200  0.65174100  1
  C  251  1  0.12463800  0.16152300  0.64318000  1
  C  252  1  0.08495400  0.19174000  0.65524800  1
  C  253  1  0.11569400  0.20600900  0.65128500  1
  C  254  1  0.15207100  0.19863200  0.64373300  1
  C  255  1  0.15533000  0.17646900  0.63902800  1
  C  256  1  0.09996000  0.10026600  0.64458900  1
  C  257  1  0.06998400  0.08629600  0.65143300  1
  C  258  1  0.03599100  0.09547200  0.66004000  1
  C  259  1  0.03191200  0.11782000  0.66163700  1
  C  272  1  0.12986600  0.13762000  0.63968800  1
  C  273  1  0.05638200  0.15519500  0.65764500  1
  C  276  1  0.20355600  0.12111500  0.62101100  1
  C  283  1  0.38560300  0.66180200  0.89846500  1
  C  284  1  0.42126800  0.67042300  0.89099000  1
  C  285  1  0.45030800  0.63300700  0.88760900  1
  C  286  1  0.41530000  0.62370700  0.89516500  1
  C  287  1  0.41286800  0.60089200  0.89655300  1
  C  288  1  0.44386000  0.58734900  0.89024600  1
  C  289  1  0.47811500  0.59709100  0.88260700  1
  C  290  1  0.48147100  0.61952600  0.88151100  1
  C  291  1  0.42458000  0.69278000  0.88771200  1
  C  292  1  0.39273700  0.70652400  0.89096600  1
  C  293  1  0.35656500  0.69852100  0.89808600  1
  C  294  1  0.35375900  0.67618200  0.90189000  1
  C  295  1  0.34854100  0.63121600  0.88646800  1
  C  296  1  0.31348100  0.62272300  0.89484700  1
  C  297  1  0.33997000  0.62534700  0.93284900  1
  C  298  1  0.37547300  0.63403700  0.92523100  1
  C  299  1  0.33529400  0.62148200  0.95502000  1
  C  300  1  0.36577900  0.62524400  0.96952600  1
  C  301  1  0.40225000  0.63299500  0.96248900  1
  C  302  1  0.40587100  0.63800200  0.94040900  1
  C  303  1  0.35222900  0.63338300  0.86376300  1
  C  304  1  0.32266300  0.62689700  0.84942200  1
  C  305  1  0.28774900  0.61893800  0.85834400  1
  C  306  1  0.28328200  0.61684900  0.88063700  1
  C  319  1  0.38121400  0.63778100  0.90140700  1
  C  320  1  0.30730100  0.61977100  0.91824500  1
  C  323  1  0.45521100  0.65661400  0.88564100  1
  C  330  1  0.88560600  0.85113500  0.14265100  1
  C  331  1  0.92127100  0.84251200  0.15012000  1
  C  332  1  0.95031400  0.87992900  0.15350900  1
  C  333  1  0.91530600  0.88922800  0.14595200  1
  C  334  1  0.91287700  0.91204500  0.14456300  1
  C  335  1  0.94386000  0.92558700  0.15088700  1
  C  336  1  0.97811800  0.91584500  0.15851800  1
  C  337  1  0.98147400  0.89340900  0.15960900  1
  C  338  1  0.92458100  0.82015500  0.15340400  1
  C  339  1  0.89273100  0.80641300  0.15015100  1
  C  340  1  0.85656300  0.81441800  0.14303100  1
  C  341  1  0.85375900  0.83675700  0.13922900  1
  C  342  1  0.84855000  0.88172300  0.15465200  1
  C  343  1  0.81348700  0.89021700  0.14627500  1
  C  344  1  0.83997300  0.88759300  0.10827100  1
  C  345  1  0.87547300  0.87890100  0.11588700  1
  C  346  1  0.83529400  0.89146000  0.08610100  1
  C  347  1  0.86577600  0.88769600  0.07159200  1
  C  348  1  0.90224400  0.87994200  0.07862800  1
  C  349  1  0.90587100  0.87493500  0.10070700  1
  C  350  1  0.85223800  0.87955200  0.17735500  1
  C  351  1  0.82267700  0.88604500  0.19170000  1
  C  352  1  0.78776500  0.89400700  0.18277800  1
  C  353  1  0.78329200  0.89609300  0.16048600  1
  C  366  1  0.88122000  0.87515800  0.13971000  1
  C  367  1  0.80730700  0.89317000  0.12287700  1
  C  370  1  0.95521400  0.85632000  0.15547700  1
  C  377  1  0.13939700  0.87853400  0.61516400  1
  C  378  1  0.17494000  0.88675300  0.60709200  1
  C  379  1  0.20233300  0.89018100  0.64483400  1
  C  380  1  0.16738400  0.88197900  0.65365200  1
  C  381  1  0.16418500  0.88035200  0.67642000  1
  C  382  1  0.19439200  0.88699400  0.69033900  1
  C  383  1  0.22861400  0.89522200  0.68106600  1
  C  384  1  0.23271000  0.89660100  0.65869700  1
  C  385  1  0.17921200  0.89004100  0.58480400  1
  C  386  1  0.14828200  0.88621000  0.57060700  1
  C  387  1  0.11176400  0.87896400  0.57808600  1
  C  388  1  0.10853200  0.87447700  0.60029500  1
  C  389  1  0.10060500  0.88983900  0.64529300  1
  C  390  1  0.06540700  0.88101200  0.65313200  1
  C  391  1  0.09335700  0.84331000  0.65048400  1
  C  392  1  0.12908700  0.85148000  0.64260400  1
  C  393  1  0.08950700  0.82105500  0.65424800  1
  C  394  1  0.12090000  0.80698700  0.65103700  1
  C  395  1  0.15706100  0.81456400  0.64346100  1
  C  396  1  0.16043400  0.83678700  0.63923800  1
  C  397  1  0.10367100  0.91258600  0.64340900  1
  C  398  1  0.07338000  0.92656600  0.64960500  1
  C  399  1  0.03839700  0.91724300  0.65699100  1
  C  400  1  0.03450300  0.89487600  0.65872200  1
  C  413  1  0.13414600  0.87536900  0.63910800  1
  C  414  1  0.05986900  0.85750400  0.65567300  1
  C  417  1  0.20802900  0.89251600  0.62133100  1
  C  424  1  0.63940700  0.63440100  0.42596000  1
  C  425  1  0.67494700  0.62617900  0.43403000  1
  C  426  1  0.70233800  0.62275000  0.39628800  1
  C  427  1  0.66739100  0.63095300  0.38747100  1
  C  428  1  0.66418900  0.63257900  0.36470200  1
  C  429  1  0.69439200  0.62593400  0.35078400  1
  C  430  1  0.72861500  0.61770300  0.36005700  1
  C  431  1  0.73271300  0.61632500  0.38242600  1
  C  432  1  0.67921900  0.62288800  0.45631800  1
  C  433  1  0.64829200  0.62672100  0.47051600  1
  C  434  1  0.61177700  0.63397300  0.46303700  1
  C  435  1  0.60854300  0.63846200  0.44082900  1
  C  436  1  0.60061200  0.62309600  0.39583300  1
  C  437  1  0.56540900  0.63192600  0.38800000  1
  C  438  1  0.59336700  0.66962600  0.39063900  1
  C  439  1  0.62910000  0.66145500  0.39851700  1
  C  440  1  0.58951400  0.69188400  0.38688600  1
  C  441  1  0.62091000  0.70595100  0.39008600  1
  C  442  1  0.65708400  0.69836200  0.39762700  1
  C  443  1  0.66045200  0.67614600  0.40188200  1
  C  444  1  0.60367500  0.60035000  0.39771700  1
  C  445  1  0.57337500  0.58637100  0.39152900  1
  C  446  1  0.53839600  0.59569600  0.38414200  1
  C  447  1  0.53450200  0.61806300  0.38241400  1
  C  460  1  0.63415400  0.63756600  0.40201500  1
  C  461  1  0.55987200  0.65543300  0.38546300  1
  C  464  1  0.70803500  0.62041300  0.41979200  1
  C  471  1  0.88858400  0.16149900  0.14244500  1
  C  472  1  0.92426400  0.16921800  0.15080400  1
  C  473  1  0.95092500  0.13121900  0.15357300  1
  C  474  1  0.91564300  0.12274700  0.14547100  1
  C  475  1  0.91190000  0.10002300  0.14352300  1
  C  476  1  0.94167300  0.08572300  0.14981900  1
  C  477  1  0.97678300  0.09473200  0.15742100  1
  C  478  1  0.98128500  0.11705100  0.15929800  1
  C  479  1  0.92889700  0.19143200  0.15445300  1
  C  480  1  0.89822800  0.20586800  0.15080800  1
  C  481  1  0.86161200  0.19872800  0.14336200  1
  C  482  1  0.85802300  0.17660300  0.13855200  1
  C  483  1  0.84916700  0.13156400  0.15345900  1
  C  484  1  0.81379500  0.12406700  0.14456200  1
  C  485  1  0.84190200  0.12682200  0.10685500  1
  C  486  1  0.87775900  0.13442400  0.11510700  1
  C  487  1  0.83811500  0.12324600  0.08456100  1
  C  488  1  0.86965300  0.12635400  0.07055300  1
  C  489  1  0.90597000  0.13360700  0.07823100  1
  C  490  1  0.90925100  0.13771000  0.10048200  1
  C  491  1  0.85228400  0.13330400  0.17621500  1
  C  492  1  0.82182500  0.12732400  0.19017800  1
  C  493  1  0.78668600  0.12022900  0.18079700  1
  C  494  1  0.78276600  0.11863300  0.15841100  1
  C  507  1  0.88281400  0.13763100  0.13903100  1
  C  508  1  0.80826900  0.12174500  0.12101500  1
  C  511  1  0.95711600  0.15466400  0.15625200  1
  C  518  1  0.38858100  0.35143800  0.89867200  1
  C  519  1  0.42425800  0.34371900  0.89030400  1
  C  520  1  0.45092100  0.38171600  0.88753900  1
  C  521  1  0.41564600  0.39018900  0.89565000  1
  C  522  1  0.41190900  0.41291300  0.89760500  1
  C  523  1  0.44167600  0.42721200  0.89130400  1
  C  524  1  0.47678000  0.41820500  0.88369300  1
  C  525  1  0.48127900  0.39588600  0.88181100  1
  C  526  1  0.42889100  0.32150500  0.88665700  1
  C  527  1  0.39821900  0.30706900  0.89029400  1
  C  528  1  0.36160300  0.31420800  0.89774900  1
  C  529  1  0.35801400  0.33633400  0.90255000  1
  C  530  1  0.34916900  0.38137800  0.88766700  1
  C  531  1  0.31380100  0.38887700  0.89656600  1
  C  532  1  0.34191600  0.38611000  0.93427100  1
  C  533  1  0.37776700  0.37850500  0.92601500  1
  C  534  1  0.33812900  0.38967700  0.95656700  1
  C  535  1  0.36968200  0.38658000  0.97056800  1
  C  536  1  0.40599000  0.37931200  0.96289000  1
  C  537  1  0.40926200  0.37521600  0.94063700  1
  C  538  1  0.35228100  0.37964000  0.86490900  1
  C  539  1  0.32182500  0.38562800  0.85094900  1
  C  540  1  0.28668600  0.39272200  0.86033400  1
  C  541  1  0.28277200  0.39431800  0.88272000  1
  C  554  1  0.38281600  0.37530500  0.90209000  1
  C  555  1  0.30828100  0.39119700  0.92011400  1
  C  558  1  0.45710500  0.35827200  0.88485300  1
  C  565  1  0.37731100  0.63464000  0.61500700  1
  C  566  1  0.34161900  0.62718900  0.60639700  1
  C  567  1  0.31266400  0.62380000  0.64381800  1
  C  568  1  0.34770400  0.63134900  0.65309000  1
  C  569  1  0.35021100  0.63271200  0.67589800  1
  C  570  1  0.31926000  0.62639400  0.68945500  1
  C  571  1  0.28497800  0.61875000  0.67975200  1
  C  572  1  0.28154200  0.61768600  0.65731900  1
  C  573  1  0.33826300  0.62392000  0.58404000  1
  C  574  1  0.37007500  0.62719700  0.57028200  1
  C  575  1  0.40625800  0.63429600  0.57828800  1
  C  576  1  0.40912500  0.63806600  0.60062100  1
  C  577  1  0.41446500  0.62263600  0.64556500  1
  C  578  1  0.44956000  0.63099300  0.65404300  1
  C  579  1  0.42314400  0.66899600  0.65142000  1
  C  580  1  0.38761200  0.66139000  0.64275500  1
  C  581  1  0.42787300  0.69116600  0.65527400  1
  C  582  1  0.39740500  0.70568400  0.65151900  1
  C  583  1  0.36092200  0.69864300  0.64378900  1
  C  584  1  0.35724600  0.67657400  0.63878100  1
  C  585  1  0.41070800  0.59993900  0.64342200  1
  C  586  1  0.44023900  0.58559200  0.64992600  1
  C  587  1  0.47519200  0.59448100  0.65786600  1
  C  588  1  0.47973200  0.61677000  0.65992000  1
  C  601  1  0.38178700  0.63757700  0.63901700  1
  C  602  1  0.45579900  0.65438400  0.65698400  1
  C  605  1  0.30769900  0.62183500  0.62021700  1
  C  612  1  0.87729100  0.87830000  0.42611700  1
  C  613  1  0.84159600  0.88575000  0.43472500  1
  C  614  1  0.81265200  0.88913900  0.39730200  1
  C  615  1  0.84769500  0.88159100  0.38803100  1
  C  616  1  0.85020800  0.88022500  0.36522300  1
  C  617  1  0.81926300  0.88654800  0.35166400  1
  C  618  1  0.78497600  0.89419000  0.36136600  1
  C  619  1  0.78153300  0.89525300  0.38379700  1
  C  620  1  0.83822000  0.88900200  0.45708300  1
  C  621  1  0.87004900  0.88575600  0.47083800  1
  C  622  1  0.90622000  0.87862700  0.46284500  1
  C  623  1  0.90909900  0.87487100  0.44050700  1
  C  624  1  0.91445700  0.89030200  0.39556400  1
  C  625  1  0.94955500  0.88194400  0.38709000  1
  C  626  1  0.92313800  0.84394100  0.38971300  1
  C  627  1  0.88760100  0.85155000  0.39837100  1
  C  628  1  0.92786700  0.82177100  0.38586300  1
  C  629  1  0.89739000  0.80725700  0.38961200  1
  C  630  1  0.86091100  0.81429700  0.39733700  1
  C  631  1  0.85723200  0.83636600  0.40234300  1
  C  632  1  0.91070200  0.91299900  0.39770600  1
  C  633  1  0.94024200  0.92734500  0.39121100  1
  C  634  1  0.97519200  0.91845600  0.38327000  1
  C  635  1  0.97972900  0.89616700  0.38121400  1
  C  648  1  0.88177500  0.87536300  0.40210800  1
  C  649  1  0.95579600  0.85855300  0.38415100  1
  C  652  1  0.80767900  0.89109900  0.42090100  1
  C  659  1  0.62808700  0.35130000  0.14226400  1
  C  660  1  0.59221900  0.34303500  0.14983100  1
  C  661  1  0.56406000  0.38073500  0.15262200  1
  C  662  1  0.59943400  0.38966600  0.14516600  1
  C  663  1  0.60250300  0.41243700  0.14348200  1
  C  664  1  0.57199700  0.42637700  0.14947400  1
  C  665  1  0.53685800  0.41694500  0.15650100  1
  C  666  1  0.53298700  0.39455400  0.15805400  1
  C  667  1  0.58843200  0.32073900  0.15339000  1
  C  668  1  0.61998200  0.30673600  0.15029500  1
  C  669  1  0.65631900  0.31441000  0.14306200  1
  C  670  1  0.65959400  0.33667200  0.13898600  1
  C  671  1  0.66591100  0.38167100  0.15397100  1
  C  672  1  0.70119200  0.38980900  0.14553100  1
  C  673  1  0.67457200  0.38708000  0.10752900  1
  C  674  1  0.63890900  0.37869000  0.11523700  1
  C  675  1  0.67919000  0.39077100  0.08532100  1
  C  676  1  0.64852200  0.38713200  0.07088400  1
  C  677  1  0.61193700  0.37963900  0.07802500  1
  C  678  1  0.60835100  0.37480400  0.10013700  1
  C  679  1  0.66212100  0.37967400  0.17668200  1
  C  680  1  0.69184200  0.38597100  0.19099900  1
  C  681  1  0.72696000  0.39361800  0.18204100  1
  C  682  1  0.73151200  0.39553300  0.15972800  1
  C  695  1  0.63310100  0.37524000  0.13908800  1
  C  696  1  0.70740400  0.39253100  0.12209400  1
  C  699  1  0.55855700  0.35718100  0.15489700  1
  C  706  1  0.12808600  0.16163700  0.89886600  1
  C  707  1  0.09221900  0.16990200  0.89129500  1
  C  708  1  0.06406000  0.13220200  0.88850200  1
  C  709  1  0.09943000  0.12327200  0.89596500  1
  C  710  1  0.10249200  0.10050100  0.89765400  1
  C  711  1  0.07199000  0.08656000  0.89166000  1
  C  712  1  0.03685800  0.09599300  0.88461800  1
  C  713  1  0.03299000  0.11838400  0.88306400  1
  C  714  1  0.08843300  0.19220000  0.88774400  1
  C  715  1  0.11999200  0.20620000  0.89082800  1
  C  716  1  0.15632300  0.19852600  0.89806600  1
  C  717  1  0.15959200  0.17626300  0.90214800  1
  C  718  1  0.16590600  0.13126500  0.88715900  1
  C  719  1  0.20118600  0.12312500  0.89559900  1
  C  720  1  0.17456800  0.12585400  0.93360100  1
  C  721  1  0.13890400  0.13424700  0.92589300  1
  C  722  1  0.17918700  0.12216400  0.95580900  1
  C  723  1  0.14851900  0.12580500  0.97024600  1
  C  724  1  0.11193500  0.13330000  0.96310600  1
  C  725  1  0.10834900  0.13813500  0.94099400  1
  C  726  1  0.16211800  0.13326500  0.86444900  1
  C  727  1  0.19183300  0.12696200  0.85013000  1
  C  728  1  0.22694900  0.11931100  0.85908800  1
  C  729  1  0.23150300  0.11739900  0.88140200  1
  C  742  1  0.13309900  0.13769600  0.90204400  1
  C  743  1  0.20739800  0.12040100  0.91903500  1
  C  746  1  0.05856200  0.15575700  0.88622400  1
  C  753  1  0.78698900  0.24283200  0.40305800  1
  C  755  1  0.73514700  0.25351400  0.37931800  1
  C  756  1  0.72360700  0.27038200  0.39336100  1
  C  758  1  0.77550900  0.25960300  0.41715100  1
  C  759  1  0.79273900  0.26363900  0.43527800  1
  C  760  1  0.71895100  0.24939100  0.36090100  1
  C  763  1  0.82059500  0.23042000  0.40545000  1
  C  765  1  0.69207100  0.28410800  0.38929700  1
  C  767  1  0.28698200  0.27011600  0.63805500  1
  C  769  1  0.23521900  0.25938900  0.66182700  1
  C  770  1  0.22363100  0.24254700  0.64776300  1
  C  772  1  0.27545500  0.25337100  0.62394300  1
  C  773  1  0.29262500  0.24937200  0.60579100  1
  C  774  1  0.21907000  0.26348400  0.68026200  1
  C  777  1  0.32057700  0.28253500  0.63564500  1
  C  779  1  0.19208200  0.22883100  0.65182200  1
  C  781  1  0.03721700  0.87457800  0.00701800  1
  C  783  1  0.98442000  0.89786900  0.01728900  1
  C  784  1  0.97334500  0.88397200  0.03437600  1
  C  786  1  0.02620200  0.86062600  0.02400200  1
  C  787  1  0.04409300  0.84276500  0.02833200  1
  C  788  1  0.96757500  0.91604000  0.01288200  1
  C  791  1  0.07092200  0.87234400  0.99462800  1
  C  793  1  0.94167300  0.88792700  0.04806500  1
  C  795  1  0.53721000  0.63836100  0.03410300  1
  C  797  1  0.48449000  0.61503600  0.02378900  1
  C  798  1  0.47336500  0.62895700  0.00673100  1
  C  800  1  0.52615200  0.65233400  0.01714400  1
  C  801  1  0.54398000  0.67022100  0.01285100  1
  C  802  1  0.46767900  0.59685000  0.02817400  1
  C  805  1  0.57090600  0.64060100  0.04650000  1
  C  807  1  0.44168500  0.62500700  0.99304700  1
  C  809  1  0.22563100  0.76990900  0.63842500  1
  C  811  1  0.27852400  0.75983700  0.66172800  1
  C  812  1  0.28972000  0.74276000  0.64785300  1
  C  814  1  0.23677200  0.75293400  0.62449600  1
  C  815  1  0.21892200  0.74852500  0.60664200  1
  C  816  1  0.29537600  0.76433500  0.67987500  1
  C  819  1  0.19188800  0.78223400  0.63614900  1
  C  821  1  0.32145900  0.72914800  0.65182400  1
  C  823  1  0.72563100  0.74302300  0.40270400  1
  C  825  1  0.77849300  0.75311500  0.37938800  1
  C  826  1  0.78970500  0.77018100  0.39327100  1
  C  828  1  0.73678200  0.75999100  0.41663800  1
  C  829  1  0.71894800  0.76438800  0.43450200  1
  C  830  1  0.79534200  0.74862100  0.36124000  1
  C  833  1  0.69189700  0.73069100  0.40499000  1
  C  835  1  0.82144700  0.78379200  0.38930400  1
  C  837  1  0.97531700  0.13849700  0.03379000  1
  C  839  1  0.02892900  0.11548000  0.02418300  1
  C  840  1  0.04020800  0.12930900  0.00708100  1
  C  842  1  0.98652900  0.15237700  0.01678400  1
  C  843  1  0.96841300  0.17009300  0.01215400  1
  C  844  1  0.04604400  0.09746000  0.02887800  1
  C  847  1  0.94127700  0.14067500  0.04592200  1
  C  849  1  0.07238400  0.12547000  0.99371400  1
  C  851  1  0.47533400  0.37443500  0.00733400  1
  C  853  1  0.52887100  0.39748800  0.01698500  1
  C  854  1  0.54019700  0.38363500  0.03405800  1
  C  856  1  0.48658700  0.36053600  0.02431500  1
  C  857  1  0.46853200  0.34279100  0.02890800  1
  C  858  1  0.54594900  0.41552400  0.01231200  1
  C  861  1  0.44130400  0.37225100  0.99519700  1
  C  863  1  0.57238300  0.38747000  0.04741800  1
  C  865  1  0.28710900  0.74290300  0.90331500  1
  C  867  1  0.23468000  0.75336800  0.87984100  1
  C  868  1  0.22321700  0.77027900  0.89386300  1
  C  870  1  0.27571800  0.75972600  0.91738100  1
  C  871  1  0.29324200  0.76389400  0.93539100  1
  C  872  1  0.21817600  0.74912800  0.86153500  1
  C  875  1  0.32092100  0.73058800  0.90560700  1
  C  877  1  0.19136300  0.78386600  0.88993500  1
  C  879  1  0.78711100  0.77003900  0.13780000  1
  C  881  1  0.73478100  0.75952200  0.16131800  1
  C  882  1  0.72325800  0.74264500  0.14727200  1
  C  884  1  0.77565800  0.75324800  0.12371000  1
  C  885  1  0.79310200  0.74912300  0.10566700  1
  C  886  1  0.71834000  0.76372900  0.17964800  1
  C  889  1  0.82090900  0.78236200  0.13548500  1
  C  891  1  0.69138500  0.72906800  0.15119600  1
  C  893  1  0.53675900  0.37354500  0.50678000  1
  C  895  1  0.48525500  0.39736600  0.51779000  1
  C  896  1  0.47377000  0.38326600  0.53462700  1
  C  898  1  0.52533800  0.35939800  0.52351900  1
  C  899  1  0.54246200  0.34120600  0.52739400  1
  C  900  1  0.46920600  0.41585900  0.51384000  1
  C  903  1  0.57025500  0.37115200  0.49425800  1
  C  905  1  0.44234200  0.38732100  0.54844400  1
  C  907  1  0.03677600  0.13938100  0.53434500  1
  C  909  1  0.98525200  0.11557100  0.52334100  1
  C  910  1  0.97377600  0.12967100  0.50650400  1
  C  912  1  0.02537000  0.15352700  0.51760000  1
  C  913  1  0.04250800  0.17171400  0.51372100  1
  C  914  1  0.96916600  0.09709100  0.52730700  1
  C  917  1  0.07028200  0.14176000  0.54686000  1
  C  919  1  0.94233900  0.12562300  0.49268800  1
  C  921  1  0.72549100  0.26982900  0.13817400  1
  C  923  1  0.77899900  0.26000000  0.16118300  1
  C  924  1  0.79010400  0.24286900  0.14734300  1
  C  926  1  0.73652900  0.25278800  0.12428500  1
  C  927  1  0.71836000  0.24822900  0.10656600  1
  C  928  1  0.79618200  0.26463500  0.17920000  1
  C  931  1  0.69153600  0.28205100  0.13600600  1
  C  933  1  0.82216800  0.22940200  0.15117100  1
  C  935  1  0.22548900  0.24310700  0.90295400  1
  C  937  1  0.27897500  0.25294200  0.87993200  1
  C  938  1  0.29009200  0.27006900  0.89377300  1
  C  940  1  0.23653300  0.26014600  0.91684200  1
  C  941  1  0.21837800  0.26470500  0.93456400  1
  C  942  1  0.29615600  0.24830200  0.86191600  1
  C  945  1  0.19154300  0.23088000  0.90513600  1
  C  947  1  0.32215700  0.28353700  0.88994200  1
  C  949  1  0.47576500  0.63953000  0.53401500  1
  C  951  1  0.52815900  0.61597800  0.52370700  1
  C  952  1  0.53982400  0.62999900  0.50684200  1
  C  954  1  0.48736000  0.65359500  0.51724100  1
  C  955  1  0.46996500  0.67163700  0.51304100  1
  C  956  1  0.54452100  0.59764100  0.52796800  1
  C  959  1  0.44192900  0.64187300  0.54627500  1
  C  961  1  0.57175200  0.62604600  0.49334100  1
  C  963  1  0.97575300  0.87341400  0.50710700  1
  C  965  1  0.02812000  0.89697500  0.51743500  1
  C  966  1  0.03980500  0.88294300  0.53428600  1
  C  968  1  0.98736300  0.85933800  0.52386700  1
  C  969  1  0.96999500  0.84128600  0.52805000  1
  C  970  1  0.04448300  0.91531400  0.51317900  1
  C  973  1  0.94190900  0.87108000  0.49485200  1
  C  975  1  0.07174800  0.88688600  0.54777700  1
  C  977  1  0.83672800  0.13133900  0.29239600  1
  C  979  1  0.80529100  0.10928300  0.26574300  1
  C  980  1  0.81998700  0.12225200  0.24882200  1
  C  982  1  0.85168500  0.14423900  0.27551500  1
  C  983  1  0.87329400  0.16110100  0.27849400  1
  C  984  1  0.78349900  0.09241200  0.26315300  1
  C  987  1  0.84363800  0.13455200  0.31426400  1
  C  989  1  0.81175300  0.11866100  0.22713500  1
  C  991  1  0.33671600  0.38160600  0.74873200  1
  C  993  1  0.30526200  0.40365500  0.77538400  1
  C  994  1  0.31996900  0.39069400  0.79230600  1
  C  996  1  0.35168200  0.36870900  0.76561400  1
  C  997  1  0.37331500  0.35185800  0.76263700  1
  C  998  1  0.28344900  0.42051900  0.77797100  1
  C  1001  1  0.34363200  0.37839300  0.72686400  1
  C  1003  1  0.31173900  0.39428600  0.81399300  1
  C  1005  1  0.08550600  0.98417700  0.89535100  1
  C  1007  1  0.05462400  0.01108300  0.87335800  1
  C  1008  1  0.06958400  0.02789300  0.88638800  1
  C  1010  1  0.10070700  0.00094700  0.90832000  1
  C  1011  1  0.12222000  0.99780500  0.92518900  1
  C  1012  1  0.03293800  0.01384300  0.85647400  1
  C  1015  1  0.09211400  0.96226000  0.89848900  1
  C  1017  1  0.06172400  0.04964500  0.88285900  1
  C  1019  1  0.58548900  0.52876100  0.14576800  1
  C  1021  1  0.55465700  0.50185500  0.16778100  1
  C  1022  1  0.56958900  0.48504500  0.15474100  1
  C  1024  1  0.60066400  0.51199300  0.13279000  1
  C  1025  1  0.62211400  0.51513700  0.11589700  1
  C  1026  1  0.53300400  0.49909300  0.18467800  1
  C  1029  1  0.59208500  0.55067900  0.14262500  1
  C  1031  1  0.56171900  0.46329400  0.15826400  1
  C  1033  1  0.67622400  0.38158800  0.29318600  1
  C  1035  1  0.70641300  0.40421600  0.26658900  1
  C  1036  1  0.69222000  0.39112200  0.24963000  1
  C  1038  1  0.66180700  0.36854200  0.27627300  1
  C  1039  1  0.64103500  0.35135700  0.27921300  1
  C  1040  1  0.72741700  0.42139600  0.26404800  1
  C  1043  1  0.66944700  0.37821000  0.31503500  1
  C  1045  1  0.70004600  0.39497200  0.22794100  1
  C  1047  1  0.17620800  0.13134000  0.74794300  1
  C  1049  1  0.20641200  0.10871900  0.77454000  1
  C  1050  1  0.19220600  0.12181000  0.79150000  1
  C  1052  1  0.16178300  0.14438400  0.76485800  1
  C  1053  1  0.14098600  0.16156100  0.76191700  1
  C  1054  1  0.22743100  0.09154500  0.77708100  1
  C  1057  1  0.16942700  0.13471600  0.72609400  1
  C  1059  1  0.20003200  0.11795900  0.81318800  1
  C  1061  1  0.42740400  0.52956900  0.89538600  1
  C  1063  1  0.45705200  0.50273000  0.87282200  1
  C  1064  1  0.44261200  0.48587700  0.88598000  1
  C  1066  1  0.41275800  0.51276400  0.90850100  1
  C  1067  1  0.39207900  0.51586000  0.92569400  1
  C  1068  1  0.47794300  0.50002400  0.85562700  1
  C  1071  1  0.42091300  0.55146800  0.89868700  1
  C  1073  1  0.45009000  0.46412700  0.88219500  1
  C  1075  1  0.92741000  0.98336600  0.14573800  1
  C  1077  1  0.95701800  0.01020700  0.16831400  1
  C  1078  1  0.94260700  0.02705900  0.15514500  1
  C  1080  1  0.91278700  0.00017000  0.13261300  1
  C  1081  1  0.89216700  0.99707100  0.11539900  1
  C  1082  1  0.97787900  0.01291500  0.18552000  1
  C  1085  1  0.92092500  0.96146800  0.14243500  1
  C  1087  1  0.95010400  0.04880800  0.15892100  1
  C  1089  1  0.17679100  0.88167100  0.74794500  1
  C  1091  1  0.20686400  0.90403000  0.77481600  1
  C  1092  1  0.19197600  0.89099500  0.79163700  1
  C  1094  1  0.16167200  0.86869300  0.76472300  1
  C  1095  1  0.14057200  0.85166100  0.76160000  1
  C  1096  1  0.22818600  0.92106000  0.77754900  1
  C  1099  1  0.17050600  0.87838000  0.72603500  1
  C  1101  1  0.19939900  0.89472700  0.81339000  1
  C  1103  1  0.67679700  0.63125900  0.29317800  1
  C  1105  1  0.70686000  0.60889600  0.26630800  1
  C  1106  1  0.69197800  0.62193100  0.24948500  1
  C  1108  1  0.66169100  0.64424300  0.27639800  1
  C  1109  1  0.64059300  0.66127400  0.27952100  1
  C  1110  1  0.72817600  0.59186500  0.26357500  1
  C  1113  1  0.67051200  0.63454900  0.31508800  1
  C  1115  1  0.69940300  0.61819900  0.22773400  1
  C  1117  1  0.33626200  0.63138100  0.74715000  1
  C  1119  1  0.30748700  0.60845700  0.77396000  1
  C  1120  1  0.32186900  0.62162000  0.79082000  1
  C  1122  1  0.35083300  0.64450900  0.76396100  1
  C  1123  1  0.37108700  0.66185800  0.76088000  1
  C  1124  1  0.28698000  0.59111700  0.77664500  1
  C  1127  1  0.34240500  0.63483100  0.72525800  1
  C  1129  1  0.31485100  0.61764100  0.81256800  1
  C  1131  1  0.83627700  0.88155900  0.29397200  1
  C  1133  1  0.80757100  0.90450900  0.26716100  1
  C  1134  1  0.82190700  0.89132800  0.25030100  1
  C  1136  1  0.85080700  0.86841700  0.27716100  1
  C  1137  1  0.87097700  0.85103900  0.28024400  1
  C  1138  1  0.78712000  0.92186800  0.26447300  1
  C  1141  1  0.84240500  0.87810300  0.31586400  1
  C  1143  1  0.81487400  0.89530300  0.22855400  1
  C  1145  1  0.58725700  0.48419000  0.39533500  1
  C  1147  1  0.55698100  0.51099400  0.37298900  1
  C  1148  1  0.57159000  0.52782700  0.38609700  1
  C  1150  1  0.60210700  0.50097900  0.40838700  1
  C  1151  1  0.62314600  0.49788400  0.42544600  1
  C  1152  1  0.53571500  0.51369400  0.35593000  1
  C  1155  1  0.59371300  0.46230100  0.39858600  1
  C  1157  1  0.56394900  0.54954900  0.38241200  1
  C  1159  1  0.08726100  0.02874600  0.64579100  1
  C  1161  1  0.05697100  0.00194300  0.66813600  1
  C  1162  1  0.07159400  0.98511200  0.65503000  1
  C  1164  1  0.10211800  0.01195600  0.63274400  1
  C  1165  1  0.12317800  0.01505000  0.61569200  1
  C  1166  1  0.03569300  0.99924600  0.68518800  1
  C  1169  1  0.09372100  0.05063600  0.64254200  1
  C  1171  1  0.06396000  0.96338800  0.65872100  1
  C  1173  1  0.92565100  0.02949600  0.39536500  1
  C  1175  1  0.95458900  0.00273500  0.37245300  1
  C  1176  1  0.94049500  0.98587300  0.38570300  1
  C  1178  1  0.91135600  0.01268200  0.40857500  1
  C  1179  1  0.89119000  0.01574700  0.42595900  1
  C  1180  1  0.97501700  0.00007000  0.35508200  1
  C  1183  1  0.91935700  0.05137000  0.39877300  1
  C  1185  1  0.94772200  0.96415000  0.38178000  1
  C  1187  1  0.42565900  0.48344100  0.64575600  1
  C  1189  1  0.45453900  0.51020200  0.66869000  1
  C  1190  1  0.44048300  0.52706400  0.65542900  1
  C  1192  1  0.41139400  0.50025500  0.63253700  1
  C  1193  1  0.39129700  0.49719000  0.61513000  1
  C  1194  1  0.47492700  0.51286800  0.68607600  1
  C  1197  1  0.41937200  0.46156700  0.64234500  1
  C  1199  1  0.44771900  0.54878700  0.65935100  1
  N  44  1  0.82421300  0.21107800  0.39827600  1
  N  45  1  0.93290100  0.13662500  0.47585600  1
  N  46  1  0.82160700  0.12607700  0.32865300  1
  N  47  1  0.94112300  0.06571100  0.39000100  1
  N  91  1  0.32419200  0.30186700  0.64284300  1
  N  92  1  0.43289300  0.37631400  0.56527200  1
  N  93  1  0.32160100  0.38686900  0.71247400  1
  N  94  1  0.44113200  0.44722600  0.65112000  1
  N  138  1  0.07423400  0.87906900  0.97510700  1
  N  139  1  0.18208500  0.80090500  0.90066500  1
  N  140  1  0.06996400  0.94792600  0.88999500  1
  N  141  1  0.18445800  0.88384500  0.82895500  1
  N  185  1  0.57422700  0.63386000  0.06601300  1
  N  186  1  0.68210700  0.71202600  0.14047300  1
  N  187  1  0.56994300  0.56501200  0.15112600  1
  N  188  1  0.68445700  0.62907700  0.21217000  1
  N  232  1  0.68254400  0.30090000  0.40032500  1
  N  233  1  0.57379400  0.37836100  0.47492100  1
  N  234  1  0.69122800  0.38674500  0.32951400  1
  N  235  1  0.57167400  0.44804200  0.38990300  1
  N  279  1  0.18256400  0.21203200  0.64079900  1
  N  280  1  0.07382500  0.13457400  0.56620500  1
  N  281  1  0.19121300  0.12618300  0.71161700  1
  N  282  1  0.07168000  0.06489600  0.65122300  1
  N  326  1  0.43260200  0.63581200  0.97603500  1
  N  327  1  0.32477700  0.71117600  0.89863700  1
  N  328  1  0.44281000  0.56589300  0.89013100  1
  N  329  1  0.32822900  0.62907600  0.82817700  1
  N  373  1  0.93259300  0.87712200  0.06507900  1
  N  374  1  0.82477400  0.80176600  0.14247800  1
  N  375  1  0.94281300  0.94704300  0.15099700  1
  N  376  1  0.82825300  0.88386900  0.21294400  1
  N  420  1  0.18852200  0.80173100  0.64291600  1
  N  421  1  0.08105300  0.87614100  0.56479300  1
  N  422  1  0.19269400  0.88693600  0.71175900  1
  N  423  1  0.07872900  0.94784000  0.64775500  1
  N  467  1  0.68854100  0.71120200  0.39820600  1
  N  468  1  0.58106800  0.63680100  0.47633200  1
  N  469  1  0.69269100  0.62598800  0.32936300  1
  N  470  1  0.57872700  0.56509700  0.39337400  1
  N  514  1  0.93759800  0.13412700  0.06548100  1
  N  515  1  0.83103900  0.21216800  0.14065600  1
  N  516  1  0.93597300  0.06445600  0.14781700  1
  N  517  1  0.82733400  0.12909400  0.21146000  1
  N  561  1  0.43761300  0.37881600  0.97564400  1
  N  562  1  0.33103300  0.30076700  0.90045800  1
  N  563  1  0.43598100  0.44847900  0.89331000  1
  N  564  1  0.32731900  0.38385300  0.82966600  1
  N  608  1  0.33056800  0.71216500  0.64099200  1
  N  609  1  0.43802600  0.63482800  0.56565000  1
  N  610  1  0.32049600  0.62618900  0.71089700  1
  N  611  1  0.43453900  0.56436600  0.64781800  1
  N  655  1  0.83055300  0.80077700  0.40013400  1
  N  656  1  0.93800000  0.87810900  0.47547200  1
  N  657  1  0.82050200  0.88675300  0.33022400  1
  N  658  1  0.93454200  0.94857200  0.39331500  1
  N  702  1  0.58133000  0.37694700  0.06462700  1
  N  703  1  0.68792700  0.30162200  0.14255100  1
  N  704  1  0.57734800  0.44769100  0.14773500  1
  N  705  1  0.68599900  0.38393000  0.21223400  1
  N  749  1  0.08133000  0.13599400  0.97650600  1
  N  750  1  0.18793400  0.21131200  0.89858200  1
  N  751  1  0.07734200  0.06524800  0.89339500  1
  N  752  1  0.18599100  0.12900200  0.82889500  1
  N  754  1  0.76600800  0.24096000  0.38467600  1
  N  757  1  0.74473300  0.27230900  0.41175000  1
  N  761  1  0.70464400  0.24585800  0.34464600  1
  N  762  1  0.80805100  0.26706500  0.45127300  1
  N  768  1  0.26605900  0.27195500  0.65646300  1
  N  771  1  0.24469300  0.24065700  0.62934800  1
  N  775  1  0.20480300  0.26699100  0.69653300  1
  N  776  1  0.30788500  0.24597900  0.58977200  1
  N  782  1  0.01553000  0.89268000  0.00484100  1
  N  785  1  0.99518400  0.86586900  0.03660400  1
  N  789  1  0.95269600  0.93208300  0.00909900  1
  N  790  1  0.05998700  0.82699900  0.03201500  1
  N  796  1  0.51558000  0.62023500  0.03624700  1
  N  799  1  0.49514600  0.64708700  0.00453700  1
  N  803  1  0.45283200  0.58079500  0.03193600  1
  N  804  1  0.55981600  0.68601200  0.00920000  1
  N  810  1  0.24731500  0.77219000  0.65651500  1
  N  813  1  0.26789500  0.74042900  0.62976000  1
  N  817  1  0.31025800  0.76819700  0.69589700  1
  N  818  1  0.20306500  0.74477100  0.59088200  1
  N  824  1  0.74729800  0.74075300  0.38460700  1
  N  827  1  0.76789800  0.77250000  0.41137400  1
  N  831  1  0.81022400  0.74476300  0.34521700  1
  N  832  1  0.70310600  0.76813000  0.45026800  1
  N  838  1  0.99734500  0.12056400  0.03631400  1
  N  841  1  0.01802900  0.14724000  0.00450600  1
  N  845  1  0.06116600  0.08154800  0.03291100  1
  N  846  1  0.95231500  0.18573100  0.00820800  1
  N  852  1  0.49730700  0.39239300  0.00484300  1
  N  855  1  0.51807900  0.36567700  0.03659900  1
  N  859  1  0.56104100  0.43144900  0.00830000  1
  N  860  1  0.45248900  0.32712600  0.03282200  1
  N  866  1  0.26576800  0.74090900  0.88506700  1
  N  869  1  0.24470900  0.77233000  0.91211300  1
  N  873  1  0.20359200  0.74549500  0.84537700  1
  N  874  1  0.30881900  0.76743400  0.95128500  1
  N  880  1  0.76584500  0.77199500  0.15607900  1
  N  883  1  0.74466600  0.74063600  0.12898900  1
  N  887  1  0.70381200  0.76733100  0.19582800  1
  N  888  1  0.80861000  0.74562000  0.08974400  1
  N  894  1  0.51593200  0.39200200  0.50509600  1
  N  897  1  0.49475100  0.36480700  0.53636500  1
  N  901  1  0.45502800  0.43218200  0.51045900  1
  N  902  1  0.55768200  0.32515400  0.53067700  1
  N  908  1  0.01593100  0.12093200  0.53603500  1
  N  911  1  0.99477400  0.14812500  0.50475800  1
  N  915  1  0.95495800  0.08078000  0.53070300  1
  N  916  1  0.05774100  0.18776100  0.51043500  1
  N  922  1  0.74755700  0.27225100  0.15610800  1
  N  925  1  0.76789200  0.24039400  0.12941000  1
  N  929  1  0.81136100  0.26861400  0.19511000  1
  N  930  1  0.70222200  0.24434400  0.09092500  1
  N  936  1  0.24754100  0.24068600  0.88501500  1
  N  939  1  0.26789300  0.27254300  0.91171000  1
  N  943  1  0.31133700  0.24432000  0.84600900  1
  N  944  1  0.20224800  0.26858600  0.95020900  1
  N  950  1  0.49698400  0.62124500  0.53607300  1
  N  953  1  0.51845400  0.64828400  0.50472900  1
  N  957  1  0.55898500  0.58145400  0.53162000  1
  N  958  1  0.45450500  0.68755700  0.50947300  1
  N  964  1  0.99695200  0.89170700  0.50506400  1
  N  967  1  0.01845900  0.86464600  0.53638100  1
  N  971  1  0.05894500  0.93150200  0.50953000  1
  N  972  1  0.95455400  0.82535400  0.53160000  1
  N  978  1  0.81429500  0.11442500  0.28630600  1
  N  981  1  0.84254700  0.13918600  0.25485900  1
  N  985  1  0.76432700  0.07752000  0.26082300  1
  N  986  1  0.89231500  0.17598900  0.28119500  1
  N  992  1  0.31426900  0.39851400  0.75482200  1
  N  995  1  0.34254400  0.37376300  0.78627000  1
  N  999  1  0.26426300  0.43540600  0.78030000  1
  N  1000  1  0.39236200  0.33697800  0.75993800  1
  N  1006  1  0.06324300  0.99044900  0.87843600  1
  N  1009  1  0.09196500  0.02167200  0.90332600  1
  N  1013  1  0.01386200  0.01632500  0.84156800  1
  N  1014  1  0.14115800  0.99496300  0.94008400  1
  N  1020  1  0.56326300  0.52249000  0.16269800  1
  N  1023  1  0.59192800  0.49126800  0.13778600  1
  N  1027  1  0.51395700  0.49660900  0.19959300  1
  N  1028  1  0.64099500  0.51798000  0.10098000  1
  N  1034  1  0.69779500  0.39885300  0.28714600  1
  N  1037  1  0.67055000  0.37382600  0.25562400  1
  N  1041  1  0.74589400  0.43655900  0.26175700  1
  N  1042  1  0.62275100  0.33618600  0.28188600  1
  N  1048  1  0.19779100  0.11408100  0.75398400  1
  N  1051  1  0.17052300  0.13910000  0.78550600  1
  N  1055  1  0.24592500  0.07638900  0.77937100  1
  N  1056  1  0.12268100  0.17672500  0.75924500  1
  N  1062  1  0.44880400  0.52335600  0.87811900  1
  N  1065  1  0.42111900  0.49204700  0.90327800  1
  N  1069  1  0.49632400  0.49758900  0.84045100  1
  N  1070  1  0.37388200  0.51867000  0.94087200  1
  N  1076  1  0.94877800  0.98958100  0.16301500  1
  N  1079  1  0.92115200  0.02088600  0.13783300  1
  N  1083  1  0.99623400  0.01535200  0.20070600  1
  N  1084  1  0.87401900  0.99425900  0.10020200  1
  N  1090  1  0.19861000  0.89877000  0.75418600  1
  N  1093  1  0.17004800  0.87386900  0.78544600  1
  N  1097  1  0.24694500  0.93609000  0.78000500  1
  N  1098  1  0.12199900  0.83662400  0.75877700  1
  N  1104  1  0.69860600  0.61415700  0.28693700  1
  N  1107  1  0.67006100  0.63906200  0.25567700  1
  N  1111  1  0.74692900  0.57683100  0.26111900  1
  N  1112  1  0.62202100  0.67631100  0.28234400  1
  N  1118  1  0.31533600  0.61393100  0.75333800  1
  N  1121  1  0.34287900  0.63910500  0.78467400  1
  N  1125  1  0.26893700  0.57581600  0.77906100  1
  N  1126  1  0.38890900  0.67717400  0.75808800  1
  N  1132  1  0.81540600  0.89902800  0.28778400  1
  N  1135  1  0.84285600  0.87382100  0.25644800  1
  N  1139  1  0.76912300  0.93718500  0.26205500  1
  N  1140  1  0.88872600  0.83569700  0.28304000  1
  N  1146  1  0.56545900  0.49039100  0.37821300  1
  N  1149  1  0.59350400  0.52167900  0.40324600  1
  N  1153  1  0.51700800  0.51611800  0.34087500  1
  N  1154  1  0.64166700  0.49508300  0.44050700  1
  N  1160  1  0.06545100  0.02254700  0.66290900  1
  N  1163  1  0.09351800  0.99125700  0.63788700  1
  N  1167  1  0.01697300  0.99682400  0.70023900  1
  N  1168  1  0.14171700  0.01784900  0.60063700  1
  N  1174  1  0.94653300  0.02333700  0.37789000  1
  N  1177  1  0.91952300  0.99198800  0.40321400  1
  N  1181  1  0.99299400  0.99767500  0.33975500  1
  N  1182  1  0.87344300  0.01852800  0.44130200  1
  N  1188  1  0.44649800  0.48960100  0.66324800  1
  N  1191  1  0.41956100  0.52094900  0.63790100  1
  N  1195  1  0.49286900  0.51526300  0.70141600  1
  N  1196  1  0.37361100  0.49440700  0.59976500  1
