# generated using pymatgen
data_H17C22(N3O2)2
_symmetry_space_group_name_H-M   'P 1'
_cell_length_a   41.10730000
_cell_length_b   46.64040000
_cell_length_c   46.64040000
_cell_angle_alpha   89.99950000
_cell_angle_beta   89.99900000
_cell_angle_gamma   89.99950000
_symmetry_Int_Tables_number   1
_chemical_formula_structural   H17C22(N3O2)2
_chemical_formula_sum   'H544 C704 N192 O128'
_cell_volume   89421.81595581
_cell_formula_units_Z   32
loop_
 _symmetry_equiv_pos_site_id
 _symmetry_equiv_pos_as_xyz
  1  'x, y, z'
loop_
 _atom_site_type_symbol
 _atom_site_label
 _atom_site_symmetry_multiplicity
 _atom_site_fract_x
 _atom_site_fract_y
 _atom_site_fract_z
 _atom_site_occupancy
  H  9  1  0.00098200  0.01581700  0.08390500  1
  H  17  1  0.00098800  0.01581100  0.88841600  1
  H  19  1  0.02901900  0.94865100  0.96118500  1
  H  20  1  0.02901900  0.94865200  0.01114200  1
  H  21  1  0.97295300  0.08297800  0.96117800  1
  H  22  1  0.97295200  0.08298000  0.01113500  1
  H  24  1  0.97137500  0.05718100  0.08762500  1
  H  25  1  0.98146200  0.08245500  0.06127400  1
  H  27  1  0.02051700  0.94918000  0.06128100  1
  H  28  1  0.03059300  0.97446100  0.08762900  1
  H  30  1  0.03060800  0.97445900  0.88469500  1
  H  31  1  0.02053200  0.94917900  0.91104400  1
  H  33  1  0.97137400  0.05717000  0.88469300  1
  H  34  1  0.98145800  0.08244900  0.91103900  1
  H  43  1  0.50101300  0.01581000  0.38841500  1
  H  51  1  0.50100800  0.01581500  0.58390200  1
  H  53  1  0.52902500  0.08298400  0.51113600  1
  H  54  1  0.52902800  0.08298200  0.46117700  1
  H  55  1  0.47298900  0.94864500  0.51114000  1
  H  56  1  0.47298900  0.94864400  0.46118100  1
  H  58  1  0.47140500  0.97445200  0.38469200  1
  H  59  1  0.48147900  0.94917200  0.41104000  1
  H  61  1  0.52053000  0.08245400  0.41103800  1
  H  62  1  0.53061400  0.05717400  0.38469200  1
  H  64  1  0.53060200  0.05718200  0.58762400  1
  H  65  1  0.52051600  0.08245900  0.56127500  1
  H  67  1  0.47141000  0.97445100  0.58762700  1
  H  68  1  0.48148600  0.94917200  0.56127900  1
  H  77  1  0.75099800  0.36617000  0.73616300  1
  H  85  1  0.75098600  0.17072100  0.73616000  1
  H  87  1  0.77223800  0.24363400  0.80543300  1
  H  88  1  0.77329300  0.29357000  0.80498000  1
  H  89  1  0.72974600  0.24363900  0.66688700  1
  H  90  1  0.72870000  0.29357400  0.66734100  1
  H  92  1  0.72211700  0.36960100  0.69420600  1
  H  93  1  0.73363100  0.34373700  0.66888200  1
  H  95  1  0.76835000  0.34373200  0.80344300  1
  H  96  1  0.77987400  0.36959800  0.77812400  1
  H  98  1  0.77525300  0.16683000  0.77990100  1
  H  99  1  0.75785000  0.19196900  0.80336500  1
  H  101  1  0.72672200  0.16683400  0.69241700  1
  H  102  1  0.74412800  0.19197100  0.66895400  1
  H  111  1  0.25095800  0.66547800  0.73613100  1
  H  119  1  0.25099400  0.86092600  0.73615500  1
  H  121  1  0.27221000  0.78801700  0.66686800  1
  H  122  1  0.27324100  0.73808000  0.66731200  1
  H  123  1  0.22975000  0.78800600  0.80542400  1
  H  124  1  0.22869400  0.73806800  0.80496500  1
  H  126  1  0.22210900  0.66204600  0.77810400  1
  H  127  1  0.23364000  0.68791000  0.80342200  1
  H  129  1  0.26832200  0.68791600  0.66884600  1
  H  130  1  0.27982100  0.66204800  0.69416900  1
  H  132  1  0.27525500  0.86481700  0.69241200  1
  H  133  1  0.25784500  0.83968700  0.66894300  1
  H  135  1  0.22673800  0.86481300  0.77990100  1
  H  136  1  0.24414100  0.83967000  0.80336100  1
  H  145  1  0.25102100  0.66548700  0.23613300  1
  H  153  1  0.25099400  0.86093500  0.23616400  1
  H  155  1  0.22977200  0.78803000  0.16687500  1
  H  156  1  0.22873300  0.73809400  0.16731900  1
  H  157  1  0.27223900  0.78801200  0.30542800  1
  H  158  1  0.27329000  0.73807600  0.30496700  1
  H  160  1  0.27987700  0.66205200  0.27810500  1
  H  161  1  0.26834600  0.68791600  0.30342400  1
  H  163  1  0.23367600  0.68793100  0.16884800  1
  H  164  1  0.22216700  0.66205900  0.19416600  1
  H  166  1  0.22673300  0.86482900  0.19242100  1
  H  167  1  0.24414400  0.83969900  0.16895200  1
  H  169  1  0.27525500  0.86482000  0.27990600  1
  H  170  1  0.25785200  0.83967700  0.30336700  1
  H  179  1  0.75097600  0.36616800  0.23615000  1
  H  187  1  0.75099800  0.17072400  0.23617500  1
  H  189  1  0.72977100  0.24364300  0.30544700  1
  H  190  1  0.72872000  0.29358100  0.30498800  1
  H  191  1  0.77221500  0.24363000  0.16688600  1
  H  192  1  0.77325300  0.29356500  0.16733200  1
  H  194  1  0.77983200  0.36960000  0.19418300  1
  H  195  1  0.76832800  0.34373000  0.16886200  1
  H  197  1  0.73364800  0.34374300  0.30344600  1
  H  198  1  0.72213000  0.36960500  0.27812200  1
  H  200  1  0.72674900  0.16683700  0.27992300  1
  H  201  1  0.74415500  0.19197600  0.30338500  1
  H  203  1  0.77525200  0.16683000  0.19242900  1
  H  204  1  0.75784400  0.19196300  0.16896200  1
  H  213  1  0.50099100  0.51582900  0.58386200  1
  H  221  1  0.50099100  0.51582100  0.38846900  1
  H  223  1  0.51204300  0.44476200  0.46117400  1
  H  224  1  0.51204000  0.44476400  0.51116500  1
  H  225  1  0.48994000  0.58688600  0.46116500  1
  H  226  1  0.48994200  0.58688800  0.51115800  1
  H  228  1  0.47887800  0.56076700  0.58723600  1
  H  229  1  0.49897700  0.58359000  0.56308300  1
  H  231  1  0.50300300  0.44806900  0.56308800  1
  H  232  1  0.52310700  0.47089200  0.58723900  1
  H  234  1  0.52310900  0.47088300  0.38509600  1
  H  235  1  0.50300600  0.44806200  0.40924900  1
  H  237  1  0.47887100  0.56075400  0.38509200  1
  H  238  1  0.49897000  0.58358200  0.40924200  1
  H  247  1  0.00097600  0.51584100  0.88847800  1
  H  255  1  0.00099500  0.51583500  0.08387100  1
  H  257  1  0.01203200  0.58690000  0.01117100  1
  H  258  1  0.01202500  0.58690200  0.96117900  1
  H  259  1  0.98994000  0.44477600  0.01117100  1
  H  260  1  0.98993500  0.44477800  0.96117900  1
  H  262  1  0.97887000  0.47090100  0.88510300  1
  H  263  1  0.99897000  0.44808000  0.90925500  1
  H  265  1  0.00300200  0.58360500  0.90925100  1
  H  266  1  0.02309300  0.56077300  0.88510200  1
  H  268  1  0.02311000  0.56077100  0.08724500  1
  H  269  1  0.00301200  0.58360100  0.06310100  1
  H  271  1  0.97888000  0.47089900  0.08724800  1
  H  272  1  0.99897800  0.44807500  0.06309500  1
  H  279  1  0.79010900  0.17780900  0.12815800  1
  H  286  1  0.91346300  0.05458300  0.10862300  1
  H  287  1  0.87932700  0.14684000  0.07174300  1
  H  288  1  0.89576800  0.14183300  0.15600400  1
  H  291  1  0.78974600  0.14698000  0.08803900  1
  H  292  1  0.81967500  0.12440500  0.08091800  1
  H  294  1  0.90322600  0.13529400  0.02669500  1
  H  295  1  0.92214300  0.10453700  0.02084000  1
  H  302  1  0.82088900  0.20529800  0.19517900  1
  H  304  1  0.92423800  0.04351300  0.05582500  1
  H  311  1  0.29011400  0.85385200  0.34416600  1
  H  318  1  0.41349100  0.97706300  0.36369300  1
  H  319  1  0.37932900  0.88481700  0.40058300  1
  H  320  1  0.39578100  0.88981200  0.31632100  1
  H  323  1  0.28975100  0.88468700  0.38428100  1
  H  324  1  0.31968300  0.90726000  0.39140100  1
  H  326  1  0.40323200  0.89636200  0.44562800  1
  H  327  1  0.42215900  0.92711500  0.45148000  1
  H  334  1  0.32089900  0.82634900  0.27715300  1
  H  336  1  0.42427300  0.98813500  0.41648900  1
  H  343  1  0.53640100  0.40551900  0.57660700  1
  H  350  1  0.66362200  0.38887000  0.69651400  1
  H  351  1  0.62960100  0.35115800  0.60452800  1
  H  352  1  0.64316800  0.43502900  0.60874400  1
  H  355  1  0.53832500  0.36543400  0.60768300  1
  H  356  1  0.56951200  0.35885400  0.62909500  1
  H  358  1  0.65659900  0.30721700  0.61522400  1
  H  359  1  0.67669700  0.30207200  0.64554300  1
  H  366  1  0.56627200  0.47082500  0.54533400  1
  H  368  1  0.67599900  0.33613900  0.70704600  1
  H  375  1  0.03641400  0.62614100  0.89574700  1
  H  382  1  0.16361800  0.64277300  0.77582600  1
  H  383  1  0.12962700  0.68048300  0.86782500  1
  H  384  1  0.14317200  0.59660800  0.86360300  1
  H  387  1  0.03834800  0.66622600  0.86467500  1
  H  388  1  0.06953500  0.67280000  0.84326100  1
  H  390  1  0.15662700  0.72442400  0.85712200  1
  H  391  1  0.17671100  0.72956900  0.82679600  1
  H  398  1  0.06625600  0.56081500  0.92700200  1
  H  400  1  0.17597800  0.69550900  0.76529400  1
  H  407  1  0.71189100  0.17780100  0.34418300  1
  H  414  1  0.58852300  0.05458100  0.36369400  1
  H  415  1  0.62267300  0.14682300  0.40059700  1
  H  416  1  0.60622600  0.14184200  0.31633500  1
  H  419  1  0.71225300  0.14696100  0.38429400  1
  H  420  1  0.68232200  0.12438700  0.39141100  1
  H  422  1  0.59877700  0.13526600  0.44564200  1
  H  423  1  0.57985600  0.10451000  0.45148900  1
  H  430  1  0.68110800  0.20531000  0.27717200  1
  H  432  1  0.57774700  0.04349800  0.41648800  1
  H  439  1  0.21188000  0.85385300  0.12815300  1
  H  446  1  0.08850500  0.97706700  0.10862800  1
  H  447  1  0.12266400  0.88482100  0.07173500  1
  H  448  1  0.10621500  0.88981500  0.15599900  1
  H  451  1  0.21224200  0.88468800  0.08803700  1
  H  452  1  0.18231100  0.90726100  0.08091700  1
  H  454  1  0.09876800  0.89637100  0.02669000  1
  H  455  1  0.07984700  0.92712500  0.02083700  1
  H  462  1  0.18110200  0.82635600  0.19517000  1
  H  464  1  0.07772600  0.98814200  0.05583200  1
  H  471  1  0.96557100  0.40552700  0.89574500  1
  H  478  1  0.83836900  0.38886600  0.77582600  1
  H  479  1  0.87236700  0.35117100  0.86782700  1
  H  480  1  0.85880900  0.43504300  0.86359300  1
  H  483  1  0.96364700  0.36543900  0.86467600  1
  H  484  1  0.93246200  0.35885700  0.84326100  1
  H  486  1  0.84536600  0.30723100  0.85713400  1
  H  487  1  0.82527600  0.30207900  0.82681200  1
  H  494  1  0.93570300  0.47083900  0.92700600  1
  H  496  1  0.82600100  0.33613300  0.76530200  1
  H  503  1  0.46557700  0.62613300  0.57661000  1
  H  510  1  0.33831900  0.64277600  0.69649700  1
  H  511  1  0.37237400  0.68049000  0.60451800  1
  H  512  1  0.35880200  0.59661900  0.60873200  1
  H  515  1  0.46364800  0.66621400  0.60768800  1
  H  516  1  0.43245600  0.67279300  0.62909900  1
  H  518  1  0.34536700  0.72443100  0.61521100  1
  H  519  1  0.32525800  0.72957500  0.64552400  1
  H  526  1  0.43571600  0.56082700  0.54533100  1
  H  528  1  0.32594000  0.69550500  0.70702900  1
  H  535  1  0.21188400  0.85384600  0.84416300  1
  H  542  1  0.08851900  0.97706800  0.86369600  1
  H  543  1  0.12267600  0.88482200  0.90058900  1
  H  544  1  0.10621700  0.88981400  0.81632900  1
  H  547  1  0.21225400  0.88468300  0.88427700  1
  H  548  1  0.18232500  0.90725800  0.89140000  1
  H  550  1  0.09877800  0.89637200  0.94563400  1
  H  551  1  0.07985700  0.92712600  0.95148600  1
  H  558  1  0.18109200  0.82634600  0.77715100  1
  H  560  1  0.07773800  0.98814400  0.91649000  1
  H  567  1  0.71186400  0.17781200  0.62815300  1
  H  574  1  0.58851100  0.05458700  0.60862400  1
  H  575  1  0.62265100  0.14684000  0.57173600  1
  H  576  1  0.60620100  0.14184200  0.65599800  1
  H  579  1  0.71223100  0.14698000  0.58803600  1
  H  580  1  0.68230200  0.12440400  0.58091600  1
  H  582  1  0.59875500  0.13529000  0.52669000  1
  H  583  1  0.57983900  0.10453300  0.52083700  1
  H  590  1  0.68108300  0.20530400  0.69517300  1
  H  592  1  0.57773900  0.04351300  0.55582700  1
  H  599  1  0.46556700  0.62612900  0.39573700  1
  H  606  1  0.33837100  0.64278300  0.27581400  1
  H  607  1  0.37236200  0.68048400  0.36781500  1
  H  608  1  0.35880700  0.59661000  0.36358600  1
  H  611  1  0.46364000  0.66621600  0.36466700  1
  H  612  1  0.43245600  0.67279700  0.34325200  1
  H  614  1  0.34536200  0.72442400  0.35711900  1
  H  615  1  0.32527600  0.72957200  0.32679500  1
  H  622  1  0.43570800  0.56081200  0.42699400  1
  H  624  1  0.32600300  0.69551800  0.26528700  1
  H  631  1  0.96557700  0.40553100  0.07661900  1
  H  638  1  0.83832900  0.38887300  0.19650900  1
  H  639  1  0.87237200  0.35117100  0.10452100  1
  H  640  1  0.85880500  0.43504300  0.10874700  1
  H  643  1  0.96364800  0.36544600  0.10769100  1
  H  644  1  0.93245700  0.35886400  0.12910200  1
  H  646  1  0.84536400  0.30723100  0.11520600  1
  H  647  1  0.82525800  0.30208300  0.14552100  1
  H  654  1  0.93571300  0.47083900  0.04534500  1
  H  656  1  0.82595400  0.33614000  0.20703200  1
  H  663  1  0.29011400  0.85384700  0.62814500  1
  H  670  1  0.41350100  0.97705300  0.60863100  1
  H  671  1  0.37933600  0.88481100  0.57173300  1
  H  672  1  0.39578100  0.88979600  0.65599900  1
  H  675  1  0.28975900  0.88468600  0.58803200  1
  H  676  1  0.31969300  0.90725700  0.58091500  1
  H  678  1  0.40323700  0.89636100  0.52669000  1
  H  679  1  0.42216100  0.92711400  0.52083900  1
  H  686  1  0.32088700  0.82633900  0.69516200  1
  H  688  1  0.42427500  0.98813000  0.55583600  1
  H  695  1  0.79011100  0.17780500  0.84416500  1
  H  702  1  0.91346400  0.05457400  0.86369600  1
  H  703  1  0.87932400  0.14682700  0.90058300  1
  H  704  1  0.89577300  0.14182900  0.81632100  1
  H  707  1  0.78974500  0.14697100  0.88428200  1
  H  708  1  0.81967300  0.12439400  0.89140300  1
  H  710  1  0.90321800  0.13527700  0.94562900  1
  H  711  1  0.92213400  0.10452000  0.95148300  1
  H  718  1  0.82089700  0.20529600  0.77714700  1
  H  720  1  0.92423900  0.04350000  0.91649100  1
  H  727  1  0.03641900  0.62613900  0.07660800  1
  H  734  1  0.16367400  0.64278600  0.19648700  1
  H  735  1  0.12962900  0.68049200  0.10450200  1
  H  736  1  0.14319300  0.59661800  0.10872200  1
  H  739  1  0.03835600  0.66622200  0.10768100  1
  H  740  1  0.06955000  0.67280200  0.12908700  1
  H  742  1  0.15663400  0.72443400  0.11519000  1
  H  743  1  0.17673700  0.72958000  0.14550600  1
  H  750  1  0.06626600  0.56082200  0.04533900  1
  H  752  1  0.17604200  0.69551900  0.20701100  1
  H  759  1  0.53640800  0.40551300  0.39572900  1
  H  766  1  0.66363600  0.38887200  0.27582200  1
  H  767  1  0.62961600  0.35116000  0.36781200  1
  H  768  1  0.64317800  0.43503200  0.36359400  1
  H  771  1  0.53833700  0.36543200  0.36465100  1
  H  772  1  0.56952900  0.35885400  0.34324000  1
  H  774  1  0.65662100  0.30722200  0.35711500  1
  H  775  1  0.67671900  0.30207600  0.32679600  1
  H  782  1  0.56627200  0.47081900  0.42700300  1
  H  784  1  0.67600900  0.33613900  0.26529100  1
  H  793  1  0.68473600  0.01581700  0.08390500  1
  H  801  1  0.68474200  0.01581100  0.88841600  1
  H  803  1  0.71277300  0.94865100  0.96118500  1
  H  804  1  0.71277300  0.94865200  0.01114200  1
  H  805  1  0.65670700  0.08297800  0.96117800  1
  H  806  1  0.65670600  0.08298000  0.01113500  1
  H  808  1  0.65512900  0.05718100  0.08762500  1
  H  809  1  0.66521600  0.08245500  0.06127400  1
  H  811  1  0.70427100  0.94918000  0.06128100  1
  H  812  1  0.71434700  0.97446100  0.08762900  1
  H  814  1  0.71436200  0.97445900  0.88469500  1
  H  815  1  0.70428600  0.94917900  0.91104400  1
  H  817  1  0.65512800  0.05717000  0.88469300  1
  H  818  1  0.66521200  0.08244900  0.91103900  1
  H  827  1  0.18476700  0.01581000  0.38841500  1
  H  835  1  0.18476200  0.01581500  0.58390200  1
  H  837  1  0.21277900  0.08298400  0.51113600  1
  H  838  1  0.21278200  0.08298200  0.46117700  1
  H  839  1  0.15674300  0.94864500  0.51114000  1
  H  840  1  0.15674300  0.94864400  0.46118100  1
  H  842  1  0.15515900  0.97445200  0.38469200  1
  H  843  1  0.16523300  0.94917200  0.41104000  1
  H  845  1  0.20428400  0.08245400  0.41103800  1
  H  846  1  0.21436800  0.05717400  0.38469200  1
  H  848  1  0.21435600  0.05718200  0.58762400  1
  H  849  1  0.20427000  0.08245900  0.56127500  1
  H  851  1  0.15516400  0.97445100  0.58762700  1
  H  852  1  0.16524000  0.94917200  0.56127900  1
  H  861  1  0.43475200  0.36617000  0.73616300  1
  H  869  1  0.43474000  0.17072100  0.73616000  1
  H  871  1  0.45599200  0.24363400  0.80543300  1
  H  872  1  0.45704700  0.29357000  0.80498000  1
  H  873  1  0.41350000  0.24363900  0.66688700  1
  H  874  1  0.41245400  0.29357400  0.66734100  1
  H  876  1  0.40587100  0.36960100  0.69420600  1
  H  877  1  0.41738500  0.34373700  0.66888200  1
  H  879  1  0.45210400  0.34373200  0.80344300  1
  H  880  1  0.46362800  0.36959800  0.77812400  1
  H  882  1  0.45900700  0.16683000  0.77990100  1
  H  883  1  0.44160400  0.19196900  0.80336500  1
  H  885  1  0.41047600  0.16683400  0.69241700  1
  H  886  1  0.42788200  0.19197100  0.66895400  1
  H  895  1  0.93471250  0.66547800  0.73613100  1
  H  903  1  0.93474850  0.86092600  0.73615500  1
  H  905  1  0.95596450  0.78801700  0.66686800  1
  H  906  1  0.95699550  0.73808000  0.66731200  1
  H  907  1  0.91350450  0.78800600  0.80542400  1
  H  908  1  0.91244850  0.73806800  0.80496500  1
  H  910  1  0.90586350  0.66204600  0.77810400  1
  H  911  1  0.91739450  0.68791000  0.80342200  1
  H  913  1  0.95207650  0.68791600  0.66884600  1
  H  914  1  0.96357550  0.66204800  0.69416900  1
  H  916  1  0.95900950  0.86481700  0.69241200  1
  H  917  1  0.94159950  0.83968700  0.66894300  1
  H  919  1  0.91049250  0.86481300  0.77990100  1
  H  920  1  0.92789550  0.83967000  0.80336100  1
  H  929  1  0.93477550  0.66548700  0.23613300  1
  H  937  1  0.93474850  0.86093500  0.23616400  1
  H  939  1  0.91352650  0.78803000  0.16687500  1
  H  940  1  0.91248750  0.73809400  0.16731900  1
  H  941  1  0.95599350  0.78801200  0.30542800  1
  H  942  1  0.95704450  0.73807600  0.30496700  1
  H  944  1  0.96363150  0.66205200  0.27810500  1
  H  945  1  0.95210050  0.68791600  0.30342400  1
  H  947  1  0.91743050  0.68793100  0.16884800  1
  H  948  1  0.90592150  0.66205900  0.19416600  1
  H  950  1  0.91048750  0.86482900  0.19242100  1
  H  951  1  0.92789850  0.83969900  0.16895200  1
  H  953  1  0.95900950  0.86482000  0.27990600  1
  H  954  1  0.94160650  0.83967700  0.30336700  1
  H  963  1  0.43473000  0.36616800  0.23615000  1
  H  971  1  0.43475200  0.17072400  0.23617500  1
  H  973  1  0.41352500  0.24364300  0.30544700  1
  H  974  1  0.41247400  0.29358100  0.30498800  1
  H  975  1  0.45596900  0.24363000  0.16688600  1
  H  976  1  0.45700700  0.29356500  0.16733200  1
  H  978  1  0.46358600  0.36960000  0.19418300  1
  H  979  1  0.45208200  0.34373000  0.16886200  1
  H  981  1  0.41740200  0.34374300  0.30344600  1
  H  982  1  0.40588400  0.36960500  0.27812200  1
  H  984  1  0.41050300  0.16683700  0.27992300  1
  H  985  1  0.42790900  0.19197600  0.30338500  1
  H  987  1  0.45900600  0.16683000  0.19242900  1
  H  988  1  0.44159800  0.19196300  0.16896200  1
  H  997  1  0.18474500  0.51582900  0.58386200  1
  H  1005  1  0.18474500  0.51582100  0.38846900  1
  H  1007  1  0.19579700  0.44476200  0.46117400  1
  H  1008  1  0.19579400  0.44476400  0.51116500  1
  H  1009  1  0.17369400  0.58688600  0.46116500  1
  H  1010  1  0.17369600  0.58688800  0.51115800  1
  H  1012  1  0.16263200  0.56076700  0.58723600  1
  H  1013  1  0.18273100  0.58359000  0.56308300  1
  H  1015  1  0.18675700  0.44806900  0.56308800  1
  H  1016  1  0.20686100  0.47089200  0.58723900  1
  H  1018  1  0.20686300  0.47088300  0.38509600  1
  H  1019  1  0.18676000  0.44806200  0.40924900  1
  H  1021  1  0.16262500  0.56075400  0.38509200  1
  H  1022  1  0.18272400  0.58358200  0.40924200  1
  H  1031  1  0.68473000  0.51584100  0.88847800  1
  H  1039  1  0.68474900  0.51583500  0.08387100  1
  H  1041  1  0.69578600  0.58690000  0.01117100  1
  H  1042  1  0.69577900  0.58690200  0.96117900  1
  H  1043  1  0.67369400  0.44477600  0.01117100  1
  H  1044  1  0.67368900  0.44477800  0.96117900  1
  H  1046  1  0.66262400  0.47090100  0.88510300  1
  H  1047  1  0.68272400  0.44808000  0.90925500  1
  H  1049  1  0.68675600  0.58360500  0.90925100  1
  H  1050  1  0.70684700  0.56077300  0.88510200  1
  H  1052  1  0.70686400  0.56077100  0.08724500  1
  H  1053  1  0.68676600  0.58360100  0.06310100  1
  H  1055  1  0.66263400  0.47089900  0.08724800  1
  H  1056  1  0.68273200  0.44807500  0.06309500  1
  H  1063  1  0.47386300  0.17780900  0.12815800  1
  H  1070  1  0.59721700  0.05458300  0.10862300  1
  H  1071  1  0.56308100  0.14684000  0.07174300  1
  H  1072  1  0.57952200  0.14183300  0.15600400  1
  H  1075  1  0.47350000  0.14698000  0.08803900  1
  H  1076  1  0.50342900  0.12440500  0.08091800  1
  H  1078  1  0.58698000  0.13529400  0.02669500  1
  H  1079  1  0.60589700  0.10453700  0.02084000  1
  H  1086  1  0.50464300  0.20529800  0.19517900  1
  H  1088  1  0.60799200  0.04351300  0.05582500  1
  H  1095  1  0.97386850  0.85385200  0.34416600  1
  H  1102  1  0.09724500  0.97706300  0.36369300  1
  H  1103  1  0.06308300  0.88481700  0.40058300  1
  H  1104  1  0.07953500  0.88981200  0.31632100  1
  H  1107  1  0.97350550  0.88468700  0.38428100  1
  H  1108  1  0.00343700  0.90726000  0.39140100  1
  H  1110  1  0.08698600  0.89636200  0.44562800  1
  H  1111  1  0.10591300  0.92711500  0.45148000  1
  H  1118  1  0.00465300  0.82634900  0.27715300  1
  H  1120  1  0.10802700  0.98813500  0.41648900  1
  H  1127  1  0.22015500  0.40551900  0.57660700  1
  H  1134  1  0.34737600  0.38887000  0.69651400  1
  H  1135  1  0.31335500  0.35115800  0.60452800  1
  H  1136  1  0.32692200  0.43502900  0.60874400  1
  H  1139  1  0.22207900  0.36543400  0.60768300  1
  H  1140  1  0.25326600  0.35885400  0.62909500  1
  H  1142  1  0.34035300  0.30721700  0.61522400  1
  H  1143  1  0.36045100  0.30207200  0.64554300  1
  H  1150  1  0.25002600  0.47082500  0.54533400  1
  H  1152  1  0.35975300  0.33613900  0.70704600  1
  H  1159  1  0.72016800  0.62614100  0.89574700  1
  H  1166  1  0.84737200  0.64277300  0.77582600  1
  H  1167  1  0.81338100  0.68048300  0.86782500  1
  H  1168  1  0.82692600  0.59660800  0.86360300  1
  H  1171  1  0.72210200  0.66622600  0.86467500  1
  H  1172  1  0.75328900  0.67280000  0.84326100  1
  H  1174  1  0.84038100  0.72442400  0.85712200  1
  H  1175  1  0.86046500  0.72956900  0.82679600  1
  H  1182  1  0.75001000  0.56081500  0.92700200  1
  H  1184  1  0.85973200  0.69550900  0.76529400  1
  H  1191  1  0.39564500  0.17780100  0.34418300  1
  H  1198  1  0.27227700  0.05458100  0.36369400  1
  H  1199  1  0.30642700  0.14682300  0.40059700  1
  H  1200  1  0.28998000  0.14184200  0.31633500  1
  H  1203  1  0.39600700  0.14696100  0.38429400  1
  H  1204  1  0.36607600  0.12438700  0.39141100  1
  H  1206  1  0.28253100  0.13526600  0.44564200  1
  H  1207  1  0.26361000  0.10451000  0.45148900  1
  H  1214  1  0.36486200  0.20531000  0.27717200  1
  H  1216  1  0.26150100  0.04349800  0.41648800  1
  H  1223  1  0.89563400  0.85385300  0.12815300  1
  H  1230  1  0.77225900  0.97706700  0.10862800  1
  H  1231  1  0.80641800  0.88482100  0.07173500  1
  H  1232  1  0.78996900  0.88981500  0.15599900  1
  H  1235  1  0.89599600  0.88468800  0.08803700  1
  H  1236  1  0.86606500  0.90726100  0.08091700  1
  H  1238  1  0.78252200  0.89637100  0.02669000  1
  H  1239  1  0.76360100  0.92712500  0.02083700  1
  H  1246  1  0.86485600  0.82635600  0.19517000  1
  H  1248  1  0.76148000  0.98814200  0.05583200  1
  H  1255  1  0.64932500  0.40552700  0.89574500  1
  H  1262  1  0.52212300  0.38886600  0.77582600  1
  H  1263  1  0.55612100  0.35117100  0.86782700  1
  H  1264  1  0.54256300  0.43504300  0.86359300  1
  H  1267  1  0.64740100  0.36543900  0.86467600  1
  H  1268  1  0.61621600  0.35885700  0.84326100  1
  H  1270  1  0.52912000  0.30723100  0.85713400  1
  H  1271  1  0.50903000  0.30207900  0.82681200  1
  H  1278  1  0.61945700  0.47083900  0.92700600  1
  H  1280  1  0.50975500  0.33613300  0.76530200  1
  H  1287  1  0.14933100  0.62613300  0.57661000  1
  H  1294  1  0.02207300  0.64277600  0.69649700  1
  H  1295  1  0.05612800  0.68049000  0.60451800  1
  H  1296  1  0.04255600  0.59661900  0.60873200  1
  H  1299  1  0.14740200  0.66621400  0.60768800  1
  H  1300  1  0.11621000  0.67279300  0.62909900  1
  H  1302  1  0.02912100  0.72443100  0.61521100  1
  H  1303  1  0.00901200  0.72957500  0.64552400  1
  H  1310  1  0.11947000  0.56082700  0.54533100  1
  H  1312  1  0.00969400  0.69550500  0.70702900  1
  H  1319  1  0.89563800  0.85384600  0.84416300  1
  H  1326  1  0.77227300  0.97706800  0.86369600  1
  H  1327  1  0.80643000  0.88482200  0.90058900  1
  H  1328  1  0.78997100  0.88981400  0.81632900  1
  H  1331  1  0.89600800  0.88468300  0.88427700  1
  H  1332  1  0.86607900  0.90725800  0.89140000  1
  H  1334  1  0.78253200  0.89637200  0.94563400  1
  H  1335  1  0.76361100  0.92712600  0.95148600  1
  H  1342  1  0.86484600  0.82634600  0.77715100  1
  H  1344  1  0.76149200  0.98814400  0.91649000  1
  H  1351  1  0.39561800  0.17781200  0.62815300  1
  H  1358  1  0.27226500  0.05458700  0.60862400  1
  H  1359  1  0.30640500  0.14684000  0.57173600  1
  H  1360  1  0.28995500  0.14184200  0.65599800  1
  H  1363  1  0.39598500  0.14698000  0.58803600  1
  H  1364  1  0.36605600  0.12440400  0.58091600  1
  H  1366  1  0.28250900  0.13529000  0.52669000  1
  H  1367  1  0.26359300  0.10453300  0.52083700  1
  H  1374  1  0.36483700  0.20530400  0.69517300  1
  H  1376  1  0.26149300  0.04351300  0.55582700  1
  H  1383  1  0.14932100  0.62612900  0.39573700  1
  H  1390  1  0.02212500  0.64278300  0.27581400  1
  H  1391  1  0.05611600  0.68048400  0.36781500  1
  H  1392  1  0.04256100  0.59661000  0.36358600  1
  H  1395  1  0.14739400  0.66621600  0.36466700  1
  H  1396  1  0.11621000  0.67279700  0.34325200  1
  H  1398  1  0.02911600  0.72442400  0.35711900  1
  H  1399  1  0.00903000  0.72957200  0.32679500  1
  H  1406  1  0.11946200  0.56081200  0.42699400  1
  H  1408  1  0.00975700  0.69551800  0.26528700  1
  H  1415  1  0.64933100  0.40553100  0.07661900  1
  H  1422  1  0.52208300  0.38887300  0.19650900  1
  H  1423  1  0.55612600  0.35117100  0.10452100  1
  H  1424  1  0.54255900  0.43504300  0.10874700  1
  H  1427  1  0.64740200  0.36544600  0.10769100  1
  H  1428  1  0.61621100  0.35886400  0.12910200  1
  H  1430  1  0.52911800  0.30723100  0.11520600  1
  H  1431  1  0.50901200  0.30208300  0.14552100  1
  H  1438  1  0.61946700  0.47083900  0.04534500  1
  H  1440  1  0.50970800  0.33614000  0.20703200  1
  H  1447  1  0.97386850  0.85384700  0.62814500  1
  H  1454  1  0.09725500  0.97705300  0.60863100  1
  H  1455  1  0.06309000  0.88481100  0.57173300  1
  H  1456  1  0.07953500  0.88979600  0.65599900  1
  H  1459  1  0.97351350  0.88468600  0.58803200  1
  H  1460  1  0.00344700  0.90725700  0.58091500  1
  H  1462  1  0.08699100  0.89636100  0.52669000  1
  H  1463  1  0.10591500  0.92711400  0.52083900  1
  H  1470  1  0.00464100  0.82633900  0.69516200  1
  H  1472  1  0.10802900  0.98813000  0.55583600  1
  H  1479  1  0.47386500  0.17780500  0.84416500  1
  H  1486  1  0.59721800  0.05457400  0.86369600  1
  H  1487  1  0.56307800  0.14682700  0.90058300  1
  H  1488  1  0.57952700  0.14182900  0.81632100  1
  H  1491  1  0.47349900  0.14697100  0.88428200  1
  H  1492  1  0.50342700  0.12439400  0.89140300  1
  H  1494  1  0.58697200  0.13527700  0.94562900  1
  H  1495  1  0.60588800  0.10452000  0.95148300  1
  H  1502  1  0.50465100  0.20529600  0.77714700  1
  H  1504  1  0.60799300  0.04350000  0.91649100  1
  H  1511  1  0.72017300  0.62613900  0.07660800  1
  H  1518  1  0.84742800  0.64278600  0.19648700  1
  H  1519  1  0.81338300  0.68049200  0.10450200  1
  H  1520  1  0.82694700  0.59661800  0.10872200  1
  H  1523  1  0.72211000  0.66622200  0.10768100  1
  H  1524  1  0.75330400  0.67280200  0.12908700  1
  H  1526  1  0.84038800  0.72443400  0.11519000  1
  H  1527  1  0.86049100  0.72958000  0.14550600  1
  H  1534  1  0.75002000  0.56082200  0.04533900  1
  H  1536  1  0.85979600  0.69551900  0.20701100  1
  H  1543  1  0.22016200  0.40551300  0.39572900  1
  H  1550  1  0.34739000  0.38887200  0.27582200  1
  H  1551  1  0.31337000  0.35116000  0.36781200  1
  H  1552  1  0.32693200  0.43503200  0.36359400  1
  H  1555  1  0.22209100  0.36543200  0.36465100  1
  H  1556  1  0.25328300  0.35885400  0.34324000  1
  H  1558  1  0.34037500  0.30722200  0.35711500  1
  H  1559  1  0.36047300  0.30207600  0.32679600  1
  H  1566  1  0.25002600  0.47081900  0.42700300  1
  H  1568  1  0.35976300  0.33613900  0.26529100  1
  C  1  1  0.00098700  0.01581500  0.00152400  1
  C  2  1  0.01282700  0.99155800  0.01694000  1
  C  3  1  0.01468300  0.99221500  0.04740700  1
  C  4  1  0.00098200  0.01581700  0.06195800  1
  C  5  1  0.98727800  0.03941700  0.04740500  1
  C  6  1  0.98914200  0.04007500  0.01693700  1
  C  7  1  0.02245800  0.96719000  0.00113800  1
  C  8  1  0.97951000  0.06444100  0.00113500  1
  C  10  1  0.00099000  0.01581500  0.97079600  1
  C  11  1  0.01283700  0.99155800  0.95538400  1
  C  12  1  0.01469300  0.99221300  0.92491700  1
  C  13  1  0.00098800  0.01581300  0.91036300  1
  C  14  1  0.98728100  0.03941300  0.92491400  1
  C  15  1  0.98914400  0.04007300  0.95538100  1
  C  16  1  0.02248500  0.96719700  0.97118600  1
  C  18  1  0.97951100  0.06443800  0.97118100  1
  C  23  1  0.96974000  0.06170100  0.06463900  1
  C  26  1  0.03223000  0.96994000  0.06464300  1
  C  29  1  0.03224500  0.96993900  0.90768100  1
  C  32  1  0.96973900  0.06169200  0.90767800  1
  C  35  1  0.50100100  0.01581500  0.47079400  1
  C  36  1  0.51284100  0.04007500  0.45538000  1
  C  37  1  0.51470200  0.03941900  0.42491300  1
  C  38  1  0.50101100  0.01581000  0.41036200  1
  C  39  1  0.48731500  0.99220600  0.42491400  1
  C  40  1  0.48916400  0.99155500  0.45538100  1
  C  41  1  0.52246200  0.06444400  0.47118000  1
  C  42  1  0.47952800  0.96719000  0.47118300  1
  C  44  1  0.50100100  0.01581500  0.50152300  1
  C  45  1  0.51283600  0.04007700  0.51693600  1
  C  46  1  0.51469700  0.03942300  0.54740400  1
  C  47  1  0.50100800  0.01581500  0.56195600  1
  C  48  1  0.48731700  0.99220700  0.54740400  1
  C  49  1  0.48916600  0.99155500  0.51693700  1
  C  50  1  0.52245900  0.06444600  0.50113400  1
  C  52  1  0.47954000  0.96718700  0.50113800  1
  C  57  1  0.46976600  0.96993200  0.40767800  1
  C  60  1  0.53224800  0.06169500  0.40767700  1
  C  63  1  0.53223600  0.06170200  0.56463900  1
  C  66  1  0.46977300  0.96993100  0.56464300  1
  C  69  1  0.75099800  0.28377400  0.73616100  1
  C  70  1  0.76083500  0.29919600  0.76108800  1
  C  71  1  0.76322900  0.32962600  0.76034400  1
  C  72  1  0.75100000  0.34422100  0.73616300  1
  C  73  1  0.73877400  0.32962700  0.71198000  1
  C  74  1  0.74116300  0.29919800  0.71123200  1
  C  75  1  0.76812100  0.28348000  0.78613000  1
  C  76  1  0.73387400  0.28348400  0.68619000  1
  C  78  1  0.75099600  0.25305600  0.73615900  1
  C  79  1  0.75992200  0.23767800  0.76142100  1
  C  80  1  0.76145500  0.20718500  0.76102400  1
  C  81  1  0.75098800  0.19266800  0.73616000  1
  C  82  1  0.74052500  0.20718800  0.71129500  1
  C  83  1  0.74206300  0.23768100  0.71089800  1
  C  84  1  0.76731400  0.25353400  0.78639800  1
  C  86  1  0.73467500  0.25353800  0.68592200  1
  C  91  1  0.72137800  0.34662500  0.68946600  1
  C  94  1  0.78061400  0.34662200  0.78286500  1
  C  97  1  0.77463500  0.18966400  0.78536800  1
  C  100  1  0.72734300  0.18966900  0.68695200  1
  C  103  1  0.25097000  0.74787500  0.73614100  1
  C  104  1  0.26079100  0.73245200  0.71120600  1
  C  105  1  0.26316200  0.70202200  0.71194200  1
  C  106  1  0.25095800  0.68742500  0.73613100  1
  C  107  1  0.23875100  0.70202000  0.76032300  1
  C  108  1  0.24114400  0.73244800  0.76107100  1
  C  109  1  0.26807600  0.74816800  0.68616500  1
  C  110  1  0.23387800  0.74816000  0.78611900  1
  C  112  1  0.25098000  0.77859300  0.73614500  1
  C  113  1  0.25990500  0.79397100  0.71088400  1
  C  114  1  0.26144300  0.82446300  0.71128200  1
  C  115  1  0.25098900  0.83897900  0.73615300  1
  C  116  1  0.24052900  0.82446000  0.76101600  1
  C  117  1  0.24205700  0.79396700  0.76141100  1
  C  118  1  0.26728600  0.77811400  0.68590300  1
  C  120  1  0.23467400  0.77810600  0.78638700  1
  C  125  1  0.22137200  0.68502200  0.78284700  1
  C  128  1  0.28056800  0.68502300  0.68943300  1
  C  131  1  0.27463000  0.84198400  0.68694300  1
  C  134  1  0.22735400  0.84197800  0.78536400  1
  C  137  1  0.25101600  0.74788300  0.23614300  1
  C  138  1  0.24119600  0.73246300  0.21120800  1
  C  139  1  0.23881600  0.70203300  0.21194800  1
  C  140  1  0.25102100  0.68743400  0.23613500  1
  C  141  1  0.26323100  0.70202800  0.26032400  1
  C  142  1  0.26083900  0.73245700  0.26107400  1
  C  143  1  0.23392900  0.74817900  0.18616500  1
  C  144  1  0.26810600  0.74816800  0.28612300  1
  C  146  1  0.25101100  0.77860100  0.23614900  1
  C  147  1  0.24208300  0.79398100  0.21088800  1
  C  148  1  0.24054600  0.82447400  0.21129100  1
  C  149  1  0.25099900  0.83898800  0.23616000  1
  C  150  1  0.26146000  0.82446800  0.26102400  1
  C  151  1  0.25993200  0.79397500  0.26141500  1
  C  152  1  0.23470300  0.77812800  0.18590800  1
  C  154  1  0.26731500  0.77811400  0.28639100  1
  C  159  1  0.28061400  0.68502800  0.28284700  1
  C  162  1  0.22142300  0.68503700  0.18942900  1
  C  165  1  0.22735900  0.84199500  0.18694900  1
  C  168  1  0.27463700  0.84198500  0.28537000  1
  C  171  1  0.75099300  0.28377400  0.23616300  1
  C  172  1  0.74117200  0.29920000  0.26109400  1
  C  173  1  0.73878600  0.32962900  0.26035000  1
  C  174  1  0.75097900  0.34422100  0.23615200  1
  C  175  1  0.76317900  0.32962400  0.21195800  1
  C  176  1  0.76081000  0.29919600  0.21122500  1
  C  177  1  0.73391600  0.28348800  0.28614400  1
  C  178  1  0.76809000  0.28347800  0.18618500  1
  C  180  1  0.75099800  0.25305600  0.23616600  1
  C  181  1  0.74207700  0.23768100  0.26143400  1
  C  182  1  0.74054700  0.20718800  0.26104200  1
  C  183  1  0.75099800  0.19267000  0.23617200  1
  C  184  1  0.76144600  0.20718300  0.21130100  1
  C  185  1  0.75991600  0.23767600  0.21090200  1
  C  186  1  0.73469900  0.25354200  0.28641000  1
  C  188  1  0.76729500  0.25353100  0.18592100  1
  C  193  1  0.78057700  0.34662400  0.18944500  1
  C  196  1  0.72139300  0.34662900  0.28286500  1
  C  199  1  0.72736700  0.18967100  0.28538800  1
  C  202  1  0.77463000  0.18966200  0.18695900  1
  C  205  1  0.50099100  0.51582700  0.50151700  1
  C  206  1  0.50634600  0.48982000  0.51690300  1
  C  207  1  0.50865900  0.49022100  0.54734600  1
  C  208  1  0.50099100  0.51582900  0.56191500  1
  C  209  1  0.49332800  0.54143600  0.54734400  1
  C  210  1  0.49563900  0.54183500  0.51690000  1
  C  211  1  0.50971700  0.46413000  0.50114400  1
  C  212  1  0.49226300  0.56752300  0.50113900  1
  C  214  1  0.50099100  0.51582500  0.47081600  1
  C  215  1  0.50634300  0.48981600  0.45543000  1
  C  216  1  0.50865900  0.49021400  0.42498900  1
  C  217  1  0.50099400  0.51582300  0.41041500  1
  C  218  1  0.49332600  0.54143200  0.42498600  1
  C  219  1  0.49563700  0.54183300  0.45542800  1
  C  220  1  0.50971500  0.46412700  0.47119100  1
  C  222  1  0.49226000  0.56752100  0.47118600  1
  C  227  1  0.48104600  0.56637400  0.56450700  1
  C  230  1  0.52093700  0.46528100  0.56451200  1
  C  233  1  0.52093900  0.46527400  0.40782500  1
  C  236  1  0.48104100  0.56636500  0.40781900  1
  C  239  1  0.00097800  0.51584100  0.97082500  1
  C  240  1  0.00632700  0.54184700  0.95543900  1
  C  241  1  0.00862600  0.54145300  0.92499600  1
  C  242  1  0.00097500  0.51584100  0.91042600  1
  C  243  1  0.99331600  0.49023200  0.92499600  1
  C  244  1  0.99562800  0.48983100  0.95543900  1
  C  245  1  0.00970400  0.56753500  0.97119900  1
  C  246  1  0.99225900  0.46414300  0.97119800  1
  C  248  1  0.00098200  0.51583800  0.00152600  1
  C  249  1  0.00633500  0.54184500  0.01691200  1
  C  250  1  0.00864300  0.54145100  0.04735500  1
  C  251  1  0.00099100  0.51583600  0.06192400  1
  C  252  1  0.99332700  0.49022800  0.04735300  1
  C  253  1  0.99563100  0.48983100  0.01691200  1
  C  254  1  0.00970400  0.56753500  0.00115200  1
  C  256  1  0.99225700  0.46414300  0.00115100  1
  C  261  1  0.98103700  0.46529500  0.90783100  1
  C  264  1  0.02092600  0.56638400  0.90783000  1
  C  267  1  0.02094000  0.56638200  0.06451800  1
  C  270  1  0.98104600  0.46529000  0.06451900  1
  C  273  1  0.82572200  0.17877800  0.16056700  1
  C  274  1  0.85682000  0.16822500  0.16852600  1
  C  275  1  0.87305400  0.14879700  0.15022800  1
  C  276  1  0.85876000  0.13875500  0.12456400  1
  C  277  1  0.82759700  0.14929100  0.11638900  1
  C  278  1  0.81225300  0.16981000  0.13417200  1
  C  280  1  0.87704400  0.11914900  0.10751400  1
  C  281  1  0.88694200  0.09207000  0.11828200  1
  C  282  1  0.90629900  0.07410700  0.10085700  1
  C  283  1  0.91549500  0.08223500  0.07282700  1
  C  284  1  0.90468500  0.10884000  0.06157500  1
  C  285  1  0.88640100  0.12724300  0.07948300  1
  C  305  1  0.32573000  0.85287400  0.31176000  1
  C  306  1  0.35683200  0.86342300  0.30380300  1
  C  307  1  0.37306500  0.88285200  0.32209600  1
  C  308  1  0.35876800  0.89290000  0.34776000  1
  C  309  1  0.32760400  0.88236900  0.35593400  1
  C  310  1  0.31225800  0.86184800  0.33815400  1
  C  312  1  0.37705500  0.91250500  0.36480700  1
  C  313  1  0.38696000  0.93958000  0.35403700  1
  C  314  1  0.40632200  0.95754100  0.37146200  1
  C  315  1  0.41551500  0.94941500  0.39949100  1
  C  316  1  0.40469700  0.92281100  0.41074600  1
  C  317  1  0.38640800  0.90441200  0.39284100  1
  C  337  1  0.57174800  0.43802100  0.57379900  1
  C  338  1  0.60308500  0.44657800  0.58324700  1
  C  339  1  0.62033000  0.42883500  0.60248400  1
  C  340  1  0.60685100  0.40312400  0.61323300  1
  C  341  1  0.57539900  0.39440600  0.60388300  1
  C  342  1  0.55884500  0.41178000  0.58374800  1
  C  344  1  0.62618100  0.38666200  0.63247300  1
  C  345  1  0.63611600  0.39774600  0.65939800  1
  C  346  1  0.65656900  0.38097100  0.67701400  1
  C  347  1  0.66695900  0.35336200  0.66857900  1
  C  348  1  0.65634300  0.34185300  0.64202500  1
  C  349  1  0.63670000  0.35905900  0.62405400  1
  C  369  1  0.07174900  0.59362800  0.89854900  1
  C  370  1  0.10308600  0.58506400  0.88910000  1
  C  371  1  0.12033600  0.60280600  0.86986600  1
  C  372  1  0.10686400  0.62852200  0.85912100  1
  C  373  1  0.07541500  0.63724500  0.86847100  1
  C  374  1  0.05885600  0.61987400  0.88860500  1
  C  376  1  0.12619900  0.64498000  0.83987800  1
  C  377  1  0.13612400  0.63389500  0.81295000  1
  C  378  1  0.15657300  0.65067200  0.79533100  1
  C  379  1  0.16696500  0.67828100  0.80376300  1
  C  380  1  0.15635900  0.68978900  0.83032100  1
  C  381  1  0.13672000  0.67258300  0.84829600  1
  C  401  1  0.67627400  0.17878400  0.31177800  1
  C  402  1  0.64517500  0.16823500  0.30381700  1
  C  403  1  0.62893900  0.14880400  0.32211100  1
  C  404  1  0.64323600  0.13875200  0.34777100  1
  C  405  1  0.67440100  0.14928100  0.35594800  1
  C  406  1  0.68974400  0.16980600  0.33816900  1
  C  408  1  0.62495000  0.11914300  0.36481700  1
  C  409  1  0.61504900  0.09206700  0.35404300  1
  C  410  1  0.59569000  0.07410300  0.37146400  1
  C  411  1  0.58649700  0.08222200  0.39949600  1
  C  412  1  0.59731000  0.10882600  0.41075400  1
  C  413  1  0.61559600  0.12723000  0.39285100  1
  C  433  1  0.17626500  0.85287700  0.16056100  1
  C  434  1  0.14516400  0.86342600  0.16851800  1
  C  435  1  0.12892800  0.88285400  0.15022500  1
  C  436  1  0.14322500  0.89290200  0.12456000  1
  C  437  1  0.17439000  0.88237000  0.11638400  1
  C  438  1  0.18973500  0.86184900  0.13416700  1
  C  440  1  0.12493900  0.91250800  0.10751300  1
  C  441  1  0.11503300  0.93958300  0.11828200  1
  C  442  1  0.09567400  0.95754600  0.10086000  1
  C  443  1  0.08648300  0.94942100  0.07282800  1
  C  444  1  0.09729900  0.92281700  0.06157400  1
  C  445  1  0.11558500  0.90441600  0.07947900  1
  C  465  1  0.93022800  0.43803300  0.89854400  1
  C  466  1  0.89889100  0.44659200  0.88909200  1
  C  467  1  0.88164600  0.42884600  0.86985800  1
  C  468  1  0.89512300  0.40313200  0.85911500  1
  C  469  1  0.92657500  0.39441400  0.86846800  1
  C  470  1  0.94312900  0.41179000  0.88860100  1
  C  472  1  0.87579400  0.38666800  0.83987400  1
  C  473  1  0.86586700  0.39775100  0.81294500  1
  C  474  1  0.84541600  0.38097200  0.79533000  1
  C  475  1  0.83502400  0.35336500  0.80376800  1
  C  476  1  0.84563300  0.34186000  0.83032600  1
  C  477  1  0.86527300  0.35906800  0.84829700  1
  C  497  1  0.43023300  0.59362900  0.57379600  1
  C  498  1  0.39889300  0.58507300  0.58324100  1
  C  499  1  0.38164300  0.60281300  0.60247500  1
  C  500  1  0.39512000  0.62852400  0.61322500  1
  C  501  1  0.42657400  0.63724200  0.60388300  1
  C  502  1  0.44313300  0.61987100  0.58374800  1
  C  504  1  0.37578200  0.64498700  0.63246600  1
  C  505  1  0.36584000  0.63390000  0.65938700  1
  C  506  1  0.34537900  0.65067500  0.67699700  1
  C  507  1  0.33499400  0.67828400  0.66856200  1
  C  508  1  0.34562000  0.68979300  0.64201000  1
  C  509  1  0.36526800  0.67258900  0.62404400  1
  C  529  1  0.17626500  0.85287000  0.81176000  1
  C  530  1  0.14516400  0.86342100  0.80380500  1
  C  531  1  0.12893300  0.88285200  0.82210100  1
  C  532  1  0.14323200  0.89290000  0.84776200  1
  C  533  1  0.17439700  0.88236700  0.85593400  1
  C  534  1  0.18974000  0.86184400  0.83815100  1
  C  536  1  0.12495100  0.91250800  0.86481100  1
  C  537  1  0.11504800  0.93958300  0.85404000  1
  C  538  1  0.09568900  0.95754700  0.87146400  1
  C  539  1  0.08649600  0.94942200  0.89949400  1
  C  540  1  0.09731400  0.92281900  0.91075000  1
  C  541  1  0.11560000  0.90441700  0.89284500  1
  C  561  1  0.67625000  0.17878400  0.66056200  1
  C  562  1  0.64515100  0.16823300  0.66851900  1
  C  563  1  0.62891700  0.14880400  0.65022400  1
  C  564  1  0.64321400  0.13875900  0.62455900  1
  C  565  1  0.67437700  0.14929200  0.61638300  1
  C  566  1  0.68971900  0.16981500  0.63416800  1
  C  568  1  0.62493000  0.11915100  0.60751200  1
  C  569  1  0.61502900  0.09207400  0.61828000  1
  C  570  1  0.59567500  0.07410900  0.60085800  1
  C  571  1  0.58648200  0.08223500  0.57282600  1
  C  572  1  0.59729300  0.10884100  0.56157200  1
  C  573  1  0.61557400  0.12724300  0.57947900  1
  C  593  1  0.43022800  0.59362100  0.39853500  1
  C  594  1  0.39889000  0.58506200  0.38908300  1
  C  595  1  0.38164500  0.60280600  0.36985100  1
  C  596  1  0.39512000  0.62852000  0.35910600  1
  C  597  1  0.42656900  0.63724000  0.36846000  1
  C  598  1  0.44312600  0.61986400  0.38859300  1
  C  600  1  0.37579000  0.64498400  0.33986300  1
  C  601  1  0.36586400  0.63390200  0.31293600  1
  C  602  1  0.34541300  0.65067900  0.29531900  1
  C  603  1  0.33502100  0.67828600  0.30375600  1
  C  604  1  0.34563000  0.68979100  0.33031400  1
  C  605  1  0.36526800  0.67258500  0.34828500  1
  C  625  1  0.93023300  0.43803500  0.07381000  1
  C  626  1  0.89889300  0.44659200  0.08325500  1
  C  627  1  0.88164400  0.42884800  0.10248800  1
  C  628  1  0.89512100  0.40313700  0.11323600  1
  C  629  1  0.92657500  0.39441900  0.10389000  1
  C  630  1  0.94313300  0.41179400  0.08375900  1
  C  632  1  0.87578600  0.38667000  0.13247300  1
  C  633  1  0.86584500  0.39775300  0.15939900  1
  C  634  1  0.84538600  0.38097600  0.17700600  1
  C  635  1  0.83499900  0.35336700  0.16856700  1
  C  636  1  0.84562100  0.34186200  0.14201300  1
  C  637  1  0.86526900  0.35907000  0.12404800  1
  C  657  1  0.32572600  0.85286400  0.66055500  1
  C  658  1  0.35682700  0.86341000  0.66851500  1
  C  659  1  0.37306500  0.88283800  0.65022100  1
  C  660  1  0.35877300  0.89288900  0.62455900  1
  C  661  1  0.32760800  0.88236200  0.61638000  1
  C  662  1  0.31225800  0.86184100  0.63416100  1
  C  664  1  0.37706400  0.91249500  0.60751300  1
  C  665  1  0.38697000  0.93956900  0.61828500  1
  C  666  1  0.40632900  0.95753200  0.60086200  1
  C  667  1  0.41552200  0.94940800  0.57283200  1
  C  668  1  0.40470400  0.92280600  0.56157400  1
  C  669  1  0.38641800  0.90440400  0.57948000  1
  C  689  1  0.82572700  0.17877600  0.81175800  1
  C  690  1  0.85682600  0.16822300  0.80380000  1
  C  691  1  0.87305800  0.14879300  0.82209600  1
  C  692  1  0.85876100  0.13874800  0.84776000  1
  C  693  1  0.82759800  0.14928400  0.85593500  1
  C  694  1  0.81225600  0.16980500  0.83815100  1
  C  696  1  0.87704400  0.11914100  0.86480700  1
  C  697  1  0.88694300  0.09206300  0.85403800  1
  C  698  1  0.90629900  0.07409800  0.87146200  1
  C  699  1  0.91549200  0.08222200  0.89949200  1
  C  700  1  0.90468100  0.10882800  0.91074600  1
  C  701  1  0.88639900  0.12723200  0.89284100  1
  C  721  1  0.07175800  0.59363200  0.07379400  1
  C  722  1  0.10309800  0.58507300  0.08323600  1
  C  723  1  0.12035300  0.60281500  0.10246600  1
  C  724  1  0.10688100  0.62852900  0.11321400  1
  C  725  1  0.07542400  0.63724900  0.10387300  1
  C  726  1  0.05886300  0.61987400  0.08374500  1
  C  728  1  0.12621800  0.64499100  0.13245300  1
  C  729  1  0.13615800  0.63390800  0.15937600  1
  C  730  1  0.15661700  0.65068300  0.17698400  1
  C  731  1  0.16700200  0.67829400  0.16854700  1
  C  732  1  0.15638100  0.68979900  0.14199300  1
  C  733  1  0.13673200  0.67259300  0.12402800  1
  C  753  1  0.57175200  0.43801900  0.39853700  1
  C  754  1  0.60309200  0.44657800  0.38909200  1
  C  755  1  0.62034000  0.42883500  0.36985500  1
  C  756  1  0.60686300  0.40312400  0.35910700  1
  C  757  1  0.57541100  0.39440400  0.36845400  1
  C  758  1  0.55885200  0.41177800  0.38858900  1
  C  760  1  0.62619800  0.38666400  0.33986400  1
  C  761  1  0.63613000  0.39774800  0.31293900  1
  C  762  1  0.65658700  0.38097300  0.29532500  1
  C  763  1  0.66697600  0.35336400  0.30376000  1
  C  764  1  0.65636000  0.34185700  0.33031400  1
  C  765  1  0.63671700  0.35906100  0.34828400  1
  C  785  1  0.68474100  0.01581500  0.00152400  1
  C  786  1  0.69658100  0.99155800  0.01694000  1
  C  787  1  0.69843700  0.99221500  0.04740700  1
  C  788  1  0.68473600  0.01581700  0.06195800  1
  C  789  1  0.67103200  0.03941700  0.04740500  1
  C  790  1  0.67289600  0.04007500  0.01693700  1
  C  791  1  0.70621200  0.96719000  0.00113800  1
  C  792  1  0.66326400  0.06444100  0.00113500  1
  C  794  1  0.68474400  0.01581500  0.97079600  1
  C  795  1  0.69659100  0.99155800  0.95538400  1
  C  796  1  0.69844700  0.99221300  0.92491700  1
  C  797  1  0.68474200  0.01581300  0.91036300  1
  C  798  1  0.67103500  0.03941300  0.92491400  1
  C  799  1  0.67289800  0.04007300  0.95538100  1
  C  800  1  0.70623900  0.96719700  0.97118600  1
  C  802  1  0.66326500  0.06443800  0.97118100  1
  C  807  1  0.65349400  0.06170100  0.06463900  1
  C  810  1  0.71598400  0.96994000  0.06464300  1
  C  813  1  0.71599900  0.96993900  0.90768100  1
  C  816  1  0.65349300  0.06169200  0.90767800  1
  C  819  1  0.18475500  0.01581500  0.47079400  1
  C  820  1  0.19659500  0.04007500  0.45538000  1
  C  821  1  0.19845600  0.03941900  0.42491300  1
  C  822  1  0.18476500  0.01581000  0.41036200  1
  C  823  1  0.17106900  0.99220600  0.42491400  1
  C  824  1  0.17291800  0.99155500  0.45538100  1
  C  825  1  0.20621600  0.06444400  0.47118000  1
  C  826  1  0.16328200  0.96719000  0.47118300  1
  C  828  1  0.18475500  0.01581500  0.50152300  1
  C  829  1  0.19659000  0.04007700  0.51693600  1
  C  830  1  0.19845100  0.03942300  0.54740400  1
  C  831  1  0.18476200  0.01581500  0.56195600  1
  C  832  1  0.17107100  0.99220700  0.54740400  1
  C  833  1  0.17292000  0.99155500  0.51693700  1
  C  834  1  0.20621300  0.06444600  0.50113400  1
  C  836  1  0.16329400  0.96718700  0.50113800  1
  C  841  1  0.15352000  0.96993200  0.40767800  1
  C  844  1  0.21600200  0.06169500  0.40767700  1
  C  847  1  0.21599000  0.06170200  0.56463900  1
  C  850  1  0.15352700  0.96993100  0.56464300  1
  C  853  1  0.43475200  0.28377400  0.73616100  1
  C  854  1  0.44458900  0.29919600  0.76108800  1
  C  855  1  0.44698300  0.32962600  0.76034400  1
  C  856  1  0.43475400  0.34422100  0.73616300  1
  C  857  1  0.42252800  0.32962700  0.71198000  1
  C  858  1  0.42491700  0.29919800  0.71123200  1
  C  859  1  0.45187500  0.28348000  0.78613000  1
  C  860  1  0.41762800  0.28348400  0.68619000  1
  C  862  1  0.43475000  0.25305600  0.73615900  1
  C  863  1  0.44367600  0.23767800  0.76142100  1
  C  864  1  0.44520900  0.20718500  0.76102400  1
  C  865  1  0.43474200  0.19266800  0.73616000  1
  C  866  1  0.42427900  0.20718800  0.71129500  1
  C  867  1  0.42581700  0.23768100  0.71089800  1
  C  868  1  0.45106800  0.25353400  0.78639800  1
  C  870  1  0.41842900  0.25353800  0.68592200  1
  C  875  1  0.40513200  0.34662500  0.68946600  1
  C  878  1  0.46436800  0.34662200  0.78286500  1
  C  881  1  0.45838900  0.18966400  0.78536800  1
  C  884  1  0.41109700  0.18966900  0.68695200  1
  C  887  1  0.93472450  0.74787500  0.73614100  1
  C  888  1  0.94454550  0.73245200  0.71120600  1
  C  889  1  0.94691650  0.70202200  0.71194200  1
  C  890  1  0.93471250  0.68742500  0.73613100  1
  C  891  1  0.92250550  0.70202000  0.76032300  1
  C  892  1  0.92489850  0.73244800  0.76107100  1
  C  893  1  0.95183050  0.74816800  0.68616500  1
  C  894  1  0.91763250  0.74816000  0.78611900  1
  C  896  1  0.93473450  0.77859300  0.73614500  1
  C  897  1  0.94365950  0.79397100  0.71088400  1
  C  898  1  0.94519750  0.82446300  0.71128200  1
  C  899  1  0.93474350  0.83897900  0.73615300  1
  C  900  1  0.92428350  0.82446000  0.76101600  1
  C  901  1  0.92581150  0.79396700  0.76141100  1
  C  902  1  0.95104050  0.77811400  0.68590300  1
  C  904  1  0.91842850  0.77810600  0.78638700  1
  C  909  1  0.90512650  0.68502200  0.78284700  1
  C  912  1  0.96432250  0.68502300  0.68943300  1
  C  915  1  0.95838450  0.84198400  0.68694300  1
  C  918  1  0.91110850  0.84197800  0.78536400  1
  C  921  1  0.93477050  0.74788300  0.23614300  1
  C  922  1  0.92495050  0.73246300  0.21120800  1
  C  923  1  0.92257050  0.70203300  0.21194800  1
  C  924  1  0.93477550  0.68743400  0.23613500  1
  C  925  1  0.94698550  0.70202800  0.26032400  1
  C  926  1  0.94459350  0.73245700  0.26107400  1
  C  927  1  0.91768350  0.74817900  0.18616500  1
  C  928  1  0.95186050  0.74816800  0.28612300  1
  C  930  1  0.93476550  0.77860100  0.23614900  1
  C  931  1  0.92583750  0.79398100  0.21088800  1
  C  932  1  0.92430050  0.82447400  0.21129100  1
  C  933  1  0.93475350  0.83898800  0.23616000  1
  C  934  1  0.94521450  0.82446800  0.26102400  1
  C  935  1  0.94368650  0.79397500  0.26141500  1
  C  936  1  0.91845750  0.77812800  0.18590800  1
  C  938  1  0.95106950  0.77811400  0.28639100  1
  C  943  1  0.96436850  0.68502800  0.28284700  1
  C  946  1  0.90517750  0.68503700  0.18942900  1
  C  949  1  0.91111350  0.84199500  0.18694900  1
  C  952  1  0.95839150  0.84198500  0.28537000  1
  C  955  1  0.43474700  0.28377400  0.23616300  1
  C  956  1  0.42492600  0.29920000  0.26109400  1
  C  957  1  0.42254000  0.32962900  0.26035000  1
  C  958  1  0.43473300  0.34422100  0.23615200  1
  C  959  1  0.44693300  0.32962400  0.21195800  1
  C  960  1  0.44456400  0.29919600  0.21122500  1
  C  961  1  0.41767000  0.28348800  0.28614400  1
  C  962  1  0.45184400  0.28347800  0.18618500  1
  C  964  1  0.43475200  0.25305600  0.23616600  1
  C  965  1  0.42583100  0.23768100  0.26143400  1
  C  966  1  0.42430100  0.20718800  0.26104200  1
  C  967  1  0.43475200  0.19267000  0.23617200  1
  C  968  1  0.44520000  0.20718300  0.21130100  1
  C  969  1  0.44367000  0.23767600  0.21090200  1
  C  970  1  0.41845300  0.25354200  0.28641000  1
  C  972  1  0.45104900  0.25353100  0.18592100  1
  C  977  1  0.46433100  0.34662400  0.18944500  1
  C  980  1  0.40514700  0.34662900  0.28286500  1
  C  983  1  0.41112100  0.18967100  0.28538800  1
  C  986  1  0.45838400  0.18966200  0.18695900  1
  C  989  1  0.18474500  0.51582700  0.50151700  1
  C  990  1  0.19010000  0.48982000  0.51690300  1
  C  991  1  0.19241300  0.49022100  0.54734600  1
  C  992  1  0.18474500  0.51582900  0.56191500  1
  C  993  1  0.17708200  0.54143600  0.54734400  1
  C  994  1  0.17939300  0.54183500  0.51690000  1
  C  995  1  0.19347100  0.46413000  0.50114400  1
  C  996  1  0.17601700  0.56752300  0.50113900  1
  C  998  1  0.18474500  0.51582500  0.47081600  1
  C  999  1  0.19009700  0.48981600  0.45543000  1
  C  1000  1  0.19241300  0.49021400  0.42498900  1
  C  1001  1  0.18474800  0.51582300  0.41041500  1
  C  1002  1  0.17708000  0.54143200  0.42498600  1
  C  1003  1  0.17939100  0.54183300  0.45542800  1
  C  1004  1  0.19346900  0.46412700  0.47119100  1
  C  1006  1  0.17601400  0.56752100  0.47118600  1
  C  1011  1  0.16480000  0.56637400  0.56450700  1
  C  1014  1  0.20469100  0.46528100  0.56451200  1
  C  1017  1  0.20469300  0.46527400  0.40782500  1
  C  1020  1  0.16479500  0.56636500  0.40781900  1
  C  1023  1  0.68473200  0.51584100  0.97082500  1
  C  1024  1  0.69008100  0.54184700  0.95543900  1
  C  1025  1  0.69238000  0.54145300  0.92499600  1
  C  1026  1  0.68472900  0.51584100  0.91042600  1
  C  1027  1  0.67707000  0.49023200  0.92499600  1
  C  1028  1  0.67938200  0.48983100  0.95543900  1
  C  1029  1  0.69345800  0.56753500  0.97119900  1
  C  1030  1  0.67601300  0.46414300  0.97119800  1
  C  1032  1  0.68473600  0.51583800  0.00152600  1
  C  1033  1  0.69008900  0.54184500  0.01691200  1
  C  1034  1  0.69239700  0.54145100  0.04735500  1
  C  1035  1  0.68474500  0.51583600  0.06192400  1
  C  1036  1  0.67708100  0.49022800  0.04735300  1
  C  1037  1  0.67938500  0.48983100  0.01691200  1
  C  1038  1  0.69345800  0.56753500  0.00115200  1
  C  1040  1  0.67601100  0.46414300  0.00115100  1
  C  1045  1  0.66479100  0.46529500  0.90783100  1
  C  1048  1  0.70468000  0.56638400  0.90783000  1
  C  1051  1  0.70469400  0.56638200  0.06451800  1
  C  1054  1  0.66480000  0.46529000  0.06451900  1
  C  1057  1  0.50947600  0.17877800  0.16056700  1
  C  1058  1  0.54057400  0.16822500  0.16852600  1
  C  1059  1  0.55680800  0.14879700  0.15022800  1
  C  1060  1  0.54251400  0.13875500  0.12456400  1
  C  1061  1  0.51135100  0.14929100  0.11638900  1
  C  1062  1  0.49600700  0.16981000  0.13417200  1
  C  1064  1  0.56079800  0.11914900  0.10751400  1
  C  1065  1  0.57069600  0.09207000  0.11828200  1
  C  1066  1  0.59005300  0.07410700  0.10085700  1
  C  1067  1  0.59924900  0.08223500  0.07282700  1
  C  1068  1  0.58843900  0.10884000  0.06157500  1
  C  1069  1  0.57015500  0.12724300  0.07948300  1
  C  1089  1  0.00948400  0.85287400  0.31176000  1
  C  1090  1  0.04058600  0.86342300  0.30380300  1
  C  1091  1  0.05681900  0.88285200  0.32209600  1
  C  1092  1  0.04252200  0.89290000  0.34776000  1
  C  1093  1  0.01135800  0.88236900  0.35593400  1
  C  1094  1  0.99601247  0.86184800  0.33815400  1
  C  1096  1  0.06080900  0.91250500  0.36480700  1
  C  1097  1  0.07071400  0.93958000  0.35403700  1
  C  1098  1  0.09007600  0.95754100  0.37146200  1
  C  1099  1  0.09926900  0.94941500  0.39949100  1
  C  1100  1  0.08845100  0.92281100  0.41074600  1
  C  1101  1  0.07016200  0.90441200  0.39284100  1
  C  1121  1  0.25550200  0.43802100  0.57379900  1
  C  1122  1  0.28683900  0.44657800  0.58324700  1
  C  1123  1  0.30408400  0.42883500  0.60248400  1
  C  1124  1  0.29060500  0.40312400  0.61323300  1
  C  1125  1  0.25915300  0.39440600  0.60388300  1
  C  1126  1  0.24259900  0.41178000  0.58374800  1
  C  1128  1  0.30993500  0.38666200  0.63247300  1
  C  1129  1  0.31987000  0.39774600  0.65939800  1
  C  1130  1  0.34032300  0.38097100  0.67701400  1
  C  1131  1  0.35071300  0.35336200  0.66857900  1
  C  1132  1  0.34009700  0.34185300  0.64202500  1
  C  1133  1  0.32045400  0.35905900  0.62405400  1
  C  1153  1  0.75550300  0.59362800  0.89854900  1
  C  1154  1  0.78684000  0.58506400  0.88910000  1
  C  1155  1  0.80409000  0.60280600  0.86986600  1
  C  1156  1  0.79061800  0.62852200  0.85912100  1
  C  1157  1  0.75916900  0.63724500  0.86847100  1
  C  1158  1  0.74261000  0.61987400  0.88860500  1
  C  1160  1  0.80995300  0.64498000  0.83987800  1
  C  1161  1  0.81987800  0.63389500  0.81295000  1
  C  1162  1  0.84032700  0.65067200  0.79533100  1
  C  1163  1  0.85071900  0.67828100  0.80376300  1
  C  1164  1  0.84011300  0.68978900  0.83032100  1
  C  1165  1  0.82047400  0.67258300  0.84829600  1
  C  1185  1  0.36002800  0.17878400  0.31177800  1
  C  1186  1  0.32892900  0.16823500  0.30381700  1
  C  1187  1  0.31269300  0.14880400  0.32211100  1
  C  1188  1  0.32699000  0.13875200  0.34777100  1
  C  1189  1  0.35815500  0.14928100  0.35594800  1
  C  1190  1  0.37349800  0.16980600  0.33816900  1
  C  1192  1  0.30870400  0.11914300  0.36481700  1
  C  1193  1  0.29880300  0.09206700  0.35404300  1
  C  1194  1  0.27944400  0.07410300  0.37146400  1
  C  1195  1  0.27025100  0.08222200  0.39949600  1
  C  1196  1  0.28106400  0.10882600  0.41075400  1
  C  1197  1  0.29935000  0.12723000  0.39285100  1
  C  1217  1  0.86001900  0.85287700  0.16056100  1
  C  1218  1  0.82891800  0.86342600  0.16851800  1
  C  1219  1  0.81268200  0.88285400  0.15022500  1
  C  1220  1  0.82697900  0.89290200  0.12456000  1
  C  1221  1  0.85814400  0.88237000  0.11638400  1
  C  1222  1  0.87348900  0.86184900  0.13416700  1
  C  1224  1  0.80869300  0.91250800  0.10751300  1
  C  1225  1  0.79878700  0.93958300  0.11828200  1
  C  1226  1  0.77942800  0.95754600  0.10086000  1
  C  1227  1  0.77023700  0.94942100  0.07282800  1
  C  1228  1  0.78105300  0.92281700  0.06157400  1
  C  1229  1  0.79933900  0.90441600  0.07947900  1
  C  1249  1  0.61398200  0.43803300  0.89854400  1
  C  1250  1  0.58264500  0.44659200  0.88909200  1
  C  1251  1  0.56540000  0.42884600  0.86985800  1
  C  1252  1  0.57887700  0.40313200  0.85911500  1
  C  1253  1  0.61032900  0.39441400  0.86846800  1
  C  1254  1  0.62688300  0.41179000  0.88860100  1
  C  1256  1  0.55954800  0.38666800  0.83987400  1
  C  1257  1  0.54962100  0.39775100  0.81294500  1
  C  1258  1  0.52917000  0.38097200  0.79533000  1
  C  1259  1  0.51877800  0.35336500  0.80376800  1
  C  1260  1  0.52938700  0.34186000  0.83032600  1
  C  1261  1  0.54902700  0.35906800  0.84829700  1
  C  1281  1  0.11398700  0.59362900  0.57379600  1
  C  1282  1  0.08264700  0.58507300  0.58324100  1
  C  1283  1  0.06539700  0.60281300  0.60247500  1
  C  1284  1  0.07887400  0.62852400  0.61322500  1
  C  1285  1  0.11032800  0.63724200  0.60388300  1
  C  1286  1  0.12688700  0.61987100  0.58374800  1
  C  1288  1  0.05953600  0.64498700  0.63246600  1
  C  1289  1  0.04959400  0.63390000  0.65938700  1
  C  1290  1  0.02913300  0.65067500  0.67699700  1
  C  1291  1  0.01874800  0.67828400  0.66856200  1
  C  1292  1  0.02937400  0.68979300  0.64201000  1
  C  1293  1  0.04902200  0.67258900  0.62404400  1
  C  1313  1  0.86001900  0.85287000  0.81176000  1
  C  1314  1  0.82891800  0.86342100  0.80380500  1
  C  1315  1  0.81268700  0.88285200  0.82210100  1
  C  1316  1  0.82698600  0.89290000  0.84776200  1
  C  1317  1  0.85815100  0.88236700  0.85593400  1
  C  1318  1  0.87349400  0.86184400  0.83815100  1
  C  1320  1  0.80870500  0.91250800  0.86481100  1
  C  1321  1  0.79880200  0.93958300  0.85404000  1
  C  1322  1  0.77944300  0.95754700  0.87146400  1
  C  1323  1  0.77025000  0.94942200  0.89949400  1
  C  1324  1  0.78106800  0.92281900  0.91075000  1
  C  1325  1  0.79935400  0.90441700  0.89284500  1
  C  1345  1  0.36000400  0.17878400  0.66056200  1
  C  1346  1  0.32890500  0.16823300  0.66851900  1
  C  1347  1  0.31267100  0.14880400  0.65022400  1
  C  1348  1  0.32696800  0.13875900  0.62455900  1
  C  1349  1  0.35813100  0.14929200  0.61638300  1
  C  1350  1  0.37347300  0.16981500  0.63416800  1
  C  1352  1  0.30868400  0.11915100  0.60751200  1
  C  1353  1  0.29878300  0.09207400  0.61828000  1
  C  1354  1  0.27942900  0.07410900  0.60085800  1
  C  1355  1  0.27023600  0.08223500  0.57282600  1
  C  1356  1  0.28104700  0.10884100  0.56157200  1
  C  1357  1  0.29932800  0.12724300  0.57947900  1
  C  1377  1  0.11398200  0.59362100  0.39853500  1
  C  1378  1  0.08264400  0.58506200  0.38908300  1
  C  1379  1  0.06539900  0.60280600  0.36985100  1
  C  1380  1  0.07887400  0.62852000  0.35910600  1
  C  1381  1  0.11032300  0.63724000  0.36846000  1
  C  1382  1  0.12688000  0.61986400  0.38859300  1
  C  1384  1  0.05954400  0.64498400  0.33986300  1
  C  1385  1  0.04961800  0.63390200  0.31293600  1
  C  1386  1  0.02916700  0.65067900  0.29531900  1
  C  1387  1  0.01877500  0.67828600  0.30375600  1
  C  1388  1  0.02938400  0.68979100  0.33031400  1
  C  1389  1  0.04902200  0.67258500  0.34828500  1
  C  1409  1  0.61398700  0.43803500  0.07381000  1
  C  1410  1  0.58264700  0.44659200  0.08325500  1
  C  1411  1  0.56539800  0.42884800  0.10248800  1
  C  1412  1  0.57887500  0.40313700  0.11323600  1
  C  1413  1  0.61032900  0.39441900  0.10389000  1
  C  1414  1  0.62688700  0.41179400  0.08375900  1
  C  1416  1  0.55954000  0.38667000  0.13247300  1
  C  1417  1  0.54959900  0.39775300  0.15939900  1
  C  1418  1  0.52914000  0.38097600  0.17700600  1
  C  1419  1  0.51875300  0.35336700  0.16856700  1
  C  1420  1  0.52937500  0.34186200  0.14201300  1
  C  1421  1  0.54902300  0.35907000  0.12404800  1
  C  1441  1  0.00948000  0.85286400  0.66055500  1
  C  1442  1  0.04058100  0.86341000  0.66851500  1
  C  1443  1  0.05681900  0.88283800  0.65022100  1
  C  1444  1  0.04252700  0.89288900  0.62455900  1
  C  1445  1  0.01136200  0.88236200  0.61638000  1
  C  1446  1  0.99601247  0.86184100  0.63416100  1
  C  1448  1  0.06081800  0.91249500  0.60751300  1
  C  1449  1  0.07072400  0.93956900  0.61828500  1
  C  1450  1  0.09008300  0.95753200  0.60086200  1
  C  1451  1  0.09927600  0.94940800  0.57283200  1
  C  1452  1  0.08845800  0.92280600  0.56157400  1
  C  1453  1  0.07017200  0.90440400  0.57948000  1
  C  1473  1  0.50948100  0.17877600  0.81175800  1
  C  1474  1  0.54058000  0.16822300  0.80380000  1
  C  1475  1  0.55681200  0.14879300  0.82209600  1
  C  1476  1  0.54251500  0.13874800  0.84776000  1
  C  1477  1  0.51135200  0.14928400  0.85593500  1
  C  1478  1  0.49601000  0.16980500  0.83815100  1
  C  1480  1  0.56079800  0.11914100  0.86480700  1
  C  1481  1  0.57069700  0.09206300  0.85403800  1
  C  1482  1  0.59005300  0.07409800  0.87146200  1
  C  1483  1  0.59924600  0.08222200  0.89949200  1
  C  1484  1  0.58843500  0.10882800  0.91074600  1
  C  1485  1  0.57015300  0.12723200  0.89284100  1
  C  1505  1  0.75551200  0.59363200  0.07379400  1
  C  1506  1  0.78685200  0.58507300  0.08323600  1
  C  1507  1  0.80410700  0.60281500  0.10246600  1
  C  1508  1  0.79063500  0.62852900  0.11321400  1
  C  1509  1  0.75917800  0.63724900  0.10387300  1
  C  1510  1  0.74261700  0.61987400  0.08374500  1
  C  1512  1  0.80997200  0.64499100  0.13245300  1
  C  1513  1  0.81991200  0.63390800  0.15937600  1
  C  1514  1  0.84037100  0.65068300  0.17698400  1
  C  1515  1  0.85075600  0.67829400  0.16854700  1
  C  1516  1  0.84013500  0.68979900  0.14199300  1
  C  1517  1  0.82048600  0.67259300  0.12402800  1
  C  1537  1  0.25550600  0.43801900  0.39853700  1
  C  1538  1  0.28684600  0.44657800  0.38909200  1
  C  1539  1  0.30409400  0.42883500  0.36985500  1
  C  1540  1  0.29061700  0.40312400  0.35910700  1
  C  1541  1  0.25916500  0.39440400  0.36845400  1
  C  1542  1  0.24260600  0.41177800  0.38858900  1
  C  1544  1  0.30995200  0.38666400  0.33986400  1
  C  1545  1  0.31988400  0.39774800  0.31293900  1
  C  1546  1  0.34034100  0.38097300  0.29532500  1
  C  1547  1  0.35073000  0.35336400  0.30376000  1
  C  1548  1  0.34011400  0.34185700  0.33031400  1
  C  1549  1  0.32047100  0.35906100  0.34828400  1
  N  289  1  0.87692900  0.08317000  0.14596000  1
  N  290  1  0.81143200  0.13997500  0.09265700  1
  N  293  1  0.91125800  0.11717000  0.03425800  1
  N  296  1  0.87146900  0.17732200  0.19444900  1
  N  301  1  0.80783900  0.19875000  0.17763000  1
  N  303  1  0.93485800  0.06347600  0.05607800  1
  N  321  1  0.37695200  0.94847900  0.32635700  1
  N  322  1  0.31143900  0.89168900  0.37966300  1
  N  325  1  0.41126800  0.91448200  0.43806500  1
  N  328  1  0.37148100  0.85431900  0.27788100  1
  N  333  1  0.30784800  0.83290000  0.29470000  1
  N  335  1  0.43488400  0.96816800  0.41624000  1
  N  353  1  0.62503500  0.42504900  0.66847200  1
  N  354  1  0.56017800  0.37049800  0.61393300  1
  N  357  1  0.66438800  0.31494900  0.63335700  1
  N  360  1  0.61682700  0.47261100  0.57339500  1
  N  365  1  0.55296500  0.45435200  0.55396900  1
  N  367  1  0.68688300  0.33704500  0.68720400  1
  N  385  1  0.12503900  0.60659500  0.80387800  1
  N  386  1  0.06020100  0.66115700  0.85842400  1
  N  389  1  0.16440600  0.71669200  0.83898700  1
  N  392  1  0.11681900  0.55902900  0.89894900  1
  N  397  1  0.05295900  0.57729700  0.91837500  1
  N  399  1  0.18687700  0.69460000  0.78512800  1
  N  417  1  0.62505900  0.08317400  0.32636100  1
  N  418  1  0.69056600  0.13995900  0.37967600  1
  N  421  1  0.59074200  0.11714700  0.43807600  1
  N  424  1  0.63052500  0.17734100  0.27789800  1
  N  429  1  0.69415600  0.19875800  0.29471900  1
  N  431  1  0.56712800  0.06346400  0.41624200  1
  N  449  1  0.12504300  0.94848100  0.14596200  1
  N  450  1  0.19055500  0.89169000  0.09265600  1
  N  453  1  0.09073100  0.91449000  0.03425500  1
  N  456  1  0.13051400  0.85432400  0.19444000  1
  N  461  1  0.19415000  0.83290500  0.17762100  1
  N  463  1  0.06711200  0.96817500  0.05608100  1
  N  481  1  0.87695000  0.42505100  0.80386900  1
  N  482  1  0.94179500  0.37050400  0.85842300  1
  N  485  1  0.83758500  0.31495800  0.83899900  1
  N  488  1  0.88515100  0.47262600  0.89893900  1
  N  493  1  0.94900900  0.45436600  0.91837300  1
  N  495  1  0.81510900  0.33704200  0.78513900  1
  N  513  1  0.37691600  0.60659700  0.66846300  1
  N  514  1  0.44179300  0.66114800  0.61393600  1
  N  517  1  0.33757500  0.71669900  0.63334100  1
  N  520  1  0.38515300  0.55904000  0.57338500  1
  N  525  1  0.44901800  0.57730000  0.55396700  1
  N  527  1  0.31506600  0.69460100  0.68718100  1
  N  545  1  0.12505600  0.94848000  0.82635900  1
  N  546  1  0.19056700  0.89168600  0.87966100  1
  N  549  1  0.09074300  0.91449200  0.93807100  1
  N  552  1  0.13051000  0.85431800  0.77788700  1
  N  557  1  0.19414300  0.83289500  0.79469800  1
  N  559  1  0.06712700  0.96817600  0.91624300  1
  N  577  1  0.62504200  0.08317600  0.64596000  1
  N  578  1  0.69054400  0.13997600  0.59265500  1
  N  581  1  0.59072200  0.11716800  0.53425400  1
  N  584  1  0.63049900  0.17733200  0.69444100  1
  N  589  1  0.69413200  0.19875500  0.67762400  1
  N  591  1  0.56711800  0.06347700  0.55607700  1
  N  609  1  0.37695000  0.60660100  0.30386100  1
  N  610  1  0.44178800  0.66115200  0.35841500  1
  N  613  1  0.33758000  0.71669500  0.33898200  1
  N  616  1  0.38515300  0.55902700  0.39893100  1
  N  621  1  0.44901000  0.57728700  0.41836400  1
  N  623  1  0.31510700  0.69460700  0.28512600  1
  N  641  1  0.87692300  0.42505600  0.16847600  1
  N  642  1  0.94179300  0.37051000  0.11393900  1
  N  645  1  0.83757500  0.31496000  0.13333900  1
  N  648  1  0.88515300  0.47262600  0.07340300  1
  N  653  1  0.94901700  0.45436600  0.05397900  1
  N  655  1  0.81507400  0.33704700  0.18718900  1
  N  673  1  0.37696000  0.94846600  0.64596500  1
  N  674  1  0.31144600  0.89168500  0.59265200  1
  N  677  1  0.41127500  0.91448000  0.53425400  1
  N  680  1  0.37147400  0.85430400  0.69443700  1
  N  685  1  0.30783800  0.83289200  0.67761300  1
  N  687  1  0.43488900  0.96816400  0.55608200  1
  N  705  1  0.87693200  0.08316500  0.82635900  1
  N  706  1  0.81143100  0.13996600  0.87966400  1
  N  709  1  0.91125100  0.11715500  0.93806600  1
  N  712  1  0.87147700  0.17732200  0.77787800  1
  N  717  1  0.80784600  0.19874800  0.79469600  1
  N  719  1  0.93485700  0.06346500  0.91624100  1
  N  737  1  0.12508200  0.60660600  0.16845200  1
  N  738  1  0.06021100  0.66115700  0.11392700  1
  N  741  1  0.16442300  0.71670300  0.13332200  1
  N  744  1  0.11683600  0.55904000  0.07338200  1
  N  749  1  0.05296900  0.57730100  0.05397100  1
  N  751  1  0.18692500  0.69461200  0.18717000  1
  N  769  1  0.62505000  0.42505100  0.30386700  1
  N  770  1  0.56019200  0.37049800  0.35840100  1
  N  773  1  0.66440800  0.31495100  0.33898300  1
  N  776  1  0.61683000  0.47261100  0.39894500  1
  N  781  1  0.55296700  0.45434800  0.41836700  1
  N  783  1  0.68689700  0.33704800  0.28513200  1
  N  1073  1  0.56068300  0.08317000  0.14596000  1
  N  1074  1  0.49518600  0.13997500  0.09265700  1
  N  1077  1  0.59501200  0.11717000  0.03425800  1
  N  1080  1  0.55522300  0.17732200  0.19444900  1
  N  1085  1  0.49159300  0.19875000  0.17763000  1
  N  1087  1  0.61861200  0.06347600  0.05607800  1
  N  1105  1  0.06070600  0.94847900  0.32635700  1
  N  1106  1  0.99519347  0.89168900  0.37966300  1
  N  1109  1  0.09502200  0.91448200  0.43806500  1
  N  1112  1  0.05523500  0.85431900  0.27788100  1
  N  1117  1  0.99160247  0.83290000  0.29470000  1
  N  1119  1  0.11863800  0.96816800  0.41624000  1
  N  1137  1  0.30878900  0.42504900  0.66847200  1
  N  1138  1  0.24393200  0.37049800  0.61393300  1
  N  1141  1  0.34814200  0.31494900  0.63335700  1
  N  1144  1  0.30058100  0.47261100  0.57339500  1
  N  1149  1  0.23671900  0.45435200  0.55396900  1
  N  1151  1  0.37063700  0.33704500  0.68720400  1
  N  1169  1  0.80879300  0.60659500  0.80387800  1
  N  1170  1  0.74395500  0.66115700  0.85842400  1
  N  1173  1  0.84816000  0.71669200  0.83898700  1
  N  1176  1  0.80057300  0.55902900  0.89894900  1
  N  1181  1  0.73671300  0.57729700  0.91837500  1
  N  1183  1  0.87063100  0.69460000  0.78512800  1
  N  1201  1  0.30881300  0.08317400  0.32636100  1
  N  1202  1  0.37432000  0.13995900  0.37967600  1
  N  1205  1  0.27449600  0.11714700  0.43807600  1
  N  1208  1  0.31427900  0.17734100  0.27789800  1
  N  1213  1  0.37791000  0.19875800  0.29471900  1
  N  1215  1  0.25088200  0.06346400  0.41624200  1
  N  1233  1  0.80879700  0.94848100  0.14596200  1
  N  1234  1  0.87430900  0.89169000  0.09265600  1
  N  1237  1  0.77448500  0.91449000  0.03425500  1
  N  1240  1  0.81426800  0.85432400  0.19444000  1
  N  1245  1  0.87790400  0.83290500  0.17762100  1
  N  1247  1  0.75086600  0.96817500  0.05608100  1
  N  1265  1  0.56070400  0.42505100  0.80386900  1
  N  1266  1  0.62554900  0.37050400  0.85842300  1
  N  1269  1  0.52133900  0.31495800  0.83899900  1
  N  1272  1  0.56890500  0.47262600  0.89893900  1
  N  1277  1  0.63276300  0.45436600  0.91837300  1
  N  1279  1  0.49886300  0.33704200  0.78513900  1
  N  1297  1  0.06067000  0.60659700  0.66846300  1
  N  1298  1  0.12554700  0.66114800  0.61393600  1
  N  1301  1  0.02132900  0.71669900  0.63334100  1
  N  1304  1  0.06890700  0.55904000  0.57338500  1
  N  1309  1  0.13277200  0.57730000  0.55396700  1
  N  1311  1  0.99882047  0.69460100  0.68718100  1
  N  1329  1  0.80881000  0.94848000  0.82635900  1
  N  1330  1  0.87432100  0.89168600  0.87966100  1
  N  1333  1  0.77449700  0.91449200  0.93807100  1
  N  1336  1  0.81426400  0.85431800  0.77788700  1
  N  1341  1  0.87789700  0.83289500  0.79469800  1
  N  1343  1  0.75088100  0.96817600  0.91624300  1
  N  1361  1  0.30879600  0.08317600  0.64596000  1
  N  1362  1  0.37429800  0.13997600  0.59265500  1
  N  1365  1  0.27447600  0.11716800  0.53425400  1
  N  1368  1  0.31425300  0.17733200  0.69444100  1
  N  1373  1  0.37788600  0.19875500  0.67762400  1
  N  1375  1  0.25087200  0.06347700  0.55607700  1
  N  1393  1  0.06070400  0.60660100  0.30386100  1
  N  1394  1  0.12554200  0.66115200  0.35841500  1
  N  1397  1  0.02133400  0.71669500  0.33898200  1
  N  1400  1  0.06890700  0.55902700  0.39893100  1
  N  1405  1  0.13276400  0.57728700  0.41836400  1
  N  1407  1  0.99886147  0.69460700  0.28512600  1
  N  1425  1  0.56067700  0.42505600  0.16847600  1
  N  1426  1  0.62554700  0.37051000  0.11393900  1
  N  1429  1  0.52132900  0.31496000  0.13333900  1
  N  1432  1  0.56890700  0.47262600  0.07340300  1
  N  1437  1  0.63277100  0.45436600  0.05397900  1
  N  1439  1  0.49882800  0.33704700  0.18718900  1
  N  1457  1  0.06071400  0.94846600  0.64596500  1
  N  1458  1  0.99520047  0.89168500  0.59265200  1
  N  1461  1  0.09502900  0.91448000  0.53425400  1
  N  1464  1  0.05522800  0.85430400  0.69443700  1
  N  1469  1  0.99159247  0.83289200  0.67761300  1
  N  1471  1  0.11864300  0.96816400  0.55608200  1
  N  1489  1  0.56068600  0.08316500  0.82635900  1
  N  1490  1  0.49518500  0.13996600  0.87966400  1
  N  1493  1  0.59500500  0.11715500  0.93806600  1
  N  1496  1  0.55523100  0.17732200  0.77787800  1
  N  1501  1  0.49160000  0.19874800  0.79469600  1
  N  1503  1  0.61861100  0.06346500  0.91624100  1
  N  1521  1  0.80883600  0.60660600  0.16845200  1
  N  1522  1  0.74396500  0.66115700  0.11392700  1
  N  1525  1  0.84817700  0.71670300  0.13332200  1
  N  1528  1  0.80059000  0.55904000  0.07338200  1
  N  1533  1  0.73672300  0.57730100  0.05397100  1
  N  1535  1  0.87067900  0.69461200  0.18717000  1
  N  1553  1  0.30880400  0.42505100  0.30386700  1
  N  1554  1  0.24394600  0.37049800  0.35840100  1
  N  1557  1  0.34816200  0.31495100  0.33898300  1
  N  1560  1  0.30058400  0.47261100  0.39894500  1
  N  1565  1  0.23672100  0.45434800  0.41836700  1
  N  1567  1  0.37065100  0.33704800  0.28513200  1
  O  297  1  0.90087900  0.07845500  0.16203600  1
  O  298  1  0.89784700  0.19021000  0.19001300  1
  O  299  1  0.85976900  0.06090600  0.14481100  1
  O  300  1  0.87662500  0.15661500  0.21107900  1
  O  329  1  0.40090400  0.95318800  0.31028300  1
  O  330  1  0.39785900  0.84143000  0.28232300  1
  O  331  1  0.35979700  0.97074700  0.32750500  1
  O  332  1  0.37664400  0.87502400  0.26124700  1
  O  361  1  0.64834000  0.44194600  0.67280400  1
  O  362  1  0.64283200  0.46842500  0.55985100  1
  O  363  1  0.60840800  0.42329700  0.69100800  1
  O  364  1  0.62234200  0.48961700  0.59372100  1
  O  393  1  0.14834100  0.58969700  0.79953800  1
  O  394  1  0.14282400  0.56320500  0.91249400  1
  O  395  1  0.10840400  0.60834700  0.78134600  1
  O  396  1  0.12233100  0.54202200  0.87862200  1
  O  425  1  0.60110700  0.07846600  0.31028800  1
  O  426  1  0.60414800  0.19022900  0.28234100  1
  O  427  1  0.64221700  0.06090800  0.32750400  1
  O  428  1  0.62536600  0.15663800  0.26126200  1
  O  457  1  0.10109100  0.95319100  0.16203600  1
  O  458  1  0.10414000  0.84143500  0.19000200  1
  O  459  1  0.14219900  0.97074900  0.14481600  1
  O  460  1  0.12535500  0.87502900  0.21107300  1
  O  489  1  0.85364800  0.44194700  0.79952800  1
  O  490  1  0.85914500  0.46844700  0.91248100  1
  O  491  1  0.89358300  0.42329500  0.78133600  1
  O  492  1  0.87963900  0.48963000  0.87861000  1
  O  521  1  0.35361100  0.58970000  0.67279100  1
  O  522  1  0.35915000  0.56322500  0.55983700  1
  O  523  1  0.39353600  0.60834700  0.69100400  1
  O  524  1  0.37963300  0.54203100  0.59370900  1
  O  553  1  0.10110100  0.95318900  0.81028600  1
  O  554  1  0.10413500  0.84143100  0.78233000  1
  O  555  1  0.14221100  0.97074700  0.82750300  1
  O  556  1  0.12534800  0.87502200  0.76125400  1
  O  585  1  0.60109000  0.07846400  0.66203400  1
  O  586  1  0.60412100  0.19022100  0.69000300  1
  O  587  1  0.64220000  0.06091200  0.64481500  1
  O  588  1  0.62534100  0.15662700  0.71107200  1
  O  617  1  0.35364800  0.58970400  0.29951900  1
  O  618  1  0.35914500  0.56320600  0.41247300  1
  O  619  1  0.39358500  0.60835500  0.28132800  1
  O  620  1  0.37964100  0.54202200  0.37860100  1
  O  649  1  0.85361800  0.44195100  0.17280700  1
  O  650  1  0.85915100  0.46844300  0.05985500  1
  O  651  1  0.89354500  0.42330200  0.19101600  1
  O  652  1  0.87963400  0.48963000  0.09372900  1
  O  681  1  0.40091200  0.95317200  0.66204100  1
  O  682  1  0.39784900  0.84141300  0.68999600  1
  O  683  1  0.35980500  0.97073400  0.64482000  1
  O  684  1  0.37663600  0.87500700  0.71107000  1
  O  713  1  0.90088300  0.07845300  0.81028400  1
  O  714  1  0.89785500  0.19021000  0.78231700  1
  O  715  1  0.85977200  0.06090200  0.82750500  1
  O  716  1  0.87663600  0.15661700  0.76124600  1
  O  745  1  0.14838700  0.58970800  0.17278300  1
  O  746  1  0.14283600  0.56322000  0.05983100  1
  O  747  1  0.10846000  0.60835700  0.19099300  1
  O  748  1  0.12235800  0.54203300  0.09370600  1
  O  777  1  0.64835200  0.44194800  0.29953300  1
  O  778  1  0.64283200  0.46842700  0.41248900  1
  O  779  1  0.60842200  0.42329900  0.28132900  1
  O  780  1  0.62234700  0.48961700  0.37861900  1
  O  1081  1  0.58463300  0.07845500  0.16203600  1
  O  1082  1  0.58160100  0.19021000  0.19001300  1
  O  1083  1  0.54352300  0.06090600  0.14481100  1
  O  1084  1  0.56037900  0.15661500  0.21107900  1
  O  1113  1  0.08465800  0.95318800  0.31028300  1
  O  1114  1  0.08161300  0.84143000  0.28232300  1
  O  1115  1  0.04355100  0.97074700  0.32750500  1
  O  1116  1  0.06039800  0.87502400  0.26124700  1
  O  1145  1  0.33209400  0.44194600  0.67280400  1
  O  1146  1  0.32658600  0.46842500  0.55985100  1
  O  1147  1  0.29216200  0.42329700  0.69100800  1
  O  1148  1  0.30609600  0.48961700  0.59372100  1
  O  1177  1  0.83209500  0.58969700  0.79953800  1
  O  1178  1  0.82657800  0.56320500  0.91249400  1
  O  1179  1  0.79215800  0.60834700  0.78134600  1
  O  1180  1  0.80608500  0.54202200  0.87862200  1
  O  1209  1  0.28486100  0.07846600  0.31028800  1
  O  1210  1  0.28790200  0.19022900  0.28234100  1
  O  1211  1  0.32597100  0.06090800  0.32750400  1
  O  1212  1  0.30912000  0.15663800  0.26126200  1
  O  1241  1  0.78484500  0.95319100  0.16203600  1
  O  1242  1  0.78789400  0.84143500  0.19000200  1
  O  1243  1  0.82595300  0.97074900  0.14481600  1
  O  1244  1  0.80910900  0.87502900  0.21107300  1
  O  1273  1  0.53740200  0.44194700  0.79952800  1
  O  1274  1  0.54289900  0.46844700  0.91248100  1
  O  1275  1  0.57733700  0.42329500  0.78133600  1
  O  1276  1  0.56339300  0.48963000  0.87861000  1
  O  1305  1  0.03736500  0.58970000  0.67279100  1
  O  1306  1  0.04290400  0.56322500  0.55983700  1
  O  1307  1  0.07729000  0.60834700  0.69100400  1
  O  1308  1  0.06338700  0.54203100  0.59370900  1
  O  1337  1  0.78485500  0.95318900  0.81028600  1
  O  1338  1  0.78788900  0.84143100  0.78233000  1
  O  1339  1  0.82596500  0.97074700  0.82750300  1
  O  1340  1  0.80910200  0.87502200  0.76125400  1
  O  1369  1  0.28484400  0.07846400  0.66203400  1
  O  1370  1  0.28787500  0.19022100  0.69000300  1
  O  1371  1  0.32595400  0.06091200  0.64481500  1
  O  1372  1  0.30909500  0.15662700  0.71107200  1
  O  1401  1  0.03740200  0.58970400  0.29951900  1
  O  1402  1  0.04289900  0.56320600  0.41247300  1
  O  1403  1  0.07733900  0.60835500  0.28132800  1
  O  1404  1  0.06339500  0.54202200  0.37860100  1
  O  1433  1  0.53737200  0.44195100  0.17280700  1
  O  1434  1  0.54290500  0.46844300  0.05985500  1
  O  1435  1  0.57729900  0.42330200  0.19101600  1
  O  1436  1  0.56338800  0.48963000  0.09372900  1
  O  1465  1  0.08466600  0.95317200  0.66204100  1
  O  1466  1  0.08160300  0.84141300  0.68999600  1
  O  1467  1  0.04355900  0.97073400  0.64482000  1
  O  1468  1  0.06039000  0.87500700  0.71107000  1
  O  1497  1  0.58463700  0.07845300  0.81028400  1
  O  1498  1  0.58160900  0.19021000  0.78231700  1
  O  1499  1  0.54352600  0.06090200  0.82750500  1
  O  1500  1  0.56039000  0.15661700  0.76124600  1
  O  1529  1  0.83214100  0.58970800  0.17278300  1
  O  1530  1  0.82659000  0.56322000  0.05983100  1
  O  1531  1  0.79221400  0.60835700  0.19099300  1
  O  1532  1  0.80611200  0.54203300  0.09370600  1
  O  1561  1  0.33210600  0.44194800  0.29953300  1
  O  1562  1  0.32658600  0.46842700  0.41248900  1
  O  1563  1  0.29217600  0.42329900  0.28132900  1
  O  1564  1  0.30610100  0.48961700  0.37861900  1
