# generated using pymatgen
data_H10C12N7
_symmetry_space_group_name_H-M   'P 1'
_cell_length_a   42.72420000
_cell_length_b   42.72410000
_cell_length_c   52.65110000
_cell_angle_alpha   90.00070000
_cell_angle_beta   90.00000000
_cell_angle_gamma   90.00000000
_symmetry_Int_Tables_number   1
_chemical_formula_structural   H10C12N7
_chemical_formula_sum   'H320 C384 N224'
_cell_volume   96106.84297415
_cell_formula_units_Z   32
loop_
 _symmetry_equiv_pos_site_id
 _symmetry_equiv_pos_as_xyz
  1  'x, y, z'
loop_
 _atom_site_type_symbol
 _atom_site_label
 _atom_site_symmetry_multiplicity
 _atom_site_fract_x
 _atom_site_fract_y
 _atom_site_fract_z
 _atom_site_occupancy
  H  6  1  0.20602800  0.39199300  0.85011500  1
  H  7  1  0.10762900  0.42187500  0.79106200  1
  H  8  1  0.14370500  0.41992300  0.78009400  1
  H  17  1  0.33782100  0.52038700  0.40818300  1
  H  26  1  0.30482300  0.55673100  0.35011800  1
  H  29  1  0.34169700  0.61307700  0.35984000  1
  H  30  1  0.33049500  0.64107100  0.37910700  1
  H  31  1  0.42438100  0.54636500  0.38153800  1
  H  32  1  0.39579300  0.55636700  0.40067500  1
  H  33  1  0.40318600  0.52684100  0.29102300  1
  H  34  1  0.36710600  0.52880000  0.28006800  1
  H  35  1  0.30497300  0.61705800  0.46815000  1
  H  36  1  0.30698100  0.58076200  0.47861500  1
  H  47  1  0.80190700  0.88911000  0.15775100  1
  H  56  1  0.83400100  0.92472700  0.10089500  1
  H  59  1  0.89469300  0.89068300  0.10945800  1
  H  60  1  0.92231400  0.90175200  0.12912600  1
  H  61  1  0.84217500  0.80371500  0.12845900  1
  H  62  1  0.84616100  0.83258700  0.14873200  1
  H  63  1  0.81996900  0.82587700  0.03852000  1
  H  64  1  0.81785400  0.86233400  0.02847300  1
  H  65  1  0.89732900  0.92339200  0.21858000  1
  H  66  1  0.86105900  0.92023000  0.22889900  1
  H  77  1  0.70893900  0.05963700  0.65774700  1
  H  86  1  0.67681400  0.02401100  0.60089900  1
  H  89  1  0.61612700  0.05811000  0.60948200  1
  H  90  1  0.58851300  0.04705000  0.62916100  1
  H  91  1  0.66868700  0.14503700  0.62843700  1
  H  92  1  0.66469000  0.11617800  0.64872100  1
  H  93  1  0.69093900  0.12282800  0.53851500  1
  H  94  1  0.69306700  0.08636800  0.52848300  1
  H  95  1  0.61355000  0.02529000  0.71858300  1
  H  96  1  0.64982400  0.02845000  0.72889200  1
  H  107  1  0.33741800  0.42473700  0.60001800  1
  H  116  1  0.30116700  0.39165800  0.65810400  1
  H  119  1  0.33696400  0.33366000  0.65044800  1
  H  120  1  0.32686700  0.30513700  0.63128000  1
  H  121  1  0.42179200  0.39881300  0.62884300  1
  H  122  1  0.39373000  0.38770400  0.60960500  1
  H  123  1  0.39803900  0.42423300  0.71795100  1
  H  124  1  0.36176700  0.42226000  0.72847500  1
  H  125  1  0.30722400  0.32655700  0.54082200  1
  H  126  1  0.30923000  0.36265900  0.52991700  1
  H  137  1  0.17338900  0.52401100  0.10003400  1
  H  146  1  0.20965100  0.55708900  0.15810700  1
  H  149  1  0.17383500  0.61509100  0.15046100  1
  H  150  1  0.18393800  0.64361400  0.13129500  1
  H  151  1  0.08901900  0.54992900  0.12885800  1
  H  152  1  0.11708000  0.56103700  0.10961800  1
  H  153  1  0.11278800  0.52451800  0.21796700  1
  H  154  1  0.14906000  0.52649100  0.22848500  1
  H  155  1  0.20356100  0.62219100  0.04083100  1
  H  156  1  0.20156100  0.58608700  0.02992700  1
  H  167  1  0.70545600  0.89001400  0.35064200  1
  H  176  1  0.67644400  0.92828700  0.40760200  1
  H  179  1  0.61431500  0.89539400  0.40080800  1
  H  180  1  0.58609500  0.90523800  0.38126100  1
  H  181  1  0.66547800  0.80667500  0.38214400  1
  H  182  1  0.66031500  0.83513700  0.36166600  1
  H  183  1  0.69363800  0.83056500  0.47068700  1
  H  184  1  0.69567900  0.86720700  0.48028800  1
  H  185  1  0.60839600  0.92120900  0.29053100  1
  H  186  1  0.64449000  0.91810800  0.27978900  1
  H  195  1  0.80541600  0.05867400  0.85063900  1
  H  197  1  0.90243300  0.02743300  0.79049800  1
  H  198  1  0.86633000  0.03052300  0.77977500  1
  H  207  1  0.84062100  0.52073600  0.10304100  1
  H  216  1  0.80512100  0.55275000  0.15994400  1
  H  219  1  0.83916700  0.61340100  0.15148600  1
  H  220  1  0.82816600  0.64109100  0.13185800  1
  H  221  1  0.92611800  0.56110700  0.13240500  1
  H  222  1  0.89724900  0.56499700  0.11211900  1
  H  223  1  0.90395900  0.53872300  0.22232000  1
  H  224  1  0.86750200  0.53657200  0.23235600  1
  H  225  1  0.80660900  0.61637500  0.04234400  1
  H  226  1  0.80969000  0.58011900  0.03196900  1
  H  237  1  0.67024200  0.42798300  0.60305500  1
  H  246  1  0.70572500  0.39598800  0.65995200  1
  H  249  1  0.67168600  0.33531500  0.65149600  1
  H  250  1  0.68268600  0.30762800  0.63187100  1
  H  251  1  0.58474400  0.38758300  0.63236800  1
  H  252  1  0.61362700  0.38371300  0.61209300  1
  H  253  1  0.60684200  0.40994400  0.72230000  1
  H  254  1  0.64329200  0.41211100  0.73235500  1
  H  255  1  0.70423600  0.33233900  0.54235300  1
  H  256  1  0.70116100  0.36859700  0.53197900  1
  H  265  1  0.20891800  0.05578800  0.85354900  1
  H  267  1  0.11217300  0.03667900  0.78978800  1
  H  268  1  0.14890700  0.03586800  0.78031200  1
  H  277  1  0.30195300  0.89290000  0.35354800  1
  H  286  1  0.33606500  0.92446700  0.40938400  1
  H  289  1  0.39589300  0.88216700  0.39946900  1
  H  290  1  0.42403200  0.88729300  0.37871600  1
  H  291  1  0.33941900  0.80306600  0.38218900  1
  H  292  1  0.34334700  0.83166800  0.36167700  1
  H  293  1  0.32023300  0.82648500  0.47239500  1
  H  294  1  0.31929200  0.86304100  0.48230300  1
  H  295  1  0.39867100  0.91208100  0.28977400  1
  H  296  1  0.36193300  0.91289500  0.28030900  1
  H  307  1  0.67116800  0.52427800  0.41021000  1
  H  316  1  0.70934800  0.55317600  0.35319300  1
  H  319  1  0.67655900  0.61529300  0.35989700  1
  H  320  1  0.68633500  0.64357100  0.37941100  1
  H  321  1  0.58777800  0.56443300  0.37866400  1
  H  322  1  0.61625100  0.56948100  0.39914400  1
  H  323  1  0.61158100  0.53606100  0.29014600  1
  H  324  1  0.64821900  0.53397000  0.28053500  1
  H  325  1  0.70211600  0.62153100  0.47019900  1
  H  326  1  0.69907800  0.58545000  0.48099500  1
  H  336  1  0.80150900  0.39549500  0.85320700  1
  H  337  1  0.89922700  0.41265100  0.79010700  1
  H  338  1  0.86258200  0.41472700  0.78051500  1
  H  347  1  0.30546400  0.05479600  0.65943900  1
  H  356  1  0.33698700  0.02068100  0.60360400  1
  H  359  1  0.39829500  0.06196800  0.61178800  1
  H  360  1  0.42688700  0.05811200  0.63231700  1
  H  361  1  0.34270100  0.14272500  0.62887900  1
  H  362  1  0.34786200  0.11455900  0.64959900  1
  H  363  1  0.31777300  0.11750400  0.53994100  1
  H  364  1  0.31695700  0.08078100  0.53043500  1
  H  365  1  0.40338300  0.03919900  0.72255300  1
  H  366  1  0.36681600  0.03827800  0.73243800  1
  H  377  1  0.20537700  0.89390900  0.15943800  1
  H  386  1  0.17381800  0.92804600  0.10361900  1
  H  389  1  0.11251600  0.88675700  0.11181800  1
  H  390  1  0.08393800  0.89062700  0.13236200  1
  H  391  1  0.16812100  0.80598800  0.12885500  1
  H  392  1  0.16295600  0.83414400  0.14958700  1
  H  393  1  0.19312600  0.83125600  0.03993900  1
  H  394  1  0.19394700  0.86798200  0.03045000  1
  H  395  1  0.10749800  0.90957300  0.22258200  1
  H  396  1  0.14407100  0.91051400  0.23245100  1
  H  407  1  0.23457000  0.36445200  0.72685300  1
  H  409  1  0.26780400  0.45667300  0.80207800  1
  H  410  1  0.29594300  0.46141500  0.78066200  1
  H  412  1  0.23384200  0.41786400  0.81639900  1
  H  414  1  0.27895700  0.37722400  0.69791100  1
  H  421  1  0.27624000  0.58430900  0.22686900  1
  H  423  1  0.24293800  0.49214400  0.30213200  1
  H  424  1  0.21481500  0.48738300  0.28070400  1
  H  426  1  0.27698200  0.53088800  0.31640500  1
  H  428  1  0.23186400  0.57152200  0.19791800  1
  H  433  1  0.77424400  0.98751200  0.05254700  1
  H  434  1  0.76952300  0.01566400  0.03114500  1
  H  436  1  0.81233200  0.95264500  0.06626200  1
  H  443  1  0.64662300  0.99615100  0.47603400  1
  H  445  1  0.73665100  0.96125100  0.55254500  1
  H  446  1  0.74139600  0.93311200  0.53113400  1
  H  448  1  0.69855600  0.99609400  0.56626900  1
  H  450  1  0.65946300  0.95166300  0.44712300  1
  H  457  1  0.77725400  0.58296600  0.28481600  1
  H  459  1  0.74246100  0.49286100  0.20835500  1
  H  460  1  0.71426800  0.48816900  0.22972500  1
  H  462  1  0.77722300  0.53101500  0.19457300  1
  H  464  1  0.73272100  0.57016800  0.31369100  1
  H  471  1  0.73357100  0.36573300  0.78481700  1
  H  473  1  0.76844400  0.45578000  0.70832100  1
  H  474  1  0.79662200  0.46048200  0.72970300  1
  H  476  1  0.73359900  0.41769800  0.69458900  1
  H  478  1  0.77808900  0.37854800  0.81370700  1
  H  482  1  0.14564300  0.99723000  0.03532500  1
  H  484  1  0.15892500  0.95303300  0.06456700  1
  H  491  1  0.36524800  0.95155400  0.53529200  1
  H  493  1  0.27804600  0.98894400  0.45741700  1
  H  494  1  0.27324100  0.01694100  0.47894100  1
  H  496  1  0.31577900  0.95341800  0.44411400  1
  H  498  1  0.35197700  0.99575700  0.56452600  1
  H  505  1  0.73360800  0.86333000  0.22622700  1
  H  507  1  0.76928200  0.95264100  0.30301400  1
  H  508  1  0.79730500  0.95747400  0.28151400  1
  H  510  1  0.73454900  0.91419700  0.31680200  1
  H  512  1  0.77766600  0.87668700  0.19696100  1
  H  519  1  0.77722300  0.08543800  0.72625200  1
  H  521  1  0.74149600  0.99613700  0.80304100  1
  H  522  1  0.71349600  0.99128500  0.78152200  1
  H  524  1  0.77630100  0.03450400  0.81679900  1
  H  526  1  0.73318700  0.07206400  0.69696300  1
  H  533  1  0.36489700  0.45359200  0.47681600  1
  H  535  1  0.27286900  0.48684600  0.55221100  1
  H  536  1  0.26811800  0.51502000  0.53082600  1
  H  538  1  0.31159000  0.45270000  0.56637900  1
  H  540  1  0.35216100  0.49807300  0.44795600  1
  H  545  1  0.23798000  0.46192100  0.05223000  1
  H  546  1  0.24274800  0.43375400  0.03084300  1
  H  548  1  0.19924000  0.49604900  0.06639900  1
  H  555  1  0.27822200  0.08399300  0.78536000  1
  H  557  1  0.24099000  0.99678600  0.70745700  1
  H  558  1  0.21291800  0.99202600  0.72892300  1
  H  560  1  0.27647600  0.03456800  0.69414900  1
  H  562  1  0.23395800  0.07072100  0.81453400  1
  H  569  1  0.23266500  0.86466900  0.28533300  1
  H  571  1  0.26994600  0.95185300  0.20741800  1
  H  572  1  0.29799800  0.95663100  0.22889900  1
  H  574  1  0.23438300  0.91415500  0.19414600  1
  H  576  1  0.27690200  0.87797400  0.31452900  1
  H  583  1  0.64427500  0.49606600  0.53452100  1
  H  585  1  0.73380700  0.46055800  0.45783800  1
  H  586  1  0.73864100  0.43253900  0.47934200  1
  H  588  1  0.69545200  0.49533200  0.44406800  1
  H  590  1  0.65762300  0.45201400  0.56378500  1
  H  594  1  0.86660600  0.45266600  0.03450500  1
  H  596  1  0.85326700  0.49672100  0.06376300  1
  H  603  1  0.37650600  0.70846000  0.43078100  1
  H  605  1  0.25039500  0.75680500  0.43043300  1
  H  606  1  0.24431100  0.71843600  0.43074300  1
  H  608  1  0.28774100  0.79250600  0.41847500  1
  H  610  1  0.36011500  0.65247000  0.43137000  1
  H  617  1  0.98953900  0.85309400  0.18052900  1
  H  619  1  0.03757100  0.97931800  0.18118400  1
  H  620  1  0.99918400  0.98530700  0.18151400  1
  H  622  1  0.07337000  0.94216500  0.16894700  1
  H  624  1  0.93358400  0.86925800  0.18066600  1
  H  631  1  0.52133700  0.09566600  0.68051600  1
  H  633  1  0.47330100  0.96943800  0.68118000  1
  H  634  1  0.51168500  0.96345400  0.68155300  1
  H  636  1  0.43752100  0.00657400  0.66894500  1
  H  638  1  0.57729400  0.07950000  0.68073200  1
  H  645  1  0.37656900  0.23676100  0.58038900  1
  H  647  1  0.25090300  0.18737800  0.58094900  1
  H  648  1  0.24444700  0.22568800  0.58026900  1
  H  650  1  0.28870800  0.15240100  0.59412600  1
  H  652  1  0.35977500  0.29260000  0.57974300  1
  H  659  1  0.13427100  0.71201200  0.08038500  1
  H  661  1  0.25997000  0.76133800  0.08119000  1
  H  662  1  0.26640900  0.72302500  0.08049700  1
  H  664  1  0.22210300  0.79633500  0.09424900  1
  H  666  1  0.15104100  0.65616300  0.07978700  1
  H  673  1  0.51787800  0.85307900  0.33073900  1
  H  675  1  0.46874900  0.97885400  0.33042400  1
  H  676  1  0.50707400  0.98523200  0.32971800  1
  H  678  1  0.43368900  0.94117300  0.34380900  1
  H  680  1  0.57369200  0.86969500  0.33052100  1
  H  687  1  0.99294900  0.09564500  0.83071900  1
  H  689  1  0.04210900  0.96987800  0.83041400  1
  H  690  1  0.00378600  0.96349800  0.82966100  1
  H  692  1  0.07714000  0.00754800  0.84379600  1
  H  694  1  0.93714000  0.07901700  0.83043300  1
  H  701  1  0.87719900  0.70831200  0.08065800  1
  H  703  1  0.75116100  0.75676200  0.08029100  1
  H  704  1  0.74502600  0.71840200  0.07980400  1
  H  706  1  0.78846700  0.79230200  0.09289900  1
  H  708  1  0.86085300  0.65241600  0.08044700  1
  H  715  1  0.63367200  0.24039300  0.58066000  1
  H  717  1  0.75973700  0.19197400  0.58049100  1
  H  718  1  0.76586200  0.23033700  0.57999200  1
  H  720  1  0.72237800  0.15642200  0.59298700  1
  H  722  1  0.65001200  0.29629600  0.58047800  1
  H  729  1  0.63376300  0.71181200  0.42952600  1
  H  731  1  0.75940400  0.76126200  0.42962400  1
  H  732  1  0.76588800  0.72296000  0.43056300  1
  H  734  1  0.72157100  0.79606800  0.41593000  1
  H  736  1  0.65051700  0.65604000  0.42991100  1
  H  743  1  0.48928500  0.35272700  0.68052500  1
  H  745  1  0.53772400  0.47877800  0.67971200  1
  H  746  1  0.49936200  0.48490800  0.68008600  1
  H  748  1  0.57329400  0.44130900  0.66753800  1
  H  750  1  0.43330500  0.36915800  0.68109300  1
  H  757  1  0.02151300  0.59599300  0.18043300  1
  H  759  1  0.97313300  0.46990900  0.17964200  1
  H  760  1  0.01149900  0.46379500  0.18006000  1
  H  762  1  0.93756100  0.50739800  0.16746800  1
  H  764  1  0.07748800  0.57959400  0.18105800  1
  H  771  1  0.01792600  0.35269200  0.83084500  1
  H  773  1  0.96863200  0.47839600  0.83206600  1
  H  774  1  0.00694500  0.48484000  0.83125300  1
  H  776  1  0.93375100  0.44038500  0.84528900  1
  H  778  1  0.07378700  0.36944600  0.83017800  1
  H  785  1  0.49289000  0.59604400  0.33078900  1
  H  787  1  0.54220600  0.47034700  0.33211600  1
  H  788  1  0.50389500  0.46389800  0.33126900  1
  H  790  1  0.57708300  0.50834600  0.34529200  1
  H  792  1  0.43704800  0.57928100  0.33008600  1
  H  799  1  0.17306500  0.42835300  0.90819700  1
  H  805  1  0.16918300  0.33565800  0.85986400  1
  H  806  1  0.18038300  0.30766400  0.87913600  1
  H  807  1  0.08649600  0.40238400  0.88158800  1
  H  808  1  0.11509200  0.39237800  0.90071400  1
  H  809  1  0.20593700  0.33170100  0.96816900  1
  H  810  1  0.20393000  0.36799700  0.97862900  1
  H  822  1  0.83445500  0.02042700  0.90760100  1
  H  825  1  0.89659800  0.05333800  0.90076500  1
  H  826  1  0.92480700  0.04350700  0.88120300  1
  H  827  1  0.84543500  0.14202200  0.88210100  1
  H  828  1  0.85058200  0.11355100  0.86163000  1
  H  829  1  0.81723600  0.11818200  0.97064600  1
  H  830  1  0.81518100  0.08154400  0.98025700  1
  H  842  1  0.17482000  0.02425600  0.90939400  1
  H  845  1  0.11499700  0.06656300  0.89948300  1
  H  846  1  0.08684800  0.06144600  0.87874100  1
  H  847  1  0.17147900  0.14564000  0.88215400  1
  H  848  1  0.16755800  0.11702400  0.86165700  1
  H  849  1  0.19058200  0.12227900  0.97238400  1
  H  850  1  0.19149700  0.08572900  0.98231000  1
  H  859  1  0.83971700  0.42443500  0.91017800  1
  H  865  1  0.83438500  0.33337600  0.85991000  1
  H  866  1  0.82462500  0.30510600  0.87943600  1
  H  867  1  0.92311300  0.38432100  0.87862200  1
  H  868  1  0.89465600  0.37925200  0.89911700  1
  H  869  1  0.80881900  0.32721000  0.97021500  1
  H  870  1  0.81185000  0.36329500  0.98099400  1
  H  876  1  0.86421800  0.95254800  0.97601500  1
  H  878  1  0.85139000  0.99703800  0.94710300  1
  H  883  1  0.23276100  0.95975700  0.95741600  1
  H  884  1  0.23755200  0.93175500  0.97893500  1
  H  886  1  0.19504000  0.99531100  0.94413000  1
  H  890  1  0.14594200  0.49512900  0.97683200  1
  H  892  1  0.15868100  0.45064600  0.94798200  1
  H  897  1  0.77709400  0.48817500  0.95780900  1
  H  898  1  0.77225200  0.51619000  0.97931500  1
  H  900  1  0.81546600  0.45340800  0.94404100  1
  H  907  1  0.13435700  0.24030300  0.93080700  1
  H  909  1  0.26044300  0.19192200  0.93061100  1
  H  910  1  0.26653500  0.23028900  0.93091100  1
  H  912  1  0.22314500  0.15622900  0.91857700  1
  H  914  1  0.15076200  0.29628700  0.93141600  1
  H  921  1  0.87715500  0.23691600  0.92962500  1
  H  923  1  0.75150900  0.18747500  0.92945400  1
  H  924  1  0.74502800  0.22577600  0.93040600  1
  H  926  1  0.78937100  0.15265100  0.91585000  1
  H  928  1  0.86040300  0.29267600  0.92997500  1
  C  1  1  0.11887000  0.40811100  0.83901700  1
  C  2  1  0.14019000  0.41057300  0.81824100  1
  C  3  1  0.17266400  0.40526000  0.82255400  1
  C  4  1  0.18292900  0.39735300  0.84725300  1
  C  11  1  0.33703200  0.56518600  0.39152100  1
  C  12  1  0.33349500  0.54358300  0.41160400  1
  C  13  1  0.32497300  0.55318200  0.43634400  1
  C  14  1  0.31857600  0.58541000  0.44094800  1
  C  15  1  0.32218500  0.60737400  0.42073000  1
  C  16  1  0.33133000  0.59758500  0.39589300  1
  C  19  1  0.34891300  0.55388600  0.36784600  1
  C  20  1  0.38141400  0.54822800  0.36395100  1
  C  21  1  0.39197500  0.54061400  0.33898200  1
  C  22  1  0.37064300  0.53814700  0.31821700  1
  C  23  1  0.33817200  0.54346700  0.32254000  1
  C  24  1  0.32792200  0.55138800  0.34724100  1
  C  41  1  0.84669000  0.89206900  0.14124500  1
  C  42  1  0.82490100  0.89421100  0.16132600  1
  C  43  1  0.83408300  0.90268600  0.18619900  1
  C  44  1  0.86613500  0.90972000  0.19105400  1
  C  45  1  0.88831500  0.90715400  0.17089000  1
  C  46  1  0.87887500  0.89865300  0.14582500  1
  C  49  1  0.83617800  0.87994200  0.11742100  1
  C  50  1  0.83547400  0.84716400  0.11249600  1
  C  51  1  0.82918700  0.83674300  0.08724500  1
  C  52  1  0.82529200  0.85845700  0.06689100  1
  C  53  1  0.82626800  0.89115000  0.07212100  1
  C  54  1  0.83149900  0.90130400  0.09732100  1
  C  71  1  0.66414900  0.05668700  0.64125100  1
  C  72  1  0.68594700  0.05453900  0.66132500  1
  C  73  1  0.67677400  0.04605400  0.68619800  1
  C  74  1  0.64472400  0.03901600  0.69106000  1
  C  75  1  0.62253800  0.04159300  0.67090300  1
  C  76  1  0.63196600  0.05010500  0.64583800  1
  C  79  1  0.67465800  0.06880400  0.61742500  1
  C  80  1  0.67537700  0.10157900  0.61249000  1
  C  81  1  0.68166800  0.11199000  0.58724100  1
  C  82  1  0.68557200  0.09026600  0.56689200  1
  C  83  1  0.68459900  0.05757200  0.57213200  1
  C  84  1  0.67935300  0.04743200  0.59733400  1
  C  101  1  0.33454600  0.38061200  0.61768900  1
  C  102  1  0.33205100  0.40164900  0.59711200  1
  C  103  1  0.32406300  0.39146700  0.57240800  1
  C  104  1  0.31867500  0.35901700  0.56804100  1
  C  105  1  0.32114400  0.33763600  0.58877400  1
  C  106  1  0.32881900  0.34813200  0.61374800  1
  C  109  1  0.34592100  0.39241900  0.64136200  1
  C  110  1  0.37834100  0.39804800  0.64569200  1
  C  111  1  0.38820900  0.40713000  0.67052500  1
  C  112  1  0.36630100  0.41073200  0.69078500  1
  C  113  1  0.33405200  0.40439100  0.68622700  1
  C  114  1  0.32437600  0.39594400  0.66148800  1
  C  131  1  0.17626400  0.56813800  0.11769900  1
  C  132  1  0.17877800  0.54709400  0.09712900  1
  C  133  1  0.18675300  0.55727700  0.07242400  1
  C  134  1  0.19213800  0.58973000  0.06805600  1
  C  135  1  0.18966800  0.61111400  0.08878800  1
  C  136  1  0.18198900  0.60061900  0.11376300  1
  C  139  1  0.16489200  0.55633000  0.14137400  1
  C  140  1  0.13247200  0.55069900  0.14570400  1
  C  141  1  0.12261100  0.54161600  0.17053600  1
  C  142  1  0.14452000  0.53801100  0.19079400  1
  C  143  1  0.17676900  0.54435200  0.18623300  1
  C  144  1  0.18644100  0.55281000  0.16149600  1
  C  161  1  0.66134500  0.89478700  0.36807600  1
  C  162  1  0.68256500  0.89601800  0.34754800  1
  C  163  1  0.67276700  0.90380000  0.32268300  1
  C  164  1  0.64046000  0.90977600  0.31806500  1
  C  165  1  0.61887200  0.90829000  0.33871500  1
  C  166  1  0.62905200  0.90125900  0.36389200  1
  C  169  1  0.67237600  0.88310600  0.39188500  1
  C  170  1  0.67316300  0.85042900  0.39724300  1
  C  171  1  0.68094700  0.84049300  0.42234600  1
  C  172  1  0.68599100  0.86258900  0.44225500  1
  C  173  1  0.68394800  0.89516500  0.43675200  1
  C  174  1  0.67800800  0.90486200  0.41154300  1
  C  191  1  0.82830400  0.05266800  0.84753800  1
  C  192  1  0.83808600  0.04487300  0.82267000  1
  C  193  1  0.87039100  0.03890700  0.81803800  1
  C  194  1  0.89199200  0.04040400  0.83867900  1
  C  201  1  0.83777200  0.56548900  0.11960900  1
  C  202  1  0.83559100  0.54375100  0.09949500  1
  C  203  1  0.82714800  0.55300600  0.07463200  1
  C  204  1  0.82019900  0.58508600  0.06982200  1
  C  205  1  0.82280200  0.60721400  0.09002000  1
  C  206  1  0.83125100  0.59769800  0.11507800  1
  C  209  1  0.84990800  0.55491700  0.14340700  1
  C  210  1  0.88267900  0.55426400  0.14834900  1
  C  211  1  0.89310600  0.54797000  0.17359500  1
  C  212  1  0.87138800  0.54405500  0.19394500  1
  C  213  1  0.83869200  0.54500300  0.18871100  1
  C  214  1  0.82854500  0.55021900  0.16350700  1
  C  231  1  0.67309500  0.38323100  0.61961800  1
  C  232  1  0.67528300  0.40497100  0.59950900  1
  C  233  1  0.68372100  0.39571300  0.57464500  1
  C  234  1  0.69066600  0.36363300  0.56983400  1
  C  235  1  0.68806300  0.34150500  0.59003300  1
  C  236  1  0.67961300  0.35102000  0.61509100  1
  C  239  1  0.66094500  0.39380400  0.64341500  1
  C  240  1  0.62816700  0.39443900  0.64833200  1
  C  241  1  0.61773500  0.40071900  0.67357700  1
  C  242  1  0.63943500  0.40464400  0.69393800  1
  C  243  1  0.67213700  0.40371000  0.68871900  1
  C  244  1  0.68230000  0.39848100  0.66351900  1
  C  261  1  0.18560400  0.05342200  0.84947300  1
  C  262  1  0.17628300  0.04741300  0.82416500  1
  C  263  1  0.14380300  0.04463800  0.81845600  1
  C  264  1  0.12141000  0.04866900  0.83829400  1
  C  271  1  0.34734700  0.89094200  0.36910900  1
  C  272  1  0.32526600  0.89527400  0.34946800  1
  C  273  1  0.33457700  0.90129600  0.32416000  1
  C  274  1  0.36705500  0.90407600  0.31844500  1
  C  275  1  0.38945200  0.90003900  0.33828000  1
  C  276  1  0.37994400  0.89275800  0.36358200  1
  C  279  1  0.33638400  0.87952000  0.39303300  1
  C  280  1  0.33472600  0.84680800  0.39813200  1
  C  281  1  0.32889400  0.83674800  0.42354300  1
  C  282  1  0.32592600  0.85872400  0.44381200  1
  C  283  1  0.32761300  0.89135200  0.43839000  1
  C  284  1  0.33286100  0.90116400  0.41308900  1
  C  301  1  0.67588700  0.56835300  0.39271700  1
  C  302  1  0.67711300  0.54719000  0.41328100  1
  C  303  1  0.68487300  0.55704900  0.43813500  1
  C  304  1  0.69077100  0.58938000  0.44271000  1
  C  305  1  0.68927100  0.61091800  0.42202700  1
  C  306  1  0.68231400  0.60066300  0.39685600  1
  C  309  1  0.66418200  0.55727900  0.36893000  1
  C  310  1  0.63150500  0.55657300  0.36357100  1
  C  311  1  0.62154300  0.54878300  0.33847500  1
  C  312  1  0.64362700  0.54370800  0.31856100  1
  C  313  1  0.67620800  0.54571200  0.32405600  1
  C  314  1  0.68592100  0.55161700  0.34926700  1
  C  331  1  0.88930000  0.39992800  0.83844600  1
  C  332  1  0.86720500  0.40500000  0.81854100  1
  C  333  1  0.83462900  0.40297700  0.82405100  1
  C  334  1  0.82493400  0.39704400  0.84926200  1
  C  341  1  0.35043600  0.05506900  0.64311800  1
  C  342  1  0.32876500  0.05160700  0.66316700  1
  C  343  1  0.33854600  0.04642900  0.68848700  1
  C  344  1  0.37116900  0.04476600  0.69393600  1
  C  345  1  0.39317100  0.04769400  0.67368200  1
  C  346  1  0.38313700  0.05345700  0.64825400  1
  C  349  1  0.33901200  0.06604700  0.61919900  1
  C  350  1  0.33718400  0.09865800  0.61371400  1
  C  351  1  0.32984600  0.10820500  0.58843000  1
  C  352  1  0.32579000  0.08583900  0.56857500  1
  C  353  1  0.32858500  0.05335300  0.57425200  1
  C  354  1  0.33463500  0.04400000  0.59954500  1
  C  371  1  0.16039700  0.89364200  0.14313100  1
  C  372  1  0.18207900  0.89710100  0.16317400  1
  C  373  1  0.17231400  0.90231000  0.18849300  1
  C  374  1  0.13969300  0.90396700  0.19395600  1
  C  375  1  0.11768400  0.90102900  0.17370700  1
  C  376  1  0.12769900  0.89526600  0.14827600  1
  C  379  1  0.17181000  0.88267300  0.11920500  1
  C  380  1  0.17364400  0.85006400  0.11371100  1
  C  381  1  0.18098600  0.84052800  0.08842700  1
  C  382  1  0.18505200  0.86290100  0.06857800  1
  C  383  1  0.18225000  0.89538400  0.07426400  1
  C  384  1  0.17619400  0.90472800  0.09955800  1
  C  401  1  0.23804600  0.40914700  0.77806300  1
  C  403  1  0.24317600  0.38150100  0.73855000  1
  C  404  1  0.27036900  0.39860400  0.73226600  1
  C  406  1  0.26519900  0.42687400  0.77181300  1
  C  411  1  0.22208100  0.41149900  0.80098200  1
  C  413  1  0.28706200  0.39308200  0.71006500  1
  C  415  1  0.27277300  0.53959300  0.27806800  1
  C  417  1  0.26763800  0.56725100  0.23856100  1
  C  418  1  0.24045400  0.55013600  0.23226900  1
  C  420  1  0.24562900  0.52185500  0.27181000  1
  C  425  1  0.28874300  0.53723100  0.30098300  1
  C  427  1  0.22376100  0.55566000  0.21007000  1
  C  429  1  0.82064100  0.95678500  0.02783800  1
  C  431  1  0.80322000  0.98420700  0.02179200  1
  C  435  1  0.81858400  0.94089000  0.05082600  1
  C  437  1  0.69021800  0.99194100  0.52784800  1
  C  439  1  0.66335800  0.98731800  0.48791800  1
  C  440  1  0.68017300  0.95987900  0.48183600  1
  C  442  1  0.70766300  0.96453700  0.52179500  1
  C  447  1  0.69226200  0.00783500  0.55083700  1
  C  449  1  0.67469800  0.94317600  0.45963100  1
  C  451  1  0.77304300  0.53940200  0.23298500  1
  C  453  1  0.76839200  0.56627300  0.27290800  1
  C  454  1  0.74092500  0.54949100  0.27896700  1
  C  456  1  0.74560900  0.52198800  0.23901500  1
  C  461  1  0.78895400  0.53733300  0.21000300  1
  C  463  1  0.72420400  0.55497500  0.30116000  1
  C  465  1  0.73777500  0.40932100  0.73299900  1
  C  467  1  0.74243000  0.38243600  0.77291400  1
  C  468  1  0.76989000  0.39922200  0.77898100  1
  C  470  1  0.76520400  0.42674000  0.73903700  1
  C  475  1  0.72186100  0.41140200  0.71002100  1
  C  477  1  0.78661100  0.39373200  0.80117200  1
  C  479  1  0.16182100  0.98791700  0.02317900  1
  C  480  1  0.17824400  0.96020400  0.02915100  1
  C  483  1  0.17317800  0.94388100  0.05162200  1
  C  485  1  0.32322700  0.95713600  0.48269800  1
  C  487  1  0.34904600  0.96084600  0.52315500  1
  C  488  1  0.33260100  0.98854500  0.52913400  1
  C  490  1  0.30614800  0.98481100  0.48863700  1
  C  495  1  0.32136600  0.94143200  0.45959900  1
  C  497  1  0.33765900  0.00486900  0.55160700  1
  C  499  1  0.73841400  0.90637900  0.27830200  1
  C  501  1  0.74266700  0.87982900  0.23821500  1
  C  502  1  0.77013600  0.89657800  0.23208800  1
  C  504  1  0.76585300  0.92375800  0.27222000  1
  C  509  1  0.72258400  0.90853700  0.30131000  1
  C  511  1  0.78647100  0.89152200  0.20962100  1
  C  513  1  0.77243200  0.04233900  0.77829900  1
  C  515  1  0.76817400  0.06892100  0.73822900  1
  C  516  1  0.74072400  0.05215100  0.73208100  1
  C  518  1  0.74501000  0.02494600  0.77220200  1
  C  523  1  0.78826400  0.04016800  0.80130500  1
  C  525  1  0.72438700  0.05721900  0.70961800  1
  C  527  1  0.32021500  0.45697300  0.52803600  1
  C  529  1  0.34784100  0.46217100  0.48852100  1
  C  530  1  0.33075200  0.48939000  0.48228200  1
  C  532  1  0.30250600  0.48415400  0.52183500  1
  C  537  1  0.31787200  0.44095700  0.55093000  1
  C  539  1  0.33628500  0.50613600  0.46011200  1
  C  541  1  0.19062000  0.49177000  0.02805400  1
  C  543  1  0.20834400  0.46460000  0.02185300  1
  C  547  1  0.19294900  0.50778700  0.05095000  1
  C  549  1  0.27268200  0.04204600  0.73272300  1
  C  551  1  0.26890900  0.06784500  0.77318600  1
  C  552  1  0.24117300  0.05143800  0.77911400  1
  C  554  1  0.24496700  0.02500400  0.73861300  1
  C  559  1  0.28843400  0.04017300  0.70964500  1
  C  561  1  0.22480800  0.05649400  0.80156700  1
  C  563  1  0.23818800  0.90665700  0.23271900  1
  C  565  1  0.24196900  0.88083100  0.27316800  1
  C  566  1  0.26969100  0.89725800  0.27910900  1
  C  568  1  0.26588900  0.92371700  0.23862000  1
  C  573  1  0.22242900  0.90854800  0.20964200  1
  C  575  1  0.28605100  0.89220200  0.30156400  1
  C  577  1  0.68753100  0.49142800  0.48255200  1
  C  579  1  0.66085300  0.48707100  0.52257400  1
  C  580  1  0.67764200  0.45963000  0.52872000  1
  C  582  1  0.70494800  0.46402200  0.48865300  1
  C  587  1  0.68971300  0.50727900  0.45955200  1
  C  589  1  0.67254000  0.44326200  0.55116400  1
  C  591  1  0.85002500  0.46165400  0.02255800  1
  C  592  1  0.83323400  0.48909500  0.02870400  1
  C  595  1  0.83832200  0.50545600  0.05115400  1
  C  597  1  0.31385300  0.75397300  0.42931300  1
  C  599  1  0.35316800  0.71374500  0.43098800  1
  C  600  1  0.33003600  0.69020800  0.43123500  1
  C  602  1  0.29028100  0.73042900  0.43005700  1
  C  607  1  0.30807400  0.78571400  0.42581200  1
  C  609  1  0.33768300  0.65871500  0.43015400  1
  C  611  1  0.03488700  0.91587300  0.17964600  1
  C  613  1  0.99475600  0.87644100  0.18098700  1
  C  614  1  0.97115600  0.89951000  0.18139500  1
  C  616  1  0.01128500  0.93937500  0.18055400  1
  C  621  1  0.06661200  0.92175000  0.17615500  1
  C  623  1  0.93969600  0.89177000  0.18008500  1
  C  625  1  0.47598800  0.03288800  0.67962300  1
  C  627  1  0.51611600  0.07232000  0.68099800  1
  C  628  1  0.53971600  0.04925300  0.68143500  1
  C  630  1  0.49958600  0.00938600  0.68056700  1
  C  635  1  0.44426900  0.02703200  0.67608100  1
  C  637  1  0.57118300  0.05698900  0.68018300  1
  C  639  1  0.31426300  0.19080600  0.58222900  1
  C  641  1  0.35327100  0.23129300  0.58019500  1
  C  642  1  0.32995900  0.25464500  0.57970100  1
  C  644  1  0.29051000  0.21414000  0.58122200  1
  C  649  1  0.30873600  0.15912000  0.58620400  1
  C  651  1  0.33735500  0.28621100  0.58054000  1
  C  653  1  0.19659400  0.75794200  0.08226500  1
  C  655  1  0.15757000  0.71747100  0.08020900  1
  C  656  1  0.18087200  0.69410700  0.07971400  1
  C  658  1  0.22033700  0.73459700  0.08128900  1
  C  663  1  0.20215000  0.78963400  0.08619700  1
  C  665  1  0.17346500  0.66254400  0.08057000  1
  C  667  1  0.47205400  0.91549400  0.33198000  1
  C  669  1  0.51246400  0.87638300  0.33029700  1
  C  670  1  0.53587000  0.89964100  0.32964500  1
  C  672  1  0.49543900  0.93918600  0.33082500  1
  C  677  1  0.44037400  0.92113300  0.33589000  1
  C  679  1  0.56741200  0.89217000  0.33070700  1
  C  681  1  0.03879000  0.03324100  0.83197900  1
  C  683  1  0.99837200  0.07234500  0.83025400  1
  C  684  1  0.97497300  0.04908300  0.82957800  1
  C  686  1  0.01541300  0.00954500  0.83079000  1
  C  691  1  0.07046500  0.02763400  0.83594600  1
  C  693  1  0.94342400  0.05654600  0.83058500  1
  C  695  1  0.81457200  0.75384400  0.08192500  1
  C  697  1  0.85386600  0.71360900  0.08031100  1
  C  698  1  0.83072200  0.69008600  0.07982700  1
  C  700  1  0.79098800  0.73032800  0.08093100  1
  C  705  1  0.80880000  0.78555900  0.08552500  1
  C  707  1  0.83835700  0.65858800  0.08098600  1
  C  709  1  0.69630900  0.19487500  0.58195000  1
  C  711  1  0.65700800  0.23509900  0.58032400  1
  C  712  1  0.68014500  0.25863100  0.57984300  1
  C  714  1  0.71988800  0.21839700  0.58097700  1
  C  719  1  0.70210200  0.16315400  0.58550700  1
  C  721  1  0.67250700  0.29012600  0.58100800  1
  C  723  1  0.69606100  0.75776700  0.42804400  1
  C  725  1  0.65705200  0.71728600  0.42994300  1
  C  726  1  0.68036700  0.69394100  0.43074500  1
  C  728  1  0.71981100  0.73445700  0.42934300  1
  C  733  1  0.70162400  0.78943300  0.42403700  1
  C  735  1  0.67297800  0.66237100  0.42984100  1
  C  737  1  0.53481900  0.41534100  0.67869200  1
  C  739  1  0.49458700  0.37606300  0.68063100  1
  C  740  1  0.47106600  0.39921200  0.68085200  1
  C  742  1  0.51130100  0.43893600  0.67941600  1
  C  747  1  0.56653700  0.42107500  0.67508200  1
  C  749  1  0.43956200  0.39158600  0.67985800  1
  C  751  1  0.97600800  0.53335600  0.17867000  1
  C  753  1  0.01622300  0.57265400  0.18055900  1
  C  754  1  0.03975600  0.54951800  0.18082700  1
  C  756  1  0.99953800  0.50977400  0.17942900  1
  C  761  1  0.94428600  0.52758100  0.17511700  1
  C  763  1  0.07126200  0.55715500  0.17988400  1
  C  765  1  0.97203800  0.41502000  0.83295700  1
  C  767  1  0.01247500  0.37599300  0.83069500  1
  C  768  1  0.03584600  0.39929100  0.83017800  1
  C  770  1  0.99538100  0.43876300  0.83195600  1
  C  775  1  0.94037200  0.42057900  0.83695300  1
  C  777  1  0.06741100  0.39187400  0.83092500  1
  C  779  1  0.53878700  0.53372500  0.33296700  1
  C  781  1  0.49835000  0.57274600  0.33063500  1
  C  782  1  0.47498400  0.54944300  0.33012000  1
  C  784  1  0.51545300  0.50997800  0.33195300  1
  C  789  1  0.57044300  0.52819900  0.33703600  1
  C  791  1  0.44341200  0.55685100  0.33081400  1
  C  793  1  0.17384600  0.38355400  0.89153900  1
  C  794  1  0.17738000  0.40515600  0.91162000  1
  C  795  1  0.18591100  0.39556400  0.93636200  1
  C  796  1  0.19231100  0.36333900  0.94096800  1
  C  797  1  0.18869700  0.34137000  0.92075400  1
  C  798  1  0.17954700  0.35115500  0.89591700  1
  C  801  1  0.16195100  0.39484500  0.86786800  1
  C  802  1  0.12944900  0.40050200  0.86398200  1
  C  813  1  0.84953800  0.05390200  0.86805600  1
  C  814  1  0.88182900  0.04743700  0.86385800  1
  C  815  1  0.83852100  0.06559800  0.89186700  1
  C  816  1  0.83774200  0.09827800  0.89721400  1
  C  817  1  0.82996600  0.10822900  0.92231300  1
  C  818  1  0.82491300  0.08614400  0.94223100  1
  C  819  1  0.82694900  0.05356400  0.93673600  1
  C  820  1  0.83287800  0.04385400  0.91152900  1
  C  833  1  0.16352800  0.05776000  0.86911600  1
  C  834  1  0.13092800  0.05595900  0.86359400  1
  C  835  1  0.17449900  0.06919400  0.89303300  1
  C  836  1  0.17615300  0.10190900  0.89812200  1
  C  837  1  0.18197700  0.11198200  0.92353200  1
  C  838  1  0.18492900  0.09001900  0.94381100  1
  C  839  1  0.18323000  0.05738900  0.93840200  1
  C  840  1  0.17799400  0.04756200  0.91310300  1
  C  853  1  0.83501200  0.38034300  0.89271000  1
  C  854  1  0.83376700  0.40152800  0.91325900  1
  C  855  1  0.82602700  0.39167600  0.93811900  1
  C  856  1  0.82014000  0.35934600  0.94270800  1
  C  857  1  0.82164500  0.33779600  0.92203200  1
  C  858  1  0.82860200  0.34803100  0.89685900  1
  C  861  1  0.84669700  0.39141300  0.86891400  1
  C  862  1  0.87936900  0.39213900  0.86354900  1
  C  873  1  0.84750400  0.96140100  0.98790900  1
  C  874  1  0.83071300  0.98885600  0.98183500  1
  C  877  1  0.83619900  0.00556200  0.95963400  1
  C  879  1  0.18762800  0.99160800  0.98271800  1
  C  881  1  0.20468500  0.96391900  0.98865000  1
  C  885  1  0.18948900  0.00731100  0.95961500  1
  C  887  1  0.16300800  0.48656800  0.98853400  1
  C  888  1  0.18010900  0.45935600  0.98229600  1
  C  891  1  0.17459000  0.44261100  0.96012200  1
  C  893  1  0.82336600  0.45730500  0.98252600  1
  C  895  1  0.80594700  0.48471100  0.98862900  1
  C  899  1  0.82119100  0.44145900  0.95952600  1
  C  901  1  0.19699800  0.19477500  0.92933800  1
  C  903  1  0.15769300  0.23501300  0.93101900  1
  C  904  1  0.18083300  0.25854300  0.93127600  1
  C  906  1  0.22057800  0.21831000  0.93010200  1
  C  911  1  0.20274900  0.16303800  0.92579100  1
  C  913  1  0.17319300  0.29003800  0.93019300  1
  C  915  1  0.81486000  0.19096300  0.92800900  1
  C  917  1  0.85386600  0.23143700  0.93001600  1
  C  918  1  0.83055400  0.25478600  0.93078200  1
  C  920  1  0.79110800  0.21427400  0.92928000  1
  C  925  1  0.80930600  0.15930400  0.92396500  1
  C  927  1  0.83794100  0.28636100  0.92992300  1
  N  5  1  0.12961400  0.41787300  0.79448700  1
  N  9  1  0.19265700  0.40535300  0.80290000  1
  N  10  1  0.08831700  0.41289000  0.83534000  1
  N  18  1  0.30962300  0.59524300  0.46454500  1
  N  25  1  0.38120400  0.53083400  0.29445900  1
  N  27  1  0.33490700  0.61897800  0.37675600  1
  N  28  1  0.40222200  0.55067200  0.38362000  1
  N  37  1  0.31816900  0.54336800  0.30289400  1
  N  38  1  0.42252700  0.53583700  0.33529400  1
  N  39  1  0.31700800  0.63779000  0.42482300  1
  N  40  1  0.32288800  0.53255900  0.45550600  1
  N  48  1  0.87564800  0.91831300  0.21482700  1
  N  55  1  0.82083500  0.84803600  0.04262100  1
  N  57  1  0.90040900  0.89656900  0.12663900  1
  N  58  1  0.84162700  0.82612000  0.13145200  1
  N  67  1  0.82528500  0.91159700  0.05278900  1
  N  68  1  0.83043200  0.80614200  0.08224200  1
  N  69  1  0.91864700  0.91251400  0.17525100  1
  N  70  1  0.81335700  0.90412400  0.20533300  1
  N  78  1  0.63522200  0.03041600  0.71483400  1
  N  85  1  0.69003600  0.10067400  0.54261900  1
  N  87  1  0.61042300  0.05220000  0.62666100  1
  N  88  1  0.66921900  0.12263500  0.63143800  1
  N  97  1  0.68556100  0.03712700  0.55279900  1
  N  98  1  0.68045600  0.14258500  0.58221400  1
  N  99  1  0.59220400  0.03624400  0.67527900  1
  N  100  1  0.69750500  0.04461100  0.70532600  1
  N  108  1  0.31130600  0.34852100  0.54427700  1
  N  115  1  0.37620900  0.41962200  0.71437600  1
  N  117  1  0.33125800  0.32727500  0.63338500  1
  N  118  1  0.39968000  0.39447300  0.62651700  1
  N  127  1  0.31348100  0.40647300  0.70542500  1
  N  128  1  0.41863900  0.41227400  0.67456100  1
  N  129  1  0.31634600  0.30709600  0.58503800  1
  N  130  1  0.32395500  0.41151400  0.55279000  1
  N  138  1  0.19950600  0.60022500  0.04429200  1
  N  145  1  0.13462000  0.52911300  0.21438500  1
  N  147  1  0.17954500  0.62147600  0.13339900  1
  N  148  1  0.11113100  0.55427300  0.12653000  1
  N  157  1  0.19734300  0.54226900  0.20543000  1
  N  158  1  0.09218200  0.53646400  0.17458000  1
  N  159  1  0.19447200  0.64165200  0.08505200  1
  N  160  1  0.18686400  0.53723000  0.05280600  1
  N  168  1  0.63025200  0.91677100  0.29414200  1
  N  175  1  0.69210000  0.85263700  0.46641700  1
  N  177  1  0.60807300  0.90019200  0.38352700  1
  N  178  1  0.66593500  0.82901200  0.37881600  1
  N  187  1  0.68683400  0.91599900  0.45567500  1
  N  188  1  0.68007200  0.80998600  0.42774400  1
  N  189  1  0.58840000  0.91323300  0.33472600  1
  N  190  1  0.69294500  0.90349300  0.30314100  1
  N  196  1  0.88058600  0.03191200  0.79411200  1
  N  199  1  0.92246400  0.03547600  0.83467200  1
  N  200  1  0.81790500  0.04520000  0.80313200  1
  N  208  1  0.81166300  0.59467700  0.04605800  1
  N  215  1  0.88180300  0.53959400  0.21821600  1
  N  217  1  0.83335100  0.61917800  0.13430300  1
  N  218  1  0.90371800  0.56049000  0.12940300  1
  N  227  1  0.81824200  0.54405300  0.20804300  1
  N  228  1  0.92370500  0.54916400  0.17861400  1
  N  229  1  0.81753800  0.63757700  0.08571600  1
  N  230  1  0.82565500  0.53230500  0.05548000  1
  N  238  1  0.69920600  0.35404100  0.54607200  1
  N  245  1  0.62900000  0.40910100  0.71820500  1
  N  247  1  0.67750200  0.32954100  0.63431500  1
  N  248  1  0.60714400  0.38821000  0.62937500  1
  N  257  1  0.69257500  0.40467300  0.70805700  1
  N  258  1  0.58713200  0.39950200  0.67857800  1
  N  259  1  0.69332700  0.31114000  0.58572700  1
  N  260  1  0.68520700  0.41641300  0.55549100  1
  N  266  1  0.13416800  0.03876100  0.79416900  1
  N  269  1  0.09095200  0.04936000  0.83270400  1
  N  270  1  0.19724900  0.04513500  0.80527100  1
  N  278  1  0.37668200  0.90995600  0.29415500  1
  N  285  1  0.32165600  0.84858300  0.46818600  1
  N  287  1  0.40171000  0.88695300  0.38208300  1
  N  288  1  0.33958100  0.82545900  0.37913900  1
  N  297  1  0.32702800  0.91191700  0.45766400  1
  N  298  1  0.32988600  0.80618700  0.42873900  1
  N  299  1  0.41990800  0.89937700  0.33267300  1
  N  300  1  0.31361000  0.90356600  0.30527000  1
  N  308  1  0.69769700  0.59966000  0.46662500  1
  N  315  1  0.63365800  0.53759900  0.29440400  1
  N  317  1  0.68126300  0.62159200  0.37718300  1
  N  318  1  0.61011200  0.56389400  0.38199000  1
  N  327  1  0.69703000  0.54283700  0.30512200  1
  N  328  1  0.59103600  0.54964900  0.33308300  1
  N  329  1  0.69411600  0.64141800  0.42596800  1
  N  330  1  0.68457300  0.53690400  0.45770200  1
  N  335  1  0.87715500  0.41112200  0.79438000  1
  N  339  1  0.81379500  0.40585600  0.80512400  1
  N  340  1  0.91980500  0.39909200  0.83303500  1
  N  348  1  0.38128800  0.04056900  0.71832300  1
  N  355  1  0.31986600  0.09550400  0.54430200  1
  N  357  1  0.40449500  0.05827200  0.62926300  1
  N  358  1  0.34302600  0.12039700  0.63222800  1
  N  367  1  0.32627000  0.03240900  0.55534600  1
  N  368  1  0.33047600  0.13867100  0.58286100  1
  N  369  1  0.42372500  0.04880400  0.67888000  1
  N  370  1  0.31794700  0.04584900  0.70773600  1
  N  378  1  0.12959000  0.90817100  0.21834700  1
  N  385  1  0.19098500  0.85325100  0.04430300  1
  N  387  1  0.10632800  0.89045800  0.12929500  1
  N  388  1  0.16779800  0.82831500  0.13221400  1
  N  397  1  0.18454200  0.91633000  0.05535800  1
  N  398  1  0.18040000  0.81006700  0.08283200  1
  N  399  1  0.08713200  0.89995000  0.17892800  1
  N  400  1  0.19291500  0.90287400  0.20774100  1
  N  402  1  0.22851900  0.38722000  0.76094500  1
  N  405  1  0.27982100  0.42052600  0.74936500  1
  N  408  1  0.27763000  0.44987100  0.78639600  1
  N  416  1  0.28229500  0.56152800  0.26095700  1
  N  419  1  0.23100900  0.52820300  0.24936200  1
  N  422  1  0.23320600  0.49884500  0.28638300  1
  N  430  1  0.84204400  0.94690000  0.01041300  1
  N  432  1  0.78074800  0.99705700  0.03667100  1
  N  438  1  0.66880200  0.00181100  0.51042800  1
  N  441  1  0.70155900  0.95005300  0.49924300  1
  N  444  1  0.73015400  0.95170600  0.53666700  1
  N  452  1  0.78291800  0.56079800  0.25041600  1
  N  455  1  0.73109900  0.52811400  0.26155200  1
  N  458  1  0.73276600  0.49952100  0.22412600  1
  N  466  1  0.72790400  0.38791500  0.75042500  1
  N  469  1  0.77971100  0.42061100  0.76157400  1
  N  472  1  0.77804500  0.44922200  0.72416100  1
  N  481  1  0.19893300  0.94978800  0.01141400  1
  N  486  1  0.34394400  0.94667600  0.50044900  1
  N  489  1  0.31189400  0.99894200  0.51140200  1
  N  492  1  0.28428900  0.99820100  0.47347300  1
  N  500  1  0.72830500  0.88517500  0.26080700  1
  N  503  1  0.78014700  0.91780100  0.24956000  1
  N  506  1  0.77883100  0.94611100  0.28714500  1
  N  514  1  0.78253200  0.06356700  0.76082000  1
  N  517  1  0.73072000  0.03090900  0.74954200  1
  N  520  1  0.73204000  0.00256700  0.78710800  1
  N  528  1  0.34213000  0.44747200  0.51090100  1
  N  531  1  0.30884900  0.49882000  0.49940600  1
  N  534  1  0.27952600  0.49656700  0.53644500  1
  N  542  1  0.16870400  0.50126300  0.01091700  1
  N  544  1  0.23133100  0.45220000  0.03646300  1
  N  550  1  0.28313700  0.06272700  0.75050300  1
  N  553  1  0.23078800  0.03076000  0.76135700  1
  N  556  1  0.23157300  0.00318400  0.72341100  1
  N  564  1  0.22774400  0.88595700  0.25048700  1
  N  567  1  0.28006400  0.91795800  0.26136400  1
  N  570  1  0.27927100  0.94556000  0.22343700  1
  N  578  1  0.66623700  0.50146700  0.50000300  1
  N  581  1  0.69894700  0.44968900  0.51129000  1
  N  584  1  0.72738500  0.45110900  0.47377300  1
  N  593  1  0.81193400  0.49903800  0.01126900  1
  N  598  1  0.34419400  0.74412600  0.42972900  1
  N  601  1  0.29972700  0.69995600  0.43075600  1
  N  604  1  0.25901500  0.73580000  0.42994500  1
  N  612  1  0.02511600  0.88550400  0.17980500  1
  N  615  1  0.98083200  0.92984400  0.18114600  1
  N  618  1  0.01658700  0.97065000  0.18067400  1
  N  626  1  0.48576000  0.06325500  0.67977500  1
  N  629  1  0.53004000  0.01891600  0.68119000  1
  N  632  1  0.49428500  0.97811000  0.68068800  1
  N  640  1  0.34452900  0.20086600  0.58175600  1
  N  643  1  0.29972300  0.24467200  0.58023800  1
  N  646  1  0.25929800  0.20847800  0.58138400  1
  N  654  1  0.16632300  0.74789600  0.08177000  1
  N  657  1  0.21111200  0.70407100  0.08029000  1
  N  660  1  0.25155100  0.74024200  0.08146600  1
  N  668  1  0.48205300  0.88520200  0.33176700  1
  N  671  1  0.52595500  0.92990300  0.32995100  1
  N  674  1  0.48983300  0.97040500  0.33073600  1
  N  682  1  0.02878300  0.06352900  0.83177000  1
  N  685  1  0.98489500  0.01882300  0.82988600  1
  N  688  1  0.02102500  0.97832600  0.83070600  1
  N  696  1  0.84490900  0.74399000  0.08164600  1
  N  699  1  0.80041800  0.69984800  0.08017600  1
  N  702  1  0.75973200  0.73574100  0.08089000  1
  N  710  1  0.66597000  0.20472000  0.58165500  1
  N  713  1  0.71045100  0.24887100  0.58021400  1
  N  716  1  0.75114700  0.21299400  0.58093900  1
  N  724  1  0.66579200  0.74770900  0.42830600  1
  N  727  1  0.71060500  0.70392600  0.43039400  1
  N  730  1  0.75101500  0.74015200  0.42943300  1
  N  738  1  0.52497200  0.38500600  0.67925300  1
  N  741  1  0.48082600  0.42951300  0.68022900  1
  N  744  1  0.51670800  0.47019300  0.67916500  1
  N  752  1  0.98584100  0.56369500  0.17919200  1
  N  755  1  0.03000800  0.51921100  0.18024900  1
  N  758  1  0.99414700  0.47851300  0.17924100  1
  N  766  1  0.98205600  0.38474400  0.83237700  1
  N  769  1  0.02589800  0.42953200  0.83084300  1
  N  772  1  0.98972800  0.46997500  0.83219700  1
  N  780  1  0.52876400  0.56399900  0.33236700  1
  N  783  1  0.48493600  0.51920200  0.33080600  1
  N  786  1  0.52110800  0.47876800  0.33222300  1
  N  800  1  0.20126300  0.35351100  0.96456700  1
  N  803  1  0.17597100  0.32976000  0.87678100  1
  N  804  1  0.10865400  0.39806800  0.88366000  1
  N  811  1  0.19387100  0.31095600  0.92485000  1
  N  812  1  0.18800200  0.41619400  0.95551800  1
  N  821  1  0.81881100  0.09610800  0.96639000  1
  N  823  1  0.90282200  0.04851400  0.88348400  1
  N  824  1  0.84498100  0.11968500  0.87878300  1
  N  831  1  0.82407500  0.03274300  0.95567000  1
  N  832  1  0.83083900  0.13873800  0.92771100  1
  N  841  1  0.18918800  0.10017700  0.96818100  1
  N  843  1  0.10917300  0.06177400  0.88210100  1
  N  844  1  0.17130900  0.12324400  0.87911900  1
  N  851  1  0.18383500  0.03682600  0.95767800  1
  N  852  1  0.18094900  0.14254900  0.92870000  1
  N  860  1  0.81321500  0.34908000  0.96662700  1
  N  863  1  0.82967600  0.32708700  0.87719700  1
  N  864  1  0.90078300  0.38483900  0.88195900  1
  N  871  1  0.81680300  0.30729800  0.92598800  1
  N  872  1  0.82632200  0.41183200  0.95768000  1
  N  875  1  0.80933600  0.99869600  0.99924400  1
  N  880  1  0.16692900  0.00208800  0.00047500  1
  N  882  1  0.22651900  0.95050500  0.97347400  1
  N  889  1  0.20201500  0.44993500  0.99942000  1
  N  894  1  0.84465300  0.44726700  0.99998100  1
  N  896  1  0.78351000  0.49762400  0.97374800  1
  N  902  1  0.16666000  0.20463000  0.92975100  1
  N  905  1  0.21113800  0.24878500  0.93080100  1
  N  908  1  0.25184100  0.21292700  0.92997800  1
  N  916  1  0.84512600  0.20101600  0.92833400  1
  N  919  1  0.80031500  0.24480100  0.93036400  1
  N  922  1  0.75990300  0.20858400  0.92929700  1
